@<TRIPOS>MOLECULE
3R8
117   119    1
SMALL
USER_CHARGES


@<TRIPOS>ATOM
      1 CA         15.5074  -27.1307  -39.9277 C.3       0 UNK        -0.2013 
      2 C          15.8264  -26.5745  -41.3071 C.2       0 UNK         0.4866 
      3 O          15.5614  -25.4007  -41.5706 O.2       0 UNK        -0.5176 
      4 N          16.3816  -27.4105  -42.1925 N.am      1 UNK        -0.4884 
      5 CA         16.8117  -27.0351  -43.5450 C.3       1 UNK         0.0853 
      6 C6         17.0768  -28.2791  -44.4299 C.3       10 UNK        -0.0849 
      7 S7         15.6465  -29.4109  -44.5433 S.3       10 UNK        -0.2776 
      8 C8         15.9711  -30.2862  -46.1148 C.3       10 UNK         0.0316 
      9 C9         17.4035  -30.7971  -46.2037 C.ar      10 UNK        -0.0863 
     10 C10        17.8739  -31.7385  -45.2828 C.ar      10 UNK        -0.1009 
     11 C11        19.2189  -32.1196  -45.2841 C.ar      10 UNK        -0.0712 
     12 C12        20.0773  -31.6095  -46.2598 C.ar      10 UNK        -0.0894 
     13 C13        19.6192  -30.6660  -47.1832 C.ar      10 UNK        -0.0745 
     14 C14        18.2785  -30.2728  -47.1607 C.ar      10 UNK        -0.0972 
     15 C15        20.6009  -30.0006  -48.1359 C.3       10 UNK         0.0209 
     16 S16        21.0706  -28.3328  -47.5592 S.3       10 UNK        -0.2568 
     17 C17        21.6585  -28.6721  -45.8612 C.3       10 UNK        -0.0983 
     18 CA         21.9592  -27.3994  -45.0352 C.3       3 UNK         0.0876 
     19 N          20.8169  -26.4836  -45.0340 N.am      3 UNK        -0.4424 
     20 C          20.8342  -25.1962  -44.6694 C.2       2 UNK         0.4918 
     21 O          21.8500  -24.5999  -44.3120 O.2       2 UNK        -0.4875 
     22 CA         19.4773  -24.4605  -44.6722 C.3       2 UNK         0.0481 
     23 CB         19.3302  -23.6235  -45.9527 C.3       2 UNK        -0.1831 
     24 N          18.3031  -25.3379  -44.5287 N.am      2 UNK        -0.4498 
     25 C          18.0798  -26.1568  -43.4892 C.2       1 UNK         0.5027 
     26 O          18.8712  -26.2827  -42.5521 O.2       1 UNK        -0.4969 
     27 C          22.4212  -27.8092  -43.6166 C.2       3 UNK         0.5005 
     28 O          23.4817  -28.4235  -43.5037 O.2       3 UNK        -0.5279 
     29 N          21.6517  -27.4890  -42.5595 N.am      4 UNK        -0.4463 
     30 CA         21.8933  -27.8929  -41.1642 C.3       4 UNK         0.0283 
     31 CB         20.7266  -27.4283  -40.2804 C.3       4 UNK        -0.1875 
     32 C          23.2355  -27.4571  -40.5463 C.2       4 UNK         0.4949 
     33 O          23.5962  -27.9746  -39.4886 O.2       4 UNK        -0.5039 
     34 N          23.9724  -26.5649  -41.2191 N.am      5 UNK        -0.4663 
     35 CA         25.3743  -26.2574  -40.9305 C.3       5 UNK         0.0242 
     36 CB         25.7992  -25.0370  -41.7629 C.3       5 UNK        -0.1982 
     37 C          26.3290  -27.4433  -41.1864 C.2       5 UNK         0.5017 
     38 O          27.4063  -27.4709  -40.5904 O.2       5 UNK        -0.5012 
     39 N          25.9321  -28.3957  -42.0443 N.am      6 UNK        -0.4439 
     40 CA         26.6854  -29.6081  -42.3567 C.3       6 UNK         0.0297 
     41 CB         27.6617  -29.3174  -43.5147 C.3       6 UNK        -0.2006 
     42 C          25.7137  -30.7659  -42.6718 C.2       6 UNK         0.4892 
     43 O          25.5717  -31.1221  -43.8410 O.2       6 UNK        -0.5089 
     44 N          25.0310  -31.3619  -41.6832 N.am      7 UNK        -0.4243 
     45 CA         25.0509  -31.0748  -40.2513 C.3       7 UNK         0.0196 
     46 CB         26.2378  -31.7864  -39.5708 C.3       7 UNK        -0.2007 
     47 C          23.7332  -31.5718  -39.6450 C.2       7 UNK         0.5020 
     48 O          23.3499  -32.7143  -39.9016 O.2       7 UNK        -0.5147 
     49 N          23.0969  -30.7265  -38.8231 N.am      8 UNK        -0.4734 
     50 CA         21.9567  -31.0227  -37.9399 C.3       8 UNK         0.0238 
     51 CB         22.3919  -31.9911  -36.8185 C.3       8 UNK        -0.1912 
     52 C          20.6653  -31.4894  -38.6469 C.2       8 UNK         0.5038 
     53 O          19.8433  -32.1640  -38.0232 O.2       8 UNK        -0.5046 
     54 N          20.4980  -31.1157  -39.9206 N.am      9 UNK        -0.4200 
     55 CA         19.2967  -31.3696  -40.7297 C.3       9 UNK         0.0839 
     56 C          18.0252  -30.6665  -40.1776 C.2       9 UNK         0.5513 
     57 N          16.8537  -31.2438  -40.4065 N.am      9 UNK        -0.7519 
     58 O          18.0834  -29.5886  -39.5920 O.2       9 UNK        -0.4960 
     59 C59        19.5293  -30.9852  -42.2110 C.3       10 UNK        -0.0876 
     60 S60        20.7850  -32.0461  -43.0073 S.3       10 UNK        -0.2414 
     61 C61        19.7734  -33.0106  -44.1830 C.3       10 UNK         0.0169 
     62 H62        16.1429  -26.6594  -39.1784 H         1 UNK         0.0903 
     63 H63        14.4676  -26.9303  -39.6708 H         1 UNK         0.0903 
     64 H64        15.6664  -28.2075  -39.8771 H         1 UNK         0.0903 
     65 H65        16.5883  -28.3596  -41.9174 H         1 UNK         0.3096 
     66 H66        16.0114  -26.4471  -44.0001 H         1 UNK         0.1121 
     67 H67        17.3448  -27.9682  -45.4416 H         1 UNK         0.0849 
     68 H68        17.9278  -28.8491  -44.0507 H         1 UNK         0.0849 
     69 H69        15.2815  -31.1266  -46.2053 H         1 UNK         0.0865 
     70 H70        15.7463  -29.6148  -46.9450 H         1 UNK         0.0865 
     71 H71        17.2049  -32.1205  -44.5237 H         1 UNK         0.1346 
     72 H72        21.1225  -31.8874  -46.2468 H         1 UNK         0.1412 
     73 H73        17.9332  -29.5209  -47.8575 H         1 UNK         0.1426 
     74 H74        20.1559  -29.9239  -49.1290 H         1 UNK         0.0716 
     75 H75        21.5010  -30.6071  -48.2479 H         1 UNK         0.0716 
     76 H76        20.9009  -29.2535  -45.3352 H         1 UNK         0.0695 
     77 H77        22.5438  -29.3078  -45.9315 H         1 UNK         0.0695 
     78 H78        22.7994  -26.8811  -45.5023 H         1 UNK         0.0983 
     79 H79        19.9431  -26.8759  -45.3491 H         1 UNK         0.3095 
     80 H80        19.4797  -23.7791  -43.8191 H         1 UNK         0.0454 
     81 H81        20.1728  -22.9407  -46.0719 H         1 UNK         0.0851 
     82 H82        19.2923  -24.2511  -46.8440 H         1 UNK         0.0851 
     83 H83        18.4261  -23.0149  -45.9296 H         1 UNK         0.0851 
     84 H84        17.6182  -25.2925  -45.2703 H         1 UNK         0.2976 
     85 H85        20.7920  -26.9738  -42.7243 H         1 UNK         0.3116 
     86 H86        21.9060  -28.9830  -41.1605 H         1 UNK         0.0646 
     87 H87        20.8558  -27.7524  -39.2468 H         1 UNK         0.0847 
     88 H88        19.7793  -27.8406  -40.6251 H         1 UNK         0.0847 
     89 H89        20.6346  -26.3416  -40.2745 H         1 UNK         0.0847 
     90 H90        23.5893  -26.1867  -42.0737 H         1 UNK         0.3040 
     91 H91        25.4529  -25.9996  -39.8719 H         1 UNK         0.1015 
     92 H92        25.7270  -25.2338  -42.8334 H         1 UNK         0.0786 
     93 H93        26.8332  -24.7608  -41.5510 H         1 UNK         0.0786 
     94 H94        25.1808  -24.1677  -41.5379 H         1 UNK         0.0786 
     95 H95        25.0219  -28.3191  -42.5002 H         1 UNK         0.3172 
     96 H96        27.2851  -29.8989  -41.4955 H         1 UNK         0.0595 
     97 H97        28.2182  -30.2138  -43.7910 H         1 UNK         0.0839 
     98 H98        27.1375  -28.9684  -44.4053 H         1 UNK         0.0839 
     99 H99        28.3916  -28.5568  -43.2374 H         1 UNK         0.0839 
    100 H100       24.3805  -32.0968  -41.9301 H         1 UNK         0.2998 
    101 H101       25.1350  -30.0023  -40.0834 H         1 UNK         0.0822 
    102 H102       26.2313  -31.6039  -38.4952 H         1 UNK         0.0787 
    103 H103       26.1916  -32.8668  -39.7149 H         1 UNK         0.0787 
    104 H104       27.2026  -31.4480  -39.9430 H         1 UNK         0.0787 
    105 H105       23.4483  -29.7726  -38.7652 H         1 UNK         0.3055 
    106 H106       21.6953  -30.0750  -37.4661 H         1 UNK         0.1106 
    107 H107       22.6133  -32.9852  -37.2083 H         1 UNK         0.0828 
    108 H108       23.2804  -31.6276  -36.3021 H         1 UNK         0.0828 
    109 H109       21.6093  -32.1035  -36.0671 H         1 UNK         0.0828 
    110 H110       21.2374  -30.5973  -40.3653 H         1 UNK         0.2931 
    111 H111       19.1119  -32.4451  -40.6860 H         1 UNK         0.0412 
    112 H112       16.0148  -30.8084  -40.0578 H         1 UNK         0.3472 
    113 H113       16.7926  -32.1273  -40.8881 H         1 UNK         0.3472 
    114 H114       19.8438  -29.9440  -42.2980 H         1 UNK         0.0970 
    115 H115       18.5954  -31.0543  -42.7680 H         1 UNK         0.0970 
    116 H116       18.9705  -33.5157  -43.6437 H         1 UNK         0.0612 
    117 H117       20.3913  -33.7933  -44.6252 H         1 UNK         0.0612 
@<TRIPOS>BOND
     1    1    2 1    
     2    1   62 1    
     3    1   63 1    
     4    1   64 1    
     5    2    3 2    
     6    2    4 am   BACKBONE|DICT|INTERRES
     7    4    5 1    
     8    4   65 1    
     9    5    6 1    
    10    5   25 1    
    11    5   66 1    
    12    6    7 1    
    13    6   67 1    
    14    6   68 1    
    15    7    8 1    
    16    8    9 1    
    17    8   69 1    
    18    8   70 1    
    19    9   10 ar   
    20    9   14 ar   
    21   10   11 ar   
    22   10   71 1    
    23   11   12 ar   
    24   11   61 1    
    25   12   13 ar   
    26   12   72 1    
    27   13   14 ar   
    28   13   15 1    
    29   14   73 1    
    30   15   16 1    
    31   15   74 1    
    32   15   75 1    
    33   16   17 1    
    34   17   18 1    
    35   17   76 1    
    36   17   77 1    
    37   18   19 1    
    38   18   27 1    
    39   18   78 1    
    40   19   20 am   BACKBONE|DICT|INTERRES
    41   19   79 1    
    42   20   21 2    
    43   20   22 1    
    44   22   23 1    
    45   22   24 1    
    46   22   80 1    
    47   23   81 1    
    48   23   82 1    
    49   23   83 1    
    50   24   25 am   BACKBONE|DICT|INTERRES
    51   24   84 1    
    52   25   26 2    
    53   27   28 2    
    54   27   29 am   BACKBONE|DICT|INTERRES
    55   29   30 1    
    56   29   85 1    
    57   30   31 1    
    58   30   32 1    
    59   30   86 1    
    60   31   87 1    
    61   31   88 1    
    62   31   89 1    
    63   32   33 2    
    64   32   34 am   BACKBONE|DICT|INTERRES
    65   34   35 1    
    66   34   90 1    
    67   35   36 1    
    68   35   37 1    
    69   35   91 1    
    70   36   92 1    
    71   36   93 1    
    72   36   94 1    
    73   37   38 2    
    74   37   39 am   BACKBONE|DICT|INTERRES
    75   39   40 1    
    76   39   95 1    
    77   40   41 1    
    78   40   42 1    
    79   40   96 1    
    80   41   97 1    
    81   41   98 1    
    82   41   99 1    
    83   42   43 2    
    84   42   44 am   BACKBONE|DICT|INTERRES
    85   44   45 1    
    86   44  100 1    
    87   45   46 1    
    88   45   47 1    
    89   45  101 1    
    90   46  102 1    
    91   46  103 1    
    92   46  104 1    
    93   47   48 2    
    94   47   49 am   BACKBONE|DICT|INTERRES
    95   49   50 1    
    96   49  105 1    
    97   50   51 1    
    98   50   52 1    
    99   50  106 1    
   100   51  107 1    
   101   51  108 1    
   102   51  109 1    
   103   52   53 2    
   104   52   54 am   BACKBONE|DICT|INTERRES
   105   54   55 1    
   106   54  110 1    
   107   55   56 1    
   108   55   59 1    
   109   55  111 1    
   110   56   57 am   BACKBONE|DICT|INTERRES
   111   56   58 2    
   112   57  112 1    
   113   57  113 1    
   114   59   60 1    
   115   59  114 1    
   116   59  115 1    
   117   60   61 1    
   118   61  116 1    
   119   61  117 1    
@<TRIPOS>SUBSTRUCTURE
     1 UNK         1 GROUP             0       ****    0 ROOT    
