@<TRIPOS>MOLECULE
3R8
117   119    1
SMALL
USER_CHARGES


@<TRIPOS>ATOM
      1 CA         15.3186  -23.9402  -43.6343 C.3       0 UNK        -0.2013 
      2 C          15.4819  -24.1316  -45.1404 C.2       0 UNK         0.4866 
      3 O          14.8993  -23.3610  -45.9007 O.2       0 UNK        -0.5176 
      4 N          16.2414  -25.1190  -45.6406 N.am      1 UNK        -0.4884 
      5 CA         17.0433  -26.1377  -44.9427 C.3       1 UNK         0.0853 
      6 C6         16.2340  -27.1066  -44.0341 C.3       10 UNK        -0.0849 
      7 S7         14.8654  -27.9838  -44.8697 S.3       10 UNK        -0.2776 
      8 C8         15.6896  -29.1190  -46.0472 C.3       10 UNK         0.0316 
      9 C9         16.9932  -29.7219  -45.5332 C.ar      10 UNK        -0.0863 
     10 C10        17.0163  -30.5032  -44.3744 C.ar      10 UNK        -0.1009 
     11 C11        18.2189  -31.0160  -43.8758 C.ar      10 UNK        -0.0712 
     12 C12        19.4073  -30.7546  -44.5745 C.ar      10 UNK        -0.0894 
     13 C13        19.4011  -29.9806  -45.7391 C.ar      10 UNK        -0.0745 
     14 C14        18.1857  -29.4836  -46.2196 C.ar      10 UNK        -0.0972 
     15 C15        20.7067  -29.6998  -46.4793 C.3       10 UNK         0.0209 
     16 S16        20.8574  -27.9532  -46.9927 S.3       10 UNK        -0.2568 
     17 C17        22.4813  -27.4602  -46.3134 C.3       10 UNK        -0.0983 
     18 CA         22.4033  -26.7392  -44.9415 C.3       3 UNK         0.0876 
     19 N          21.3803  -25.6938  -44.9399 N.am      3 UNK        -0.4424 
     20 C          21.2865  -24.6743  -44.0792 C.2       2 UNK         0.4918 
     21 O          22.1087  -24.4489  -43.1913 O.2       2 UNK        -0.4875 
     22 CA         20.0356  -23.7806  -44.2130 C.3       2 UNK         0.0481 
     23 CB         20.3513  -22.5418  -45.0653 C.3       2 UNK        -0.1831 
     24 N          18.8584  -24.4685  -44.7690 N.am      2 UNK        -0.4498 
     25 C          18.2766  -25.5482  -44.2229 C.2       1 UNK         0.5027 
     26 O          18.6931  -26.0766  -43.1928 O.2       1 UNK        -0.4969 
     27 C          22.2766  -27.7503  -43.7809 C.2       3 UNK         0.5005 
     28 O          23.2221  -28.5113  -43.5748 O.2       3 UNK        -0.5279 
     29 N          21.1611  -27.7615  -43.0306 N.am      4 UNK        -0.4463 
     30 CA         20.9020  -28.7183  -41.9445 C.3       4 UNK         0.0283 
     31 CB         19.4889  -28.5091  -41.3823 C.3       4 UNK        -0.1875 
     32 C          21.9351  -28.6986  -40.8064 C.2       4 UNK         0.4949 
     33 O          22.1844  -29.7422  -40.2024 O.2       4 UNK        -0.5039 
     34 N          22.5379  -27.5283  -40.5572 N.am      5 UNK        -0.4663 
     35 CA         23.6241  -27.3469  -39.5922 C.3       5 UNK         0.0242 
     36 CB         23.7747  -25.8497  -39.2791 C.3       5 UNK        -0.1982 
     37 C          24.9634  -27.9328  -40.0751 C.2       5 UNK         0.5017 
     38 O          25.7607  -28.3654  -39.2431 O.2       5 UNK        -0.5012 
     39 N          25.1862  -27.9406  -41.3972 N.am      6 UNK        -0.4439 
     40 CA         26.3742  -28.5101  -42.0376 C.3       6 UNK         0.0297 
     41 CB         26.6318  -27.8021  -43.3781 C.3       6 UNK        -0.2006 
     42 C          26.2245  -30.0251  -42.2391 C.2       6 UNK         0.4892 
     43 O          27.1814  -30.7652  -42.0100 O.2       6 UNK        -0.5089 
     44 N          25.0195  -30.4565  -42.6385 N.am      7 UNK        -0.4243 
     45 CA         24.6268  -31.8606  -42.7762 C.3       7 UNK         0.0196 
     46 CB         23.2951  -31.9288  -43.5404 C.3       7 UNK        -0.2007 
     47 C          24.5079  -32.5933  -41.4269 C.2       7 UNK         0.5020 
     48 O          24.6290  -33.8181  -41.4017 O.2       7 UNK        -0.5147 
     49 N          24.2761  -31.8327  -40.3459 N.am      8 UNK        -0.4734 
     50 CA         24.0750  -32.2695  -38.9605 C.3       8 UNK         0.0238 
     51 CB         25.3533  -32.9225  -38.3919 C.3       8 UNK        -0.1912 
     52 C          22.8198  -33.1481  -38.8167 C.2       8 UNK         0.5038 
     53 O          22.8948  -34.2531  -38.2742 O.2       8 UNK        -0.5046 
     54 N          21.6938  -32.6396  -39.3344 N.am      9 UNK        -0.4200 
     55 CA         20.3751  -33.2903  -39.2925 C.3       9 UNK         0.0839 
     56 C          19.8584  -33.5126  -37.8440 C.2       9 UNK         0.5513 
     57 N          19.1766  -34.6217  -37.5925 N.am      9 UNK        -0.7519 
     58 O          20.0281  -32.6700  -36.9649 O.2       9 UNK        -0.4960 
     59 C59        19.3232  -32.5061  -40.1160 C.3       10 UNK        -0.0876 
     60 S60        19.7757  -32.3273  -41.8724 S.3       10 UNK        -0.2414 
     61 C61        18.1672  -31.8114  -42.5683 C.3       10 UNK         0.0169 
     62 H62        16.2320  -24.1354  -43.0775 H         1 UNK         0.0903 
     63 H63        15.0275  -22.9124  -43.4181 H         1 UNK         0.0903 
     64 H64        14.5306  -24.5911  -43.2573 H         1 UNK         0.0903 
     65 H65        16.2822  -25.1900  -46.6482 H         1 UNK         0.3096 
     66 H66        17.4742  -26.7465  -45.7379 H         1 UNK         0.1121 
     67 H67        15.8161  -26.5781  -43.1782 H         1 UNK         0.0849 
     68 H68        16.8914  -27.8572  -43.5948 H         1 UNK         0.0849 
     69 H69        15.0001  -29.9266  -46.2965 H         1 UNK         0.0865 
     70 H70        15.8609  -28.5752  -46.9775 H         1 UNK         0.0865 
     71 H71        16.0928  -30.6867  -43.8417 H         1 UNK         0.1346 
     72 H72        20.3490  -31.1427  -44.2170 H         1 UNK         0.1412 
     73 H73        18.1728  -28.8940  -47.1260 H         1 UNK         0.1426 
     74 H74        21.5595  -29.9776  -45.8583 H         1 UNK         0.0716 
     75 H75        20.7527  -30.3326  -47.3662 H         1 UNK         0.0716 
     76 H76        22.9267  -26.7776  -47.0387 H         1 UNK         0.0695 
     77 H77        23.1567  -28.3178  -46.2846 H         1 UNK         0.0695 
     78 H78        23.3646  -26.2445  -44.7846 H         1 UNK         0.0983 
     79 H79        20.6593  -25.8010  -45.6387 H         1 UNK         0.3095 
     80 H80        19.7713  -23.4431  -43.2088 H         1 UNK         0.0454 
     81 H81        19.5101  -21.8489  -45.0872 H         1 UNK         0.0851 
     82 H82        20.5945  -22.8095  -46.0943 H         1 UNK         0.0851 
     83 H83        21.2054  -21.9968  -44.6604 H         1 UNK         0.0851 
     84 H84        18.4540  -24.0787  -45.6091 H         1 UNK         0.2976 
     85 H85        20.4159  -27.1026  -43.2343 H         1 UNK         0.3116 
     86 H86        20.9450  -29.7127  -42.3856 H         1 UNK         0.0646 
     87 H87        18.7330  -28.6462  -42.1548 H         1 UNK         0.0847 
     88 H88        19.2718  -29.2260  -40.5901 H         1 UNK         0.0847 
     89 H89        19.3649  -27.5106  -40.9620 H         1 UNK         0.0847 
     90 H90        22.2594  -26.7213  -41.0980 H         1 UNK         0.3040 
     91 H91        23.3541  -27.8651  -38.6689 H         1 UNK         0.1015 
     92 H92        24.0254  -25.2726  -40.1704 H         1 UNK         0.0786 
     93 H93        24.5666  -25.6815  -38.5477 H         1 UNK         0.0786 
     94 H94        22.8563  -25.4381  -38.8599 H         1 UNK         0.0786 
     95 H95        24.4405  -27.6423  -42.0127 H         1 UNK         0.3172 
     96 H96        27.2415  -28.3384  -41.3962 H         1 UNK         0.0595 
     97 H97        25.8099  -27.9421  -44.0809 H         1 UNK         0.0839 
     98 H98        27.5338  -28.1896  -43.8537 H         1 UNK         0.0839 
     99 H99        26.7751  -26.7304  -43.2391 H         1 UNK         0.0839 
    100 H100       24.3124  -29.7619  -42.8760 H         1 UNK         0.2998 
    101 H101       25.3917  -32.3717  -43.3645 H         1 UNK         0.0822 
    102 H102       22.9769  -32.9621  -43.6856 H         1 UNK         0.0787 
    103 H103       22.5013  -31.4163  -42.9976 H         1 UNK         0.0787 
    104 H104       23.3773  -31.4700  -44.5258 H         1 UNK         0.0787 
    105 H105       24.1128  -30.8470  -40.5076 H         1 UNK         0.3055 
    106 H106       23.8818  -31.3665  -38.3783 H         1 UNK         0.1106 
    107 H107       26.2133  -32.2602  -38.4919 H         1 UNK         0.0828 
    108 H108       25.2367  -33.1451  -37.3307 H         1 UNK         0.0828 
    109 H109       25.5915  -33.8601  -38.8947 H         1 UNK         0.0828 
    110 H110       21.7292  -31.7161  -39.7523 H         1 UNK         0.2931 
    111 H111       20.4989  -34.2711  -39.7565 H         1 UNK         0.0412 
    112 H112       19.0246  -35.3143  -38.3098 H         1 UNK         0.3472 
    113 H113       18.8180  -34.7773  -36.6630 H         1 UNK         0.3472 
    114 H114       19.1716  -31.5117  -39.6924 H         1 UNK         0.0970 
    115 H115       18.3562  -33.0111  -40.0667 H         1 UNK         0.0970 
    116 H116       17.5546  -32.7017  -42.7166 H         1 UNK         0.0612 
    117 H117       17.6527  -31.1993  -41.8258 H         1 UNK         0.0612 
@<TRIPOS>BOND
     1    1    2 1    
     2    1   62 1    
     3    1   63 1    
     4    1   64 1    
     5    2    3 2    
     6    2    4 am   BACKBONE|DICT|INTERRES
     7    4    5 1    
     8    4   65 1    
     9    5    6 1    
    10    5   25 1    
    11    5   66 1    
    12    6    7 1    
    13    6   67 1    
    14    6   68 1    
    15    7    8 1    
    16    8    9 1    
    17    8   69 1    
    18    8   70 1    
    19    9   10 ar   
    20    9   14 ar   
    21   10   11 ar   
    22   10   71 1    
    23   11   12 ar   
    24   11   61 1    
    25   12   13 ar   
    26   12   72 1    
    27   13   14 ar   
    28   13   15 1    
    29   14   73 1    
    30   15   16 1    
    31   15   74 1    
    32   15   75 1    
    33   16   17 1    
    34   17   18 1    
    35   17   76 1    
    36   17   77 1    
    37   18   19 1    
    38   18   27 1    
    39   18   78 1    
    40   19   20 am   BACKBONE|DICT|INTERRES
    41   19   79 1    
    42   20   21 2    
    43   20   22 1    
    44   22   23 1    
    45   22   24 1    
    46   22   80 1    
    47   23   81 1    
    48   23   82 1    
    49   23   83 1    
    50   24   25 am   BACKBONE|DICT|INTERRES
    51   24   84 1    
    52   25   26 2    
    53   27   28 2    
    54   27   29 am   BACKBONE|DICT|INTERRES
    55   29   30 1    
    56   29   85 1    
    57   30   31 1    
    58   30   32 1    
    59   30   86 1    
    60   31   87 1    
    61   31   88 1    
    62   31   89 1    
    63   32   33 2    
    64   32   34 am   BACKBONE|DICT|INTERRES
    65   34   35 1    
    66   34   90 1    
    67   35   36 1    
    68   35   37 1    
    69   35   91 1    
    70   36   92 1    
    71   36   93 1    
    72   36   94 1    
    73   37   38 2    
    74   37   39 am   BACKBONE|DICT|INTERRES
    75   39   40 1    
    76   39   95 1    
    77   40   41 1    
    78   40   42 1    
    79   40   96 1    
    80   41   97 1    
    81   41   98 1    
    82   41   99 1    
    83   42   43 2    
    84   42   44 am   BACKBONE|DICT|INTERRES
    85   44   45 1    
    86   44  100 1    
    87   45   46 1    
    88   45   47 1    
    89   45  101 1    
    90   46  102 1    
    91   46  103 1    
    92   46  104 1    
    93   47   48 2    
    94   47   49 am   BACKBONE|DICT|INTERRES
    95   49   50 1    
    96   49  105 1    
    97   50   51 1    
    98   50   52 1    
    99   50  106 1    
   100   51  107 1    
   101   51  108 1    
   102   51  109 1    
   103   52   53 2    
   104   52   54 am   BACKBONE|DICT|INTERRES
   105   54   55 1    
   106   54  110 1    
   107   55   56 1    
   108   55   59 1    
   109   55  111 1    
   110   56   57 am   BACKBONE|DICT|INTERRES
   111   56   58 2    
   112   57  112 1    
   113   57  113 1    
   114   59   60 1    
   115   59  114 1    
   116   59  115 1    
   117   60   61 1    
   118   61  116 1    
   119   61  117 1    
@<TRIPOS>SUBSTRUCTURE
     1 UNK         1 GROUP             0       ****    0 ROOT    
