@<TRIPOS>MOLECULE
3R8
117   119    1
SMALL
USER_CHARGES


@<TRIPOS>ATOM
      1 CA         11.9807  -24.2614  -47.0249 C.3       0 UNK        -0.2013 
      2 C          13.4147  -24.7689  -47.0581 C.2       0 UNK         0.4866 
      3 O          14.2096  -24.3066  -47.8777 O.2       0 UNK        -0.5176 
      4 N          13.7489  -25.7227  -46.1810 N.am      1 UNK        -0.4884 
      5 CA         15.0965  -26.2758  -46.0160 C.3       1 UNK         0.0853 
      6 C6         15.0712  -27.6705  -45.3307 C.3       10 UNK        -0.0849 
      7 S7         14.1457  -27.7481  -43.7512 S.3       10 UNK        -0.2776 
      8 C8         15.4448  -27.4686  -42.4890 C.3       10 UNK         0.0316 
      9 C9         16.4050  -28.6288  -42.2084 C.ar      10 UNK        -0.0863 
     10 C10        16.4479  -29.7975  -42.9807 C.ar      10 UNK        -0.1009 
     11 C11        17.3512  -30.8209  -42.6813 C.ar      10 UNK        -0.0712 
     12 C12        18.2002  -30.6906  -41.5803 C.ar      10 UNK        -0.0894 
     13 C13        18.1851  -29.5267  -40.8094 C.ar      10 UNK        -0.0745 
     14 C14        17.2865  -28.5038  -41.1282 C.ar      10 UNK        -0.0972 
     15 C15        19.1374  -29.3835  -39.6309 C.3       10 UNK         0.0209 
     16 S16        20.8220  -28.9431  -40.1665 S.3       10 UNK        -0.2568 
     17 C17        20.6134  -27.2132  -40.7069 C.3       10 UNK        -0.0983 
     18 CA         20.7451  -27.0839  -42.2467 C.3       3 UNK         0.0876 
     19 N          19.7907  -26.1216  -42.7970 N.am      3 UNK        -0.4424 
     20 C          19.2601  -26.2223  -44.0191 C.2       2 UNK         0.4918 
     21 O          19.4441  -27.1792  -44.7782 O.2       2 UNK        -0.4875 
     22 CA         18.3796  -25.0555  -44.4788 C.3       2 UNK         0.0481 
     23 CB         19.1989  -24.0246  -45.2717 C.3       2 UNK        -0.1831 
     24 N          17.3357  -25.6154  -45.3269 N.am      2 UNK        -0.4498 
     25 C          16.0372  -25.3056  -45.2712 C.2       1 UNK         0.5027 
     26 O          15.5828  -24.3606  -44.6195 O.2       1 UNK        -0.4969 
     27 C          22.1744  -26.6999  -42.6813 C.2       3 UNK         0.5005 
     28 O          22.4514  -25.5221  -42.9271 O.2       3 UNK        -0.5279 
     29 N          23.0558  -27.6988  -42.7553 N.am      4 UNK        -0.4463 
     30 CA         24.4493  -27.6078  -43.1810 C.3       4 UNK         0.0283 
     31 CB         24.5290  -27.4092  -44.7101 C.3       4 UNK        -0.1875 
     32 C          25.1562  -28.8953  -42.7331 C.2       4 UNK         0.4949 
     33 O          24.5496  -29.6972  -42.0184 O.2       4 UNK        -0.5039 
     34 N          26.4178  -29.0706  -43.1532 N.am      5 UNK        -0.4663 
     35 CA         27.2481  -30.2712  -42.9610 C.3       5 UNK         0.0242 
     36 CB         26.6717  -31.4524  -43.7731 C.3       5 UNK        -0.1982 
     37 C          27.4865  -30.6285  -41.4795 C.2       5 UNK         0.5017 
     38 O          27.4633  -31.8059  -41.1202 O.2       5 UNK        -0.5012 
     39 N          27.7029  -29.5939  -40.6519 N.am      6 UNK        -0.4439 
     40 CA         27.8360  -29.6466  -39.1892 C.3       6 UNK         0.0297 
     41 CB         29.0993  -30.4276  -38.7651 C.3       6 UNK        -0.2006 
     42 C          26.5469  -30.1524  -38.5094 C.2       6 UNK         0.4892 
     43 O          26.6018  -31.0346  -37.6508 O.2       6 UNK        -0.5089 
     44 N          25.4162  -29.5596  -38.9212 N.am      7 UNK        -0.4243 
     45 CA         24.0431  -29.8384  -38.4889 C.3       7 UNK         0.0196 
     46 CB         23.8469  -29.5136  -36.9923 C.3       7 UNK        -0.2007 
     47 C          23.5810  -31.2570  -38.8738 C.2       7 UNK         0.5020 
     48 O          23.1164  -32.0134  -38.0187 O.2       7 UNK        -0.5147 
     49 N          23.7184  -31.5892  -40.1624 N.am      8 UNK        -0.4734 
     50 CA         23.3566  -32.8816  -40.7452 C.3       8 UNK         0.0238 
     51 CB         24.6016  -33.7874  -40.8025 C.3       8 UNK        -0.1912 
     52 C          22.6782  -32.7089  -42.1161 C.2       8 UNK         0.5038 
     53 O          22.8679  -33.5549  -42.9915 O.2       8 UNK        -0.5046 
     54 N          21.8729  -31.6442  -42.2592 N.am      9 UNK        -0.4200 
     55 CA         21.0953  -31.2700  -43.4549 C.3       9 UNK         0.0839 
     56 C          21.9601  -30.6487  -44.5865 C.2       9 UNK         0.5513 
     57 N          21.4859  -29.5780  -45.2101 N.am      9 UNK        -0.7519 
     58 O          23.0367  -31.1307  -44.9263 O.2       9 UNK        -0.4960 
     59 C59        20.1969  -32.4341  -43.9668 C.3       10 UNK        -0.0876 
     60 S60        18.6953  -31.8826  -44.8466 S.3       10 UNK        -0.2414 
     61 C61        17.4150  -32.0580  -43.5622 C.3       10 UNK         0.0169 
     62 H62        11.3870  -24.7666  -46.2632 H         1 UNK         0.0903 
     63 H63        11.9663  -23.1928  -46.8123 H         1 UNK         0.0903 
     64 H64        11.5023  -24.4238  -47.9904 H         1 UNK         0.0903 
     65 H65        13.0704  -26.0461  -45.5051 H         1 UNK         0.3096 
     66 H66        15.5192  -26.4097  -47.0149 H         1 UNK         0.1121 
     67 H67        14.5976  -28.3823  -46.0086 H         1 UNK         0.0849 
     68 H68        16.0830  -28.0534  -45.1870 H         1 UNK         0.0849 
     69 H69        14.9342  -27.2210  -41.5571 H         1 UNK         0.0865 
     70 H70        16.0264  -26.5854  -42.7504 H         1 UNK         0.0865 
     71 H71        15.7875  -29.9256  -43.8251 H         1 UNK         0.1346 
     72 H72        18.8937  -31.4841  -41.3387 H         1 UNK         0.1412 
     73 H73        17.2703  -27.6042  -40.5280 H         1 UNK         0.1426 
     74 H74        19.1804  -30.3268  -39.0844 H         1 UNK         0.0716 
     75 H75        18.7714  -28.6400  -38.9211 H         1 UNK         0.0716 
     76 H76        21.3340  -26.5863  -40.1775 H         1 UNK         0.0695 
     77 H77        19.6354  -26.8654  -40.3724 H         1 UNK         0.0695 
     78 H78        20.5166  -28.0544  -42.6927 H         1 UNK         0.0983 
     79 H79        19.6458  -25.2783  -42.2613 H         1 UNK         0.3095 
     80 H80        17.9425  -24.5774  -43.5994 H         1 UNK         0.0454 
     81 H81        19.6653  -24.4702  -46.1513 H         1 UNK         0.0851 
     82 H82        19.9959  -23.6031  -44.6579 H         1 UNK         0.0851 
     83 H83        18.5740  -23.1969  -45.6071 H         1 UNK         0.0851 
     84 H84        17.6315  -26.4376  -45.8392 H         1 UNK         0.2976 
     85 H85        22.7972  -28.6280  -42.4473 H         1 UNK         0.3116 
     86 H86        24.9211  -26.7651  -42.6722 H         1 UNK         0.0646 
     87 H87        24.1550  -28.2819  -45.2464 H         1 UNK         0.0847 
     88 H88        25.5545  -27.2393  -45.0384 H         1 UNK         0.0847 
     89 H89        23.9496  -26.5455  -45.0360 H         1 UNK         0.0847 
     90 H90        26.8374  -28.3394  -43.7113 H         1 UNK         0.3040 
     91 H91        28.2319  -30.0405  -43.3733 H         1 UNK         0.1015 
     92 H92        25.6972  -31.7666  -43.3964 H         1 UNK         0.0786 
     93 H93        27.3319  -32.3196  -43.7318 H         1 UNK         0.0786 
     94 H94        26.5503  -31.1892  -44.8238 H         1 UNK         0.0786 
     95 H95        27.7090  -28.6697  -41.0614 H         1 UNK         0.3172 
     96 H96        27.9683  -28.6155  -38.8577 H         1 UNK         0.0595 
     97 H97        29.2586  -30.3524  -37.6888 H         1 UNK         0.0839 
     98 H98        29.9917  -30.0350  -39.2522 H         1 UNK         0.0839 
     99 H99        29.0245  -31.4885  -39.0054 H         1 UNK         0.0839 
    100 H100       25.4978  -28.8852  -39.6686 H         1 UNK         0.2998 
    101 H101       23.4169  -29.1469  -39.0508 H         1 UNK         0.0822 
    102 H102       22.7971  -29.6070  -36.7111 H         1 UNK         0.0787 
    103 H103       24.4151  -30.1870  -36.3501 H         1 UNK         0.0787 
    104 H104       24.1533  -28.4928  -36.7642 H         1 UNK         0.0787 
    105 H105       24.1031  -30.9021  -40.8138 H         1 UNK         0.3055 
    106 H106       22.6141  -33.3709  -40.1109 H         1 UNK         0.1106 
    107 H107       24.3419  -34.7937  -41.1329 H         1 UNK         0.0828 
    108 H108       25.3459  -33.3974  -41.4968 H         1 UNK         0.0828 
    109 H109       25.0734  -33.8792  -39.8241 H         1 UNK         0.0828 
    110 H110       21.8019  -31.0079  -41.4778 H         1 UNK         0.2931 
    111 H111       20.4395  -30.4775  -43.0957 H         1 UNK         0.0412 
    112 H112       20.5886  -29.1745  -44.9772 H         1 UNK         0.3472 
    113 H113       22.0236  -29.1790  -45.9621 H         1 UNK         0.3472 
    114 H114       20.7608  -33.0939  -44.6290 H         1 UNK         0.0970 
    115 H115       19.8899  -33.0664  -43.1332 H         1 UNK         0.0970 
    116 H116       17.5915  -32.9507  -42.9606 H         1 UNK         0.0612 
    117 H117       16.4530  -32.2134  -44.0529 H         1 UNK         0.0612 
@<TRIPOS>BOND
     1    1    2 1    
     2    1   62 1    
     3    1   63 1    
     4    1   64 1    
     5    2    3 2    
     6    2    4 am   BACKBONE|DICT|INTERRES
     7    4    5 1    
     8    4   65 1    
     9    5    6 1    
    10    5   25 1    
    11    5   66 1    
    12    6    7 1    
    13    6   67 1    
    14    6   68 1    
    15    7    8 1    
    16    8    9 1    
    17    8   69 1    
    18    8   70 1    
    19    9   10 ar   
    20    9   14 ar   
    21   10   11 ar   
    22   10   71 1    
    23   11   12 ar   
    24   11   61 1    
    25   12   13 ar   
    26   12   72 1    
    27   13   14 ar   
    28   13   15 1    
    29   14   73 1    
    30   15   16 1    
    31   15   74 1    
    32   15   75 1    
    33   16   17 1    
    34   17   18 1    
    35   17   76 1    
    36   17   77 1    
    37   18   19 1    
    38   18   27 1    
    39   18   78 1    
    40   19   20 am   BACKBONE|DICT|INTERRES
    41   19   79 1    
    42   20   21 2    
    43   20   22 1    
    44   22   23 1    
    45   22   24 1    
    46   22   80 1    
    47   23   81 1    
    48   23   82 1    
    49   23   83 1    
    50   24   25 am   BACKBONE|DICT|INTERRES
    51   24   84 1    
    52   25   26 2    
    53   27   28 2    
    54   27   29 am   BACKBONE|DICT|INTERRES
    55   29   30 1    
    56   29   85 1    
    57   30   31 1    
    58   30   32 1    
    59   30   86 1    
    60   31   87 1    
    61   31   88 1    
    62   31   89 1    
    63   32   33 2    
    64   32   34 am   BACKBONE|DICT|INTERRES
    65   34   35 1    
    66   34   90 1    
    67   35   36 1    
    68   35   37 1    
    69   35   91 1    
    70   36   92 1    
    71   36   93 1    
    72   36   94 1    
    73   37   38 2    
    74   37   39 am   BACKBONE|DICT|INTERRES
    75   39   40 1    
    76   39   95 1    
    77   40   41 1    
    78   40   42 1    
    79   40   96 1    
    80   41   97 1    
    81   41   98 1    
    82   41   99 1    
    83   42   43 2    
    84   42   44 am   BACKBONE|DICT|INTERRES
    85   44   45 1    
    86   44  100 1    
    87   45   46 1    
    88   45   47 1    
    89   45  101 1    
    90   46  102 1    
    91   46  103 1    
    92   46  104 1    
    93   47   48 2    
    94   47   49 am   BACKBONE|DICT|INTERRES
    95   49   50 1    
    96   49  105 1    
    97   50   51 1    
    98   50   52 1    
    99   50  106 1    
   100   51  107 1    
   101   51  108 1    
   102   51  109 1    
   103   52   53 2    
   104   52   54 am   BACKBONE|DICT|INTERRES
   105   54   55 1    
   106   54  110 1    
   107   55   56 1    
   108   55   59 1    
   109   55  111 1    
   110   56   57 am   BACKBONE|DICT|INTERRES
   111   56   58 2    
   112   57  112 1    
   113   57  113 1    
   114   59   60 1    
   115   59  114 1    
   116   59  115 1    
   117   60   61 1    
   118   61  116 1    
   119   61  117 1    
@<TRIPOS>SUBSTRUCTURE
     1 UNK         1 GROUP             0       ****    0 ROOT    
