@<TRIPOS>MOLECULE
3R8
117   119    1
SMALL
USER_CHARGES


@<TRIPOS>ATOM
      1 CA         13.2492  -25.1581  -49.8547 C.3       0 UNK        -0.2013 
      2 C          14.6197  -25.6542  -49.4183 C.2       0 UNK         0.4866 
      3 O          15.3005  -26.3324  -50.1884 O.2       0 UNK        -0.5176 
      4 N          15.0312  -25.3187  -48.1928 N.am      1 UNK        -0.4884 
      5 CA         16.3132  -25.6888  -47.5950 C.3       1 UNK         0.0853 
      6 C6         16.3566  -27.1683  -47.1140 C.3       10 UNK        -0.0849 
      7 S7         15.0730  -27.6037  -45.8856 S.3       10 UNK        -0.2776 
      8 C8         15.5171  -29.3247  -45.4922 C.3       10 UNK         0.0316 
      9 C9         16.6938  -29.4098  -44.5289 C.ar      10 UNK        -0.0863 
     10 C10        17.9834  -29.6647  -45.0059 C.ar      10 UNK        -0.1009 
     11 C11        19.0591  -29.7769  -44.1196 C.ar      10 UNK        -0.0712 
     12 C12        18.8318  -29.6452  -42.7483 C.ar      10 UNK        -0.0894 
     13 C13        17.5502  -29.3821  -42.2541 C.ar      10 UNK        -0.0745 
     14 C14        16.4854  -29.2646  -43.1532 C.ar      10 UNK        -0.0972 
     15 C15        17.2994  -29.2633  -40.7526 C.3       10 UNK         0.0209 
     16 S16        18.4927  -28.1865  -39.8858 S.3       10 UNK        -0.2568 
     17 C17        18.1680  -26.5613  -40.6480 C.3       10 UNK        -0.0983 
     18 CA         19.1971  -26.2154  -41.7531 C.3       3 UNK         0.0876 
     19 N          18.6599  -25.2273  -42.6874 N.am      3 UNK        -0.4424 
     20 C          19.0647  -25.1052  -43.9551 C.2       2 UNK         0.4918 
     21 O          19.9330  -25.8091  -44.4775 O.2       2 UNK        -0.4875 
     22 CA         18.3599  -24.0420  -44.8013 C.3       2 UNK         0.0481 
     23 CB         19.3204  -22.9023  -45.1788 C.3       2 UNK        -0.1831 
     24 N          17.8909  -24.7166  -46.0061 N.am      2 UNK        -0.4498 
     25 C          16.6365  -24.6931  -46.4667 C.2       1 UNK         0.5027 
     26 O          15.7520  -23.9504  -46.0276 O.2       1 UNK        -0.4969 
     27 C          20.5501  -25.7497  -41.1806 C.2       3 UNK         0.5005 
     28 O          20.7565  -24.5477  -40.9884 O.2       3 UNK        -0.5279 
     29 N          21.4373  -26.7114  -40.9068 N.am      4 UNK        -0.4463 
     30 CA         22.7683  -26.5141  -40.3469 C.3       4 UNK         0.0283 
     31 CB         23.7438  -26.0587  -41.4494 C.3       4 UNK        -0.1875 
     32 C          23.2340  -27.8336  -39.7238 C.2       4 UNK         0.4949 
     33 O          22.7527  -28.9017  -40.1110 O.2       4 UNK        -0.5039 
     34 N          24.1941  -27.7378  -38.7965 N.am      5 UNK        -0.4663 
     35 CA         24.8387  -28.8860  -38.1479 C.3       5 UNK         0.0242 
     36 CB         25.5044  -28.4152  -36.8443 C.3       5 UNK        -0.1982 
     37 C          25.8636  -29.6029  -39.0476 C.2       5 UNK         0.5017 
     38 O          26.2816  -30.7123  -38.7116 O.2       5 UNK        -0.5012 
     39 N          26.2539  -28.9650  -40.1620 N.am      6 UNK        -0.4439 
     40 CA         27.1586  -29.4901  -41.1866 C.3       6 UNK         0.0297 
     41 CB         27.3166  -28.4489  -42.3063 C.3       6 UNK        -0.2006 
     42 C          26.6524  -30.8249  -41.7552 C.2       6 UNK         0.4892 
     43 O          25.4956  -30.9046  -42.1735 O.2       6 UNK        -0.5089 
     44 N          27.5133  -31.8514  -41.6997 N.am      7 UNK        -0.4243 
     45 CA         27.2490  -33.2509  -42.0682 C.3       7 UNK         0.0196 
     46 CB         27.0311  -33.3756  -43.5917 C.3       7 UNK        -0.2007 
     47 C          26.1103  -33.9160  -41.2612 C.2       7 UNK         0.5020 
     48 O          25.5766  -34.9341  -41.7033 O.2       7 UNK        -0.5147 
     49 N          25.7529  -33.3320  -40.1048 N.am      8 UNK        -0.4734 
     50 CA         24.6278  -33.6912  -39.2328 C.3       8 UNK         0.0238 
     51 CB         24.8732  -35.0577  -38.5568 C.3       8 UNK        -0.1912 
     52 C          23.2574  -33.6030  -39.9381 C.2       8 UNK         0.5038 
     53 O          22.3687  -34.4009  -39.6328 O.2       8 UNK        -0.5046 
     54 N          23.1147  -32.6515  -40.8746 N.am      9 UNK        -0.4200 
     55 CA         21.8888  -32.4206  -41.6542 C.3       9 UNK         0.0839 
     56 C          20.6717  -32.0214  -40.7755 C.2       9 UNK         0.5513 
     57 N          20.8082  -31.0192  -39.9160 N.am      9 UNK        -0.7519 
     58 O          19.6087  -32.6297  -40.8630 O.2       9 UNK        -0.4960 
     59 C59        22.1389  -31.4153  -42.8107 C.3       10 UNK        -0.0876 
     60 S60        21.0605  -31.7013  -44.2577 S.3       10 UNK        -0.2414 
     61 C61        20.4666  -30.0223  -44.6444 C.3       10 UNK         0.0169 
     62 H62        12.6059  -26.0025  -50.1006 H         1 UNK         0.0903 
     63 H63        12.7596  -24.5752  -49.0747 H         1 UNK         0.0903 
     64 H64        13.3415  -24.5301  -50.7404 H         1 UNK         0.0903 
     65 H65        14.4668  -24.7270  -47.5941 H         1 UNK         0.3096 
     66 H66        17.0847  -25.5515  -48.3565 H         1 UNK         0.1121 
     67 H67        17.3369  -27.4009  -46.6955 H         1 UNK         0.0849 
     68 H68        16.2420  -27.8323  -47.9721 H         1 UNK         0.0849 
     69 H69        14.6506  -29.8156  -45.0466 H         1 UNK         0.0865 
     70 H70        15.7290  -29.8707  -46.4130 H         1 UNK         0.0865 
     71 H71        18.1494  -29.7769  -46.0687 H         1 UNK         0.1346 
     72 H72        19.6599  -29.7344  -42.0624 H         1 UNK         0.1412 
     73 H73        15.4871  -29.0716  -42.7840 H         1 UNK         0.1426 
     74 H74        17.3544  -30.2616  -40.3164 H         1 UNK         0.0716 
     75 H75        16.2910  -28.8964  -40.5550 H         1 UNK         0.0716 
     76 H76        17.1593  -26.5815  -41.0644 H         1 UNK         0.0695 
     77 H77        18.1518  -25.7972  -39.8685 H         1 UNK         0.0695 
     78 H78        19.3884  -27.1161  -42.3355 H         1 UNK         0.0983 
     79 H79        17.9733  -24.5852  -42.3200 H         1 UNK         0.3095 
     80 H80        17.5233  -23.6278  -44.2342 H         1 UNK         0.0454 
     81 H81        20.1845  -23.2672  -45.7356 H         1 UNK         0.0851 
     82 H82        19.6953  -22.3982  -44.2872 H         1 UNK         0.0851 
     83 H83        18.8207  -22.1517  -45.7911 H         1 UNK         0.0851 
     84 H84        18.5470  -25.3834  -46.3920 H         1 UNK         0.2976 
     85 H85        21.1808  -27.6859  -41.0129 H         1 UNK         0.3116 
     86 H86        22.7162  -25.7570  -39.5614 H         1 UNK         0.0646 
     87 H87        23.8271  -26.8019  -42.2438 H         1 UNK         0.0847 
     88 H88        24.7443  -25.8923  -41.0491 H         1 UNK         0.0847 
     89 H89        23.4229  -25.1212  -41.9037 H         1 UNK         0.0847 
     90 H90        24.5275  -26.8216  -38.5298 H         1 UNK         0.3040 
     91 H91        24.0690  -29.6188  -37.8942 H         1 UNK         0.1015 
     92 H92        26.2870  -27.6790  -37.0322 H         1 UNK         0.0786 
     93 H93        25.9645  -29.2517  -36.3160 H         1 UNK         0.0786 
     94 H94        24.7771  -27.9685  -36.1660 H         1 UNK         0.0786 
     95 H95        25.8313  -28.0697  -40.3510 H         1 UNK         0.3172 
     96 H96        28.1325  -29.6442  -40.7175 H         1 UNK         0.0595 
     97 H97        28.0002  -28.8068  -43.0775 H         1 UNK         0.0839 
     98 H98        27.7222  -27.5112  -41.9259 H         1 UNK         0.0839 
     99 H99        26.3642  -28.2317  -42.7924 H         1 UNK         0.0839 
    100 H100       28.4303  -31.6760  -41.3110 H         1 UNK         0.2998 
    101 H101       28.1538  -33.8067  -41.8176 H         1 UNK         0.0822 
    102 H102       26.9870  -34.4214  -43.8985 H         1 UNK         0.0787 
    103 H103       26.0984  -32.9062  -43.9065 H         1 UNK         0.0787 
    104 H104       27.8450  -32.9118  -44.1488 H         1 UNK         0.0787 
    105 H105       26.2426  -32.4863  -39.8293 H         1 UNK         0.3055 
    106 H106       24.6014  -32.9371  -38.4444 H         1 UNK         0.1106 
    107 H107       24.1132  -35.2633  -37.8020 H         1 UNK         0.0828 
    108 H108       24.8453  -35.8769  -39.2759 H         1 UNK         0.0828 
    109 H109       25.8401  -35.0841  -38.0547 H         1 UNK         0.0828 
    110 H110       23.8997  -32.0461  -41.0818 H         1 UNK         0.2931 
    111 H111       21.6516  -33.3862  -42.1059 H         1 UNK         0.0412 
    112 H112       21.6555  -30.4596  -39.8953 H         1 UNK         0.3472 
    113 H113       20.0258  -30.7579  -39.3385 H         1 UNK         0.3472 
    114 H114       23.1587  -31.5236  -43.1819 H         1 UNK         0.0970 
    115 H115       22.0695  -30.3848  -42.4583 H         1 UNK         0.0970 
    116 H116       21.1468  -29.2684  -44.2459 H         1 UNK         0.0612 
    117 H117       20.4893  -29.8979  -45.7281 H         1 UNK         0.0612 
@<TRIPOS>BOND
     1    1    2 1    
     2    1   62 1    
     3    1   63 1    
     4    1   64 1    
     5    2    3 2    
     6    2    4 am   BACKBONE|DICT|INTERRES
     7    4    5 1    
     8    4   65 1    
     9    5    6 1    
    10    5   25 1    
    11    5   66 1    
    12    6    7 1    
    13    6   67 1    
    14    6   68 1    
    15    7    8 1    
    16    8    9 1    
    17    8   69 1    
    18    8   70 1    
    19    9   10 ar   
    20    9   14 ar   
    21   10   11 ar   
    22   10   71 1    
    23   11   12 ar   
    24   11   61 1    
    25   12   13 ar   
    26   12   72 1    
    27   13   14 ar   
    28   13   15 1    
    29   14   73 1    
    30   15   16 1    
    31   15   74 1    
    32   15   75 1    
    33   16   17 1    
    34   17   18 1    
    35   17   76 1    
    36   17   77 1    
    37   18   19 1    
    38   18   27 1    
    39   18   78 1    
    40   19   20 am   BACKBONE|DICT|INTERRES
    41   19   79 1    
    42   20   21 2    
    43   20   22 1    
    44   22   23 1    
    45   22   24 1    
    46   22   80 1    
    47   23   81 1    
    48   23   82 1    
    49   23   83 1    
    50   24   25 am   BACKBONE|DICT|INTERRES
    51   24   84 1    
    52   25   26 2    
    53   27   28 2    
    54   27   29 am   BACKBONE|DICT|INTERRES
    55   29   30 1    
    56   29   85 1    
    57   30   31 1    
    58   30   32 1    
    59   30   86 1    
    60   31   87 1    
    61   31   88 1    
    62   31   89 1    
    63   32   33 2    
    64   32   34 am   BACKBONE|DICT|INTERRES
    65   34   35 1    
    66   34   90 1    
    67   35   36 1    
    68   35   37 1    
    69   35   91 1    
    70   36   92 1    
    71   36   93 1    
    72   36   94 1    
    73   37   38 2    
    74   37   39 am   BACKBONE|DICT|INTERRES
    75   39   40 1    
    76   39   95 1    
    77   40   41 1    
    78   40   42 1    
    79   40   96 1    
    80   41   97 1    
    81   41   98 1    
    82   41   99 1    
    83   42   43 2    
    84   42   44 am   BACKBONE|DICT|INTERRES
    85   44   45 1    
    86   44  100 1    
    87   45   46 1    
    88   45   47 1    
    89   45  101 1    
    90   46  102 1    
    91   46  103 1    
    92   46  104 1    
    93   47   48 2    
    94   47   49 am   BACKBONE|DICT|INTERRES
    95   49   50 1    
    96   49  105 1    
    97   50   51 1    
    98   50   52 1    
    99   50  106 1    
   100   51  107 1    
   101   51  108 1    
   102   51  109 1    
   103   52   53 2    
   104   52   54 am   BACKBONE|DICT|INTERRES
   105   54   55 1    
   106   54  110 1    
   107   55   56 1    
   108   55   59 1    
   109   55  111 1    
   110   56   57 am   BACKBONE|DICT|INTERRES
   111   56   58 2    
   112   57  112 1    
   113   57  113 1    
   114   59   60 1    
   115   59  114 1    
   116   59  115 1    
   117   60   61 1    
   118   61  116 1    
   119   61  117 1    
@<TRIPOS>SUBSTRUCTURE
     1 UNK         1 GROUP             0       ****    0 ROOT    
