@<TRIPOS>MOLECULE
3R8
117   119    1
SMALL
USER_CHARGES


@<TRIPOS>ATOM
      1 CA         15.0200  -21.8478  -45.7006 C.3       0 UNK        -0.2013 
      2 C          15.6519  -23.0483  -45.0119 C.2       0 UNK         0.4866 
      3 O          15.7419  -23.0676  -43.7845 O.2       0 UNK        -0.5176 
      4 N          16.0872  -24.0456  -45.7963 N.am      1 UNK        -0.4884 
      5 CA         16.7384  -25.2854  -45.3465 C.3       1 UNK         0.0853 
      6 C6         15.7905  -26.1915  -44.5075 C.3       10 UNK        -0.0849 
      7 S7         16.0987  -27.9704  -44.7891 S.3       10 UNK        -0.2776 
      8 C8         16.7618  -28.5043  -43.1705 C.3       10 UNK         0.0316 
      9 C9         17.9139  -29.5120  -43.2272 C.ar      10 UNK        -0.0863 
     10 C10        18.2512  -30.2085  -42.0613 C.ar      10 UNK        -0.1009 
     11 C11        19.3226  -31.1066  -42.0450 C.ar      10 UNK        -0.0712 
     12 C12        20.0818  -31.2912  -43.2046 C.ar      10 UNK        -0.0894 
     13 C13        19.7458  -30.6253  -44.3851 C.ar      10 UNK        -0.0745 
     14 C14        18.6628  -29.7411  -44.3894 C.ar      10 UNK        -0.0972 
     15 C15        20.5271  -30.8939  -45.6654 C.3       10 UNK         0.0209 
     16 S16        22.0475  -29.8977  -45.7912 S.3       10 UNK        -0.2568 
     17 C17        21.3788  -28.2137  -46.0374 C.3       10 UNK        -0.0983 
     18 CA         21.8531  -27.1192  -45.0423 C.3       3 UNK         0.0876 
     19 N          21.0817  -25.8891  -45.2522 N.am      3 UNK        -0.4424 
     20 C          21.2807  -24.7080  -44.6515 C.2       2 UNK         0.4918 
     21 O          22.2333  -24.4732  -43.9081 O.2       2 UNK        -0.4875 
     22 CA         20.2064  -23.6237  -44.8663 C.3       2 UNK         0.0481 
     23 CB         20.7141  -22.5595  -45.8516 C.3       2 UNK        -0.1831 
     24 N          18.8956  -24.1154  -45.3200 N.am      2 UNK        -0.4498 
     25 C          18.1126  -25.0072  -44.6878 C.2       1 UNK         0.5027 
     26 O          18.4485  -25.5880  -43.6539 O.2       1 UNK        -0.4969 
     27 C          21.8905  -27.5602  -43.5550 C.2       3 UNK         0.5005 
     28 O          22.8781  -28.1690  -43.1410 O.2       3 UNK        -0.5279 
     29 N          20.8988  -27.1550  -42.7421 N.am      4 UNK        -0.4463 
     30 CA         20.8834  -27.3126  -41.2808 C.3       4 UNK         0.0283 
     31 CB         19.5676  -26.7541  -40.7187 C.3       4 UNK        -0.1875 
     32 C          22.0812  -26.6821  -40.5370 C.2       4 UNK         0.4949 
     33 O          22.3281  -27.0587  -39.3922 O.2       4 UNK        -0.5039 
     34 N          22.8181  -25.7620  -41.1799 N.am      5 UNK        -0.4663 
     35 CA         24.0937  -25.2378  -40.6810 C.3       5 UNK         0.0242 
     36 CB         24.4978  -24.0058  -41.5057 C.3       5 UNK        -0.1982 
     37 C          25.2226  -26.2882  -40.6922 C.2       5 UNK         0.5017 
     38 O          26.1023  -26.2278  -39.8326 O.2       5 UNK        -0.5012 
     39 N          25.1748  -27.2280  -41.6476 N.am      6 UNK        -0.4439 
     40 CA         26.0576  -28.3957  -41.7193 C.3       6 UNK         0.0297 
     41 CB         26.3516  -28.7288  -43.1914 C.3       6 UNK        -0.2006 
     42 C          25.4214  -29.6011  -41.0077 C.2       6 UNK         0.4892 
     43 O          26.1287  -30.3412  -40.3232 O.2       6 UNK        -0.5089 
     44 N          24.0978  -29.7451  -41.1635 N.am      7 UNK        -0.4243 
     45 CA         23.2223  -30.7524  -40.5681 C.3       7 UNK         0.0196 
     46 CB         23.1517  -30.5902  -39.0315 C.3       7 UNK        -0.2007 
     47 C          23.5544  -32.1792  -41.0492 C.2       7 UNK         0.5020 
     48 O          23.6674  -32.3922  -42.2566 O.2       7 UNK        -0.5147 
     49 N          23.6518  -33.1298  -40.1068 N.am      8 UNK        -0.4734 
     50 CA         23.9185  -34.5638  -40.2998 C.3       8 UNK         0.0238 
     51 CB         25.3069  -34.7897  -40.9383 C.3       8 UNK        -0.1912 
     52 C          22.7912  -35.3244  -41.0317 C.2       8 UNK         0.5038 
     53 O          23.0648  -36.3327  -41.6855 O.2       8 UNK        -0.5046 
     54 N          21.5451  -34.8511  -40.8890 N.am      9 UNK        -0.4200 
     55 CA         20.3316  -35.4999  -41.4169 C.3       9 UNK         0.0839 
     56 C          19.7476  -36.6211  -40.5075 C.2       9 UNK         0.5513 
     57 N          20.2751  -36.8540  -39.3111 N.am      9 UNK        -0.7519 
     58 O          18.8089  -37.3069  -40.9044 O.2       9 UNK        -0.4960 
     59 C59        19.2587  -34.4671  -41.8582 C.3       10 UNK        -0.0876 
     60 S60        18.6545  -33.3581  -40.5331 S.3       10 UNK        -0.2414 
     61 C61        19.6670  -31.8633  -40.7694 C.3       10 UNK         0.0169 
     62 H62        15.5825  -20.9437  -45.4687 H         1 UNK         0.0903 
     63 H63        14.9954  -21.9631  -46.7841 H         1 UNK         0.0903 
     64 H64        13.9968  -21.7112  -45.3516 H         1 UNK         0.0903 
     65 H65        15.9713  -23.9610  -46.7977 H         1 UNK         0.3096 
     66 H66        16.9706  -25.8209  -46.2689 H         1 UNK         0.1121 
     67 H67        15.8231  -25.9386  -43.4462 H         1 UNK         0.0849 
     68 H68        14.7559  -26.0172  -44.8071 H         1 UNK         0.0849 
     69 H69        17.1094  -27.6332  -42.6189 H         1 UNK         0.0865 
     70 H70        15.9382  -28.9231  -42.5903 H         1 UNK         0.0865 
     71 H71        17.6784  -30.0506  -41.1574 H         1 UNK         0.1346 
     72 H72        20.9258  -31.9681  -43.1978 H         1 UNK         0.1412 
     73 H73        18.4109  -29.2318  -45.3071 H         1 UNK         0.1426 
     74 H74        19.9020  -30.7121  -46.5411 H         1 UNK         0.0716 
     75 H75        20.8005  -31.9493  -45.7070 H         1 UNK         0.0716 
     76 H76        21.6460  -27.9101  -47.0507 H         1 UNK         0.0695 
     77 H77        20.2916  -28.2611  -46.0378 H         1 UNK         0.0695 
     78 H78        22.8882  -26.8814  -45.2970 H         1 UNK         0.0983 
     79 H79        20.2723  -25.9716  -45.8480 H         1 UNK         0.3095 
     80 H80        20.0482  -23.1418  -43.8995 H         1 UNK         0.0454 
     81 H81        20.8582  -22.9704  -46.8516 H         1 UNK         0.0851 
     82 H82        20.0193  -21.7229  -45.9275 H         1 UNK         0.0851 
     83 H83        21.6722  -22.1509  -45.5268 H         1 UNK         0.0851 
     84 H84        18.5277  -23.6859  -46.1569 H         1 UNK         0.2976 
     85 H85        20.1173  -26.6459  -43.1446 H         1 UNK         0.3116 
     86 H86        20.9112  -28.3841  -41.0741 H         1 UNK         0.0646 
     87 H87        19.5427  -26.8209  -39.6301 H         1 UNK         0.0847 
     88 H88        18.7129  -27.3157  -41.0877 H         1 UNK         0.0847 
     89 H89        19.4262  -25.7062  -40.9859 H         1 UNK         0.0847 
     90 H90        22.5365  -25.4655  -42.1087 H         1 UNK         0.3040 
     91 H91        23.9489  -24.9232  -39.6450 H         1 UNK         0.1015 
     92 H92        23.7297  -23.2330  -41.4680 H         1 UNK         0.0786 
     93 H93        24.6662  -24.2589  -42.5533 H         1 UNK         0.0786 
     94 H94        25.4201  -23.5659  -41.1238 H         1 UNK         0.0786 
     95 H95        24.3759  -27.2361  -42.2742 H         1 UNK         0.3172 
     96 H96        27.0072  -28.1732  -41.2281 H         1 UNK         0.0595 
     97 H97        27.0218  -29.5860  -43.2689 H         1 UNK         0.0839 
     98 H98        26.8344  -27.8929  -43.6977 H         1 UNK         0.0839 
     99 H99        25.4436  -28.9757  -43.7435 H         1 UNK         0.0839 
    100 H100       23.6413  -29.1337  -41.8392 H         1 UNK         0.2998 
    101 H101       22.2361  -30.5190  -40.9672 H         1 UNK         0.0822 
    102 H102       22.8993  -29.5662  -38.7587 H         1 UNK         0.0787 
    103 H103       22.3800  -31.2271  -38.5974 H         1 UNK         0.0787 
    104 H104       24.0994  -30.8301  -38.5479 H         1 UNK         0.0787 
    105 H105       23.5453  -32.8358  -39.1450 H         1 UNK         0.3055 
    106 H106       23.9545  -34.9981  -39.2994 H         1 UNK         0.1106 
    107 H107       25.3335  -34.4640  -41.9785 H         1 UNK         0.0828 
    108 H108       26.0850  -34.2504  -40.3982 H         1 UNK         0.0828 
    109 H109       25.5783  -35.8460  -40.9239 H         1 UNK         0.0828 
    110 H110       21.3973  -34.0388  -40.3110 H         1 UNK         0.2931 
    111 H111       20.6209  -36.0213  -42.3315 H         1 UNK         0.0412 
    112 H112       21.0459  -36.3021  -38.9723 H         1 UNK         0.3472 
    113 H113       19.8901  -37.5883  -38.7375 H         1 UNK         0.3472 
    114 H114       19.6496  -33.8781  -42.6850 H         1 UNK         0.0970 
    115 H115       18.3930  -34.9831  -42.2776 H         1 UNK         0.0970 
    116 H116       19.5363  -31.2068  -39.9078 H         1 UNK         0.0612 
    117 H117       20.7117  -32.1604  -40.7712 H         1 UNK         0.0612 
@<TRIPOS>BOND
     1    1    2 1    
     2    1   62 1    
     3    1   63 1    
     4    1   64 1    
     5    2    3 2    
     6    2    4 am   BACKBONE|DICT|INTERRES
     7    4    5 1    
     8    4   65 1    
     9    5    6 1    
    10    5   25 1    
    11    5   66 1    
    12    6    7 1    
    13    6   67 1    
    14    6   68 1    
    15    7    8 1    
    16    8    9 1    
    17    8   69 1    
    18    8   70 1    
    19    9   10 ar   
    20    9   14 ar   
    21   10   11 ar   
    22   10   71 1    
    23   11   12 ar   
    24   11   61 1    
    25   12   13 ar   
    26   12   72 1    
    27   13   14 ar   
    28   13   15 1    
    29   14   73 1    
    30   15   16 1    
    31   15   74 1    
    32   15   75 1    
    33   16   17 1    
    34   17   18 1    
    35   17   76 1    
    36   17   77 1    
    37   18   19 1    
    38   18   27 1    
    39   18   78 1    
    40   19   20 am   BACKBONE|DICT|INTERRES
    41   19   79 1    
    42   20   21 2    
    43   20   22 1    
    44   22   23 1    
    45   22   24 1    
    46   22   80 1    
    47   23   81 1    
    48   23   82 1    
    49   23   83 1    
    50   24   25 am   BACKBONE|DICT|INTERRES
    51   24   84 1    
    52   25   26 2    
    53   27   28 2    
    54   27   29 am   BACKBONE|DICT|INTERRES
    55   29   30 1    
    56   29   85 1    
    57   30   31 1    
    58   30   32 1    
    59   30   86 1    
    60   31   87 1    
    61   31   88 1    
    62   31   89 1    
    63   32   33 2    
    64   32   34 am   BACKBONE|DICT|INTERRES
    65   34   35 1    
    66   34   90 1    
    67   35   36 1    
    68   35   37 1    
    69   35   91 1    
    70   36   92 1    
    71   36   93 1    
    72   36   94 1    
    73   37   38 2    
    74   37   39 am   BACKBONE|DICT|INTERRES
    75   39   40 1    
    76   39   95 1    
    77   40   41 1    
    78   40   42 1    
    79   40   96 1    
    80   41   97 1    
    81   41   98 1    
    82   41   99 1    
    83   42   43 2    
    84   42   44 am   BACKBONE|DICT|INTERRES
    85   44   45 1    
    86   44  100 1    
    87   45   46 1    
    88   45   47 1    
    89   45  101 1    
    90   46  102 1    
    91   46  103 1    
    92   46  104 1    
    93   47   48 2    
    94   47   49 am   BACKBONE|DICT|INTERRES
    95   49   50 1    
    96   49  105 1    
    97   50   51 1    
    98   50   52 1    
    99   50  106 1    
   100   51  107 1    
   101   51  108 1    
   102   51  109 1    
   103   52   53 2    
   104   52   54 am   BACKBONE|DICT|INTERRES
   105   54   55 1    
   106   54  110 1    
   107   55   56 1    
   108   55   59 1    
   109   55  111 1    
   110   56   57 am   BACKBONE|DICT|INTERRES
   111   56   58 2    
   112   57  112 1    
   113   57  113 1    
   114   59   60 1    
   115   59  114 1    
   116   59  115 1    
   117   60   61 1    
   118   61  116 1    
   119   61  117 1    
@<TRIPOS>SUBSTRUCTURE
     1 UNK         1 GROUP             0       ****    0 ROOT    
