@<TRIPOS>MOLECULE
3R8
117   119    1
SMALL
USER_CHARGES


@<TRIPOS>ATOM
      1 CA         12.4297  -24.4906  -45.6574 C.3       0 UNK        -0.2013 
      2 C          13.8911  -24.8958  -45.7806 C.2       0 UNK         0.4866 
      3 O          14.7724  -24.0393  -45.7022 O.2       0 UNK        -0.5176 
      4 N          14.1551  -26.1932  -45.9812 N.am      1 UNK        -0.4884 
      5 CA         15.5018  -26.7692  -46.0484 C.3       1 UNK         0.0853 
      6 C6         15.4712  -28.1710  -46.7057 C.3       10 UNK        -0.0849 
      7 S7         17.0683  -28.6316  -47.4591 S.3       10 UNK        -0.2776 
      8 C8         17.3619  -30.2837  -46.7503 C.3       10 UNK         0.0316 
      9 C9         18.0984  -30.2113  -45.4210 C.ar      10 UNK        -0.0863 
     10 C10        17.3931  -30.1276  -44.2177 C.ar      10 UNK        -0.1009 
     11 C11        18.0732  -30.0826  -42.9968 C.ar      10 UNK        -0.0712 
     12 C12        19.4714  -30.1261  -42.9827 C.ar      10 UNK        -0.0894 
     13 C13        20.1856  -30.2325  -44.1797 C.ar      10 UNK        -0.0745 
     14 C14        19.4945  -30.2635  -45.3941 C.ar      10 UNK        -0.0972 
     15 C15        21.6997  -30.3658  -44.1727 C.3       10 UNK         0.0209 
     16 S16        22.5312  -28.7903  -44.5457 S.3       10 UNK        -0.2568 
     17 C17        22.6954  -28.0408  -42.8942 C.3       10 UNK        -0.0983 
     18 CA         21.9920  -26.6645  -42.7876 C.3       3 UNK         0.0876 
     19 N          20.5376  -26.7806  -42.7412 N.am      3 UNK        -0.4424 
     20 C          19.6959  -26.3772  -43.6956 C.2       2 UNK         0.4918 
     21 O          20.0428  -25.9460  -44.7986 O.2       2 UNK        -0.4875 
     22 CA         18.2089  -26.4089  -43.3274 C.3       2 UNK         0.0481 
     23 CB         17.8301  -25.1791  -42.4794 C.3       2 UNK        -0.1831 
     24 N          17.4190  -26.4413  -44.5533 N.am      2 UNK        -0.4498 
     25 C          16.1363  -26.8052  -44.6428 C.2       1 UNK         0.5027 
     26 O          15.4547  -27.1672  -43.6793 O.2       1 UNK        -0.4969 
     27 C          22.4102  -25.9683  -41.4854 C.2       3 UNK         0.5005 
     28 O          21.8725  -26.2971  -40.4237 O.2       3 UNK        -0.5279 
     29 N          23.3983  -25.0674  -41.5628 N.am      4 UNK        -0.4463 
     30 CA         23.9915  -24.3705  -40.4147 C.3       4 UNK         0.0283 
     31 CB         24.5641  -23.0211  -40.8883 C.3       4 UNK        -0.1875 
     32 C          25.0473  -25.2514  -39.7171 C.2       4 UNK         0.4949 
     33 O          26.2107  -24.8610  -39.6182 O.2       4 UNK        -0.5039 
     34 N          24.6251  -26.4573  -39.3078 N.am      5 UNK        -0.4663 
     35 CA         25.4176  -27.5491  -38.7173 C.3       5 UNK         0.0242 
     36 CB         26.0185  -27.1234  -37.3608 C.3       5 UNK        -0.1982 
     37 C          26.4813  -28.1536  -39.6615 C.2       5 UNK         0.5017 
     38 O          27.3279  -28.9230  -39.2049 O.2       5 UNK        -0.5012 
     39 N          26.4150  -27.8168  -40.9577 N.am      6 UNK        -0.4439 
     40 CA         27.3278  -28.2795  -42.0076 C.3       6 UNK         0.0297 
     41 CB         27.1517  -27.3900  -43.2495 C.3       6 UNK        -0.2006 
     42 C          27.1401  -29.7611  -42.3814 C.2       6 UNK         0.4892 
     43 O          28.0837  -30.3826  -42.8713 O.2       6 UNK        -0.5089 
     44 N          25.9373  -30.2943  -42.1474 N.am      7 UNK        -0.4243 
     45 CA         25.5435  -31.6785  -42.3750 C.3       7 UNK         0.0196 
     46 CB         25.2349  -31.9045  -43.8671 C.3       7 UNK        -0.2007 
     47 C          24.3235  -31.9734  -41.4958 C.2       7 UNK         0.5020 
     48 O          23.6787  -31.0399  -41.0082 O.2       7 UNK        -0.5147 
     49 N          24.0286  -33.2636  -41.3057 N.am      8 UNK        -0.4734 
     50 CA         22.8665  -33.7355  -40.5514 C.3       8 UNK         0.0238 
     51 CB         23.0742  -35.2119  -40.1751 C.3       8 UNK        -0.1912 
     52 C          21.5668  -33.5656  -41.3552 C.2       8 UNK         0.5038 
     53 O          21.5695  -33.7730  -42.5711 O.2       8 UNK        -0.5046 
     54 N          20.4828  -33.2265  -40.6503 N.am      9 UNK        -0.4200 
     55 CA         19.1199  -33.1557  -41.1898 C.3       9 UNK         0.0839 
     56 C          18.5130  -34.5720  -41.3820 C.2       9 UNK         0.5513 
     57 N          17.7828  -34.7973  -42.4651 N.am      9 UNK        -0.7519 
     58 O          18.6765  -35.4555  -40.5424 O.2       9 UNK        -0.4960 
     59 C59        18.2389  -32.2515  -40.2882 C.3       10 UNK        -0.0876 
     60 S60        16.7416  -31.6228  -41.1217 S.3       10 UNK        -0.2414 
     61 C61        17.2859  -29.9839  -41.6993 C.3       10 UNK         0.0169 
     62 H62        12.1750  -23.7651  -46.4295 H         1 UNK         0.0903 
     63 H63        11.7592  -25.3437  -45.7596 H         1 UNK         0.0903 
     64 H64        12.2488  -24.0319  -44.6856 H         1 UNK         0.0903 
     65 H65        13.3926  -26.8558  -45.9999 H         1 UNK         0.3096 
     66 H66        16.0988  -26.1062  -46.6797 H         1 UNK         0.1121 
     67 H67        15.1338  -28.9322  -45.9999 H         1 UNK         0.0849 
     68 H68        14.7413  -28.1835  -47.5170 H         1 UNK         0.0849 
     69 H69        16.4201  -30.8236  -46.6397 H         1 UNK         0.0865 
     70 H70        17.9509  -30.8641  -47.4622 H         1 UNK         0.0865 
     71 H71        16.3124  -30.0971  -44.2264 H         1 UNK         0.1346 
     72 H72        20.0028  -30.1042  -42.0413 H         1 UNK         0.1412 
     73 H73        20.0474  -30.3417  -46.3206 H         1 UNK         0.1426 
     74 H74        21.9953  -31.0989  -44.9245 H         1 UNK         0.0716 
     75 H75        22.0487  -30.7655  -43.2200 H         1 UNK         0.0716 
     76 H76        23.7661  -27.9421  -42.7081 H         1 UNK         0.0695 
     77 H77        22.3212  -28.7249  -42.1300 H         1 UNK         0.0695 
     78 H78        22.2970  -26.0351  -43.6269 H         1 UNK         0.0983 
     79 H79        20.1737  -27.0495  -41.8371 H         1 UNK         0.3095 
     80 H80        18.0140  -27.3155  -42.7540 H         1 UNK         0.0454 
     81 H81        17.9873  -24.2500  -43.0286 H         1 UNK         0.0851 
     82 H82        18.4296  -25.1264  -41.5697 H         1 UNK         0.0851 
     83 H83        16.7851  -25.2114  -42.1713 H         1 UNK         0.0851 
     84 H84        17.9438  -26.2070  -45.3876 H         1 UNK         0.2976 
     85 H85        23.8074  -24.8666  -42.4650 H         1 UNK         0.3116 
     86 H86        23.2114  -24.1577  -39.6803 H         1 UNK         0.0646 
     87 H87        25.3598  -23.1524  -41.6227 H         1 UNK         0.0847 
     88 H88        24.9826  -22.4597  -40.0519 H         1 UNK         0.0847 
     89 H89        23.7912  -22.3977  -41.3381 H         1 UNK         0.0847 
     90 H90        23.6400  -26.6603  -39.4562 H         1 UNK         0.3040 
     91 H91        24.7111  -28.3576  -38.5217 H         1 UNK         0.1015 
     92 H92        25.2541  -26.7188  -36.6975 H         1 UNK         0.0786 
     93 H93        26.7951  -26.3672  -37.4794 H         1 UNK         0.0786 
     94 H94        26.4714  -27.9730  -36.8482 H         1 UNK         0.0786 
     95 H95        25.7050  -27.1537  -41.2273 H         1 UNK         0.3172 
     96 H96        28.3501  -28.1590  -41.6429 H         1 UNK         0.0595 
     97 H97        26.1459  -27.4663  -43.6649 H         1 UNK         0.0839 
     98 H98        27.8495  -27.6794  -44.0366 H         1 UNK         0.0839 
     99 H99        27.3441  -26.3418  -43.0194 H         1 UNK         0.0839 
    100 H100       25.2245  -29.7402  -41.6895 H         1 UNK         0.2998 
    101 H101       26.3569  -32.3369  -42.0621 H         1 UNK         0.0822 
    102 H102       26.1248  -31.7656  -44.4811 H         1 UNK         0.0787 
    103 H103       24.8722  -32.9166  -44.0500 H         1 UNK         0.0787 
    104 H104       24.4737  -31.2133  -44.2275 H         1 UNK         0.0787 
    105 H105       24.5803  -33.9677  -41.7749 H         1 UNK         0.3055 
    106 H106       22.7936  -33.1499  -39.6315 H         1 UNK         0.1106 
    107 H107       22.2334  -35.5883  -39.5905 H         1 UNK         0.0828 
    108 H108       23.1637  -35.8455  -41.0586 H         1 UNK         0.0828 
    109 H109       23.9722  -35.3466  -39.5719 H         1 UNK         0.0828 
    110 H110       20.5645  -33.1267  -39.6494 H         1 UNK         0.2931 
    111 H111       19.1911  -32.6911  -42.1740 H         1 UNK         0.0412 
    112 H112       17.6260  -34.0659  -43.1415 H         1 UNK         0.3472 
    113 H113       17.3702  -35.7068  -42.6022 H         1 UNK         0.3472 
    114 H114       17.9367  -32.7831  -39.3838 H         1 UNK         0.0970 
    115 H115       18.8151  -31.3933  -39.9391 H         1 UNK         0.0970 
    116 H116       16.4041  -29.3612  -41.8590 H         1 UNK         0.0612 
    117 H117       17.8703  -29.4829  -40.9263 H         1 UNK         0.0612 
@<TRIPOS>BOND
     1    1    2 1    
     2    1   62 1    
     3    1   63 1    
     4    1   64 1    
     5    2    3 2    
     6    2    4 am   BACKBONE|DICT|INTERRES
     7    4    5 1    
     8    4   65 1    
     9    5    6 1    
    10    5   25 1    
    11    5   66 1    
    12    6    7 1    
    13    6   67 1    
    14    6   68 1    
    15    7    8 1    
    16    8    9 1    
    17    8   69 1    
    18    8   70 1    
    19    9   10 ar   
    20    9   14 ar   
    21   10   11 ar   
    22   10   71 1    
    23   11   12 ar   
    24   11   61 1    
    25   12   13 ar   
    26   12   72 1    
    27   13   14 ar   
    28   13   15 1    
    29   14   73 1    
    30   15   16 1    
    31   15   74 1    
    32   15   75 1    
    33   16   17 1    
    34   17   18 1    
    35   17   76 1    
    36   17   77 1    
    37   18   19 1    
    38   18   27 1    
    39   18   78 1    
    40   19   20 am   BACKBONE|DICT|INTERRES
    41   19   79 1    
    42   20   21 2    
    43   20   22 1    
    44   22   23 1    
    45   22   24 1    
    46   22   80 1    
    47   23   81 1    
    48   23   82 1    
    49   23   83 1    
    50   24   25 am   BACKBONE|DICT|INTERRES
    51   24   84 1    
    52   25   26 2    
    53   27   28 2    
    54   27   29 am   BACKBONE|DICT|INTERRES
    55   29   30 1    
    56   29   85 1    
    57   30   31 1    
    58   30   32 1    
    59   30   86 1    
    60   31   87 1    
    61   31   88 1    
    62   31   89 1    
    63   32   33 2    
    64   32   34 am   BACKBONE|DICT|INTERRES
    65   34   35 1    
    66   34   90 1    
    67   35   36 1    
    68   35   37 1    
    69   35   91 1    
    70   36   92 1    
    71   36   93 1    
    72   36   94 1    
    73   37   38 2    
    74   37   39 am   BACKBONE|DICT|INTERRES
    75   39   40 1    
    76   39   95 1    
    77   40   41 1    
    78   40   42 1    
    79   40   96 1    
    80   41   97 1    
    81   41   98 1    
    82   41   99 1    
    83   42   43 2    
    84   42   44 am   BACKBONE|DICT|INTERRES
    85   44   45 1    
    86   44  100 1    
    87   45   46 1    
    88   45   47 1    
    89   45  101 1    
    90   46  102 1    
    91   46  103 1    
    92   46  104 1    
    93   47   48 2    
    94   47   49 am   BACKBONE|DICT|INTERRES
    95   49   50 1    
    96   49  105 1    
    97   50   51 1    
    98   50   52 1    
    99   50  106 1    
   100   51  107 1    
   101   51  108 1    
   102   51  109 1    
   103   52   53 2    
   104   52   54 am   BACKBONE|DICT|INTERRES
   105   54   55 1    
   106   54  110 1    
   107   55   56 1    
   108   55   59 1    
   109   55  111 1    
   110   56   57 am   BACKBONE|DICT|INTERRES
   111   56   58 2    
   112   57  112 1    
   113   57  113 1    
   114   59   60 1    
   115   59  114 1    
   116   59  115 1    
   117   60   61 1    
   118   61  116 1    
   119   61  117 1    
@<TRIPOS>SUBSTRUCTURE
     1 UNK         1 GROUP             0       ****    0 ROOT    
