@<TRIPOS>MOLECULE
3R8
117   119    1
SMALL
USER_CHARGES


@<TRIPOS>ATOM
      1 CA         15.9163  -23.7994  -40.2652 C.3       0 UNK        -0.2013 
      2 C          16.2658  -24.1019  -41.7146 C.2       0 UNK         0.4866 
      3 O          16.6229  -23.1898  -42.4600 O.2       0 UNK        -0.5176 
      4 N          16.1547  -25.3738  -42.1172 N.am      1 UNK        -0.4884 
      5 CA         16.5122  -25.8876  -43.4433 C.3       1 UNK         0.0853 
      6 C6         15.8748  -27.2792  -43.7108 C.3       10 UNK        -0.0849 
      7 S7         16.0959  -28.4969  -42.3555 S.3       10 UNK        -0.2776 
      8 C8         16.1987  -30.0756  -43.2564 C.3       10 UNK         0.0316 
      9 C9         17.5521  -30.2696  -43.9248 C.ar      10 UNK        -0.0863 
     10 C10        18.6281  -30.8001  -43.2043 C.ar      10 UNK        -0.1009 
     11 C11        19.8625  -31.0103  -43.8286 C.ar      10 UNK        -0.0712 
     12 C12        20.0208  -30.6690  -45.1741 C.ar      10 UNK        -0.0894 
     13 C13        18.9555  -30.1310  -45.9002 C.ar      10 UNK        -0.0745 
     14 C14        17.7214  -29.9453  -45.2737 C.ar      10 UNK        -0.0972 
     15 C15        19.1247  -29.7617  -47.3650 C.3       10 UNK         0.0209 
     16 S16        19.4261  -27.9799  -47.5765 S.3       10 UNK        -0.2568 
     17 C17        21.1963  -27.8566  -47.1533 C.3       10 UNK        -0.0983 
     18 CA         21.5267  -26.5771  -46.3399 C.3       3 UNK         0.0876 
     19 N          20.8026  -26.5016  -45.0588 N.am      3 UNK        -0.4424 
     20 C          21.0405  -27.1948  -43.9378 C.2       2 UNK         0.4918 
     21 O          21.9525  -28.0118  -43.8144 O.2       2 UNK        -0.4875 
     22 CA         20.1800  -26.8782  -42.7022 C.3       2 UNK         0.0481 
     23 CB         20.7471  -25.6636  -41.9445 C.3       2 UNK        -0.1831 
     24 N          18.7339  -26.7404  -42.9037 N.am      2 UNK        -0.4498 
     25 C          18.0421  -25.8636  -43.6425 C.2       1 UNK         0.5027 
     26 O          18.5528  -25.0410  -44.4048 O.2       1 UNK        -0.4969 
     27 C          23.0527  -26.3559  -46.1855 C.2       3 UNK         0.5005 
     28 O          23.8443  -26.9861  -46.8892 O.2       3 UNK        -0.5279 
     29 N          23.4353  -25.4828  -45.2385 N.am      4 UNK        -0.4463 
     30 CA         24.8052  -25.1719  -44.8019 C.3       4 UNK         0.0283 
     31 CB         25.6269  -24.5404  -45.9461 C.3       4 UNK        -0.1875 
     32 C          25.5498  -26.3472  -44.1278 C.2       4 UNK         0.4949 
     33 O          26.7592  -26.2475  -43.9193 O.2       4 UNK        -0.5039 
     34 N          24.8285  -27.4148  -43.7571 N.am      5 UNK        -0.4663 
     35 CA         25.3468  -28.6017  -43.0691 C.3       5 UNK         0.0242 
     36 CB         24.9308  -29.8543  -43.8615 C.3       5 UNK        -0.1982 
     37 C          24.8756  -28.6561  -41.6032 C.2       5 UNK         0.5017 
     38 O          24.8183  -29.7387  -41.0184 O.2       5 UNK        -0.5012 
     39 N          24.5279  -27.4887  -41.0365 N.am      6 UNK        -0.4439 
     40 CA         24.1567  -27.2394  -39.6339 C.3       6 UNK         0.0297 
     41 CB         25.3892  -27.4220  -38.7227 C.3       6 UNK        -0.2006 
     42 C          22.9412  -28.0437  -39.1240 C.2       6 UNK         0.4892 
     43 O          22.7950  -28.2138  -37.9128 O.2       6 UNK        -0.5089 
     44 N          22.1027  -28.5280  -40.0529 N.am      7 UNK        -0.4243 
     45 CA         20.9482  -29.4088  -39.8344 C.3       7 UNK         0.0196 
     46 CB         19.8488  -28.7035  -39.0123 C.3       7 UNK        -0.2007 
     47 C          21.3231  -30.7970  -39.2749 C.2       7 UNK         0.5020 
     48 O          20.4649  -31.4771  -38.7107 O.2       7 UNK        -0.5147 
     49 N          22.5731  -31.2364  -39.4850 N.am      8 UNK        -0.4734 
     50 CA         23.1060  -32.5287  -39.0382 C.3       8 UNK         0.0238 
     51 CB         24.6344  -32.4054  -38.8901 C.3       8 UNK        -0.1912 
     52 C          22.6909  -33.6985  -39.9573 C.2       8 UNK         0.5038 
     53 O          23.5414  -34.4971  -40.3556 O.2       8 UNK        -0.5046 
     54 N          21.3941  -33.7729  -40.2770 N.am      9 UNK        -0.4200 
     55 CA         20.7670  -34.7971  -41.1304 C.3       9 UNK         0.0839 
     56 C          19.7619  -35.6972  -40.3553 C.2       9 UNK         0.5513 
     57 N          19.5978  -35.5449  -39.0460 N.am      9 UNK        -0.7519 
     58 O          19.1288  -36.5665  -40.9488 O.2       9 UNK        -0.4960 
     59 C59        20.1154  -34.1716  -42.3953 C.3       10 UNK        -0.0876 
     60 S60        21.3320  -33.3370  -43.4713 S.3       10 UNK        -0.2414 
     61 C61        21.0384  -31.5909  -43.0598 C.3       10 UNK         0.0169 
     62 H62        16.7785  -23.3733  -39.7529 H         1 UNK         0.0903 
     63 H63        15.1010  -23.0779  -40.2183 H         1 UNK         0.0903 
     64 H64        15.6087  -24.6940  -39.7238 H         1 UNK         0.0903 
     65 H65        15.8564  -26.0798  -41.4578 H         1 UNK         0.3096 
     66 H66        16.0992  -25.1984  -44.1840 H         1 UNK         0.1121 
     67 H67        14.8005  -27.1543  -43.8552 H         1 UNK         0.0849 
     68 H68        16.2432  -27.6836  -44.6531 H         1 UNK         0.0849 
     69 H69        16.0217  -30.8913  -42.5537 H         1 UNK         0.0865 
     70 H70        15.3927  -30.1324  -43.9899 H         1 UNK         0.0865 
     71 H71        18.4998  -31.0553  -42.1613 H         1 UNK         0.1346 
     72 H72        20.9770  -30.8273  -45.6531 H         1 UNK         0.1412 
     73 H73        16.8932  -29.5466  -45.8431 H         1 UNK         0.1426 
     74 H74        18.2217  -30.0321  -47.9144 H         1 UNK         0.0716 
     75 H75        19.9374  -30.3307  -47.8196 H         1 UNK         0.0716 
     76 H76        21.7437  -27.8694  -48.0976 H         1 UNK         0.0695 
     77 H77        21.5187  -28.7410  -46.6039 H         1 UNK         0.0695 
     78 H78        21.1791  -25.7245  -46.9257 H         1 UNK         0.0983 
     79 H79        20.0198  -25.8503  -45.0284 H         1 UNK         0.3095 
     80 H80        20.2761  -27.7410  -42.0484 H         1 UNK         0.0454 
     81 H81        21.8109  -25.7876  -41.7384 H         1 UNK         0.0851 
     82 H82        20.2478  -25.5301  -40.9848 H         1 UNK         0.0851 
     83 H83        20.6305  -24.7397  -42.5117 H         1 UNK         0.0851 
     84 H84        18.1717  -27.3997  -42.3793 H         1 UNK         0.2976 
     85 H85        22.7016  -25.0162  -44.7230 H         1 UNK         0.3116 
     86 H86        24.6988  -24.4124  -44.0261 H         1 UNK         0.0646 
     87 H87        25.8536  -25.2624  -46.7310 H         1 UNK         0.0847 
     88 H88        25.0976  -23.7037  -46.4017 H         1 UNK         0.0847 
     89 H89        26.5791  -24.1559  -45.5788 H         1 UNK         0.0847 
     90 H90        23.8329  -27.4338  -43.9600 H         1 UNK         0.3040 
     91 H91        26.4380  -28.5768  -43.0368 H         1 UNK         0.1015 
     92 H92        25.3066  -30.7659  -43.3951 H         1 UNK         0.0786 
     93 H93        25.3269  -29.8252  -44.8767 H         1 UNK         0.0786 
     94 H94        23.8478  -29.9423  -43.9329 H         1 UNK         0.0786 
     95 H95        24.5956  -26.6682  -41.6221 H         1 UNK         0.3172 
     96 H96        23.8608  -26.1906  -39.5823 H         1 UNK         0.0595 
     97 H97        25.7046  -28.4651  -38.6770 H         1 UNK         0.0839 
     98 H98        25.1773  -27.1018  -37.7018 H         1 UNK         0.0839 
     99 H99        26.2350  -26.8310  -39.0739 H         1 UNK         0.0839 
    100 H100       22.3432  -28.3531  -41.0187 H         1 UNK         0.2998 
    101 H101       20.5272  -29.6016  -40.8196 H         1 UNK         0.0822 
    102 H102       18.9329  -29.2956  -38.9956 H         1 UNK         0.0787 
    103 H103       19.5956  -27.7324  -39.4375 H         1 UNK         0.0787 
    104 H104       20.1520  -28.5488  -37.9766 H         1 UNK         0.0787 
    105 H105       23.2222  -30.6410  -39.9905 H         1 UNK         0.3055 
    106 H106       22.6983  -32.7485  -38.0489 H         1 UNK         0.1106 
    107 H107       24.9043  -31.5873  -38.2220 H         1 UNK         0.0828 
    108 H108       25.0641  -33.3174  -38.4737 H         1 UNK         0.0828 
    109 H109       25.1179  -32.2250  -39.8510 H         1 UNK         0.0828 
    110 H110       20.7712  -33.0856  -39.8666 H         1 UNK         0.2931 
    111 H111       21.5359  -35.4892  -41.4780 H         1 UNK         0.0412 
    112 H112       18.9475  -36.1422  -38.5591 H         1 UNK         0.3472 
    113 H113       20.1220  -34.8517  -38.5366 H         1 UNK         0.3472 
    114 H114       19.6381  -34.9445  -43.0005 H         1 UNK         0.0970 
    115 H115       19.3198  -33.4790  -42.1176 H         1 UNK         0.0970 
    116 H116       20.8792  -31.5076  -41.9883 H         1 UNK         0.0612 
    117 H117       21.9362  -31.0155  -43.2821 H         1 UNK         0.0612 
@<TRIPOS>BOND
     1    1    2 1    
     2    1   62 1    
     3    1   63 1    
     4    1   64 1    
     5    2    3 2    
     6    2    4 am   BACKBONE|DICT|INTERRES
     7    4    5 1    
     8    4   65 1    
     9    5    6 1    
    10    5   25 1    
    11    5   66 1    
    12    6    7 1    
    13    6   67 1    
    14    6   68 1    
    15    7    8 1    
    16    8    9 1    
    17    8   69 1    
    18    8   70 1    
    19    9   10 ar   
    20    9   14 ar   
    21   10   11 ar   
    22   10   71 1    
    23   11   12 ar   
    24   11   61 1    
    25   12   13 ar   
    26   12   72 1    
    27   13   14 ar   
    28   13   15 1    
    29   14   73 1    
    30   15   16 1    
    31   15   74 1    
    32   15   75 1    
    33   16   17 1    
    34   17   18 1    
    35   17   76 1    
    36   17   77 1    
    37   18   19 1    
    38   18   27 1    
    39   18   78 1    
    40   19   20 am   BACKBONE|DICT|INTERRES
    41   19   79 1    
    42   20   21 2    
    43   20   22 1    
    44   22   23 1    
    45   22   24 1    
    46   22   80 1    
    47   23   81 1    
    48   23   82 1    
    49   23   83 1    
    50   24   25 am   BACKBONE|DICT|INTERRES
    51   24   84 1    
    52   25   26 2    
    53   27   28 2    
    54   27   29 am   BACKBONE|DICT|INTERRES
    55   29   30 1    
    56   29   85 1    
    57   30   31 1    
    58   30   32 1    
    59   30   86 1    
    60   31   87 1    
    61   31   88 1    
    62   31   89 1    
    63   32   33 2    
    64   32   34 am   BACKBONE|DICT|INTERRES
    65   34   35 1    
    66   34   90 1    
    67   35   36 1    
    68   35   37 1    
    69   35   91 1    
    70   36   92 1    
    71   36   93 1    
    72   36   94 1    
    73   37   38 2    
    74   37   39 am   BACKBONE|DICT|INTERRES
    75   39   40 1    
    76   39   95 1    
    77   40   41 1    
    78   40   42 1    
    79   40   96 1    
    80   41   97 1    
    81   41   98 1    
    82   41   99 1    
    83   42   43 2    
    84   42   44 am   BACKBONE|DICT|INTERRES
    85   44   45 1    
    86   44  100 1    
    87   45   46 1    
    88   45   47 1    
    89   45  101 1    
    90   46  102 1    
    91   46  103 1    
    92   46  104 1    
    93   47   48 2    
    94   47   49 am   BACKBONE|DICT|INTERRES
    95   49   50 1    
    96   49  105 1    
    97   50   51 1    
    98   50   52 1    
    99   50  106 1    
   100   51  107 1    
   101   51  108 1    
   102   51  109 1    
   103   52   53 2    
   104   52   54 am   BACKBONE|DICT|INTERRES
   105   54   55 1    
   106   54  110 1    
   107   55   56 1    
   108   55   59 1    
   109   55  111 1    
   110   56   57 am   BACKBONE|DICT|INTERRES
   111   56   58 2    
   112   57  112 1    
   113   57  113 1    
   114   59   60 1    
   115   59  114 1    
   116   59  115 1    
   117   60   61 1    
   118   61  116 1    
   119   61  117 1    
@<TRIPOS>SUBSTRUCTURE
     1 UNK         1 GROUP             0       ****    0 ROOT    
