@<TRIPOS>MOLECULE
3R8
117   119    1
SMALL
USER_CHARGES


@<TRIPOS>ATOM
      1 CA         17.9372  -21.9708  -43.6025 C.3       0 UNK        -0.2013 
      2 C          18.1535  -23.1748  -44.5074 C.2       0 UNK         0.4866 
      3 O          18.8594  -23.0664  -45.5109 O.2       0 UNK        -0.5176 
      4 N          17.5474  -24.3182  -44.1616 N.am      1 UNK        -0.4884 
      5 CA         17.7247  -25.6023  -44.8507 C.3       1 UNK         0.0853 
      6 C6         16.4711  -26.5007  -44.6865 C.3       10 UNK        -0.0849 
      7 S7         16.2175  -27.5868  -46.1299 S.3       10 UNK        -0.2776 
      8 C8         15.1662  -28.8885  -45.4192 C.3       10 UNK         0.0316 
      9 C9         15.9741  -29.9106  -44.6327 C.ar      10 UNK        -0.0863 
     10 C10        16.6852  -30.9058  -45.3104 C.ar      10 UNK        -0.1009 
     11 C11        17.3805  -31.8978  -44.6118 C.ar      10 UNK        -0.0712 
     12 C12        17.3458  -31.8818  -43.2112 C.ar      10 UNK        -0.0894 
     13 C13        16.6588  -30.8802  -42.5190 C.ar      10 UNK        -0.0745 
     14 C14        15.9750  -29.8942  -43.2349 C.ar      10 UNK        -0.0972 
     15 C15        16.6095  -30.9095  -40.9980 C.3       10 UNK         0.0209 
     16 S16        18.2685  -30.8664  -40.2472 S.3       10 UNK        -0.2568 
     17 C17        18.6264  -29.0823  -40.1675 C.3       10 UNK        -0.0983 
     18 CA         19.9614  -28.7359  -40.8723 C.3       3 UNK         0.0876 
     19 N          19.8069  -28.6349  -42.3267 N.am      3 UNK        -0.4424 
     20 C          20.8236  -28.6002  -43.1977 C.2       2 UNK         0.4918 
     21 O          22.0023  -28.7451  -42.8701 O.2       2 UNK        -0.4875 
     22 CA         20.4846  -28.3173  -44.6752 C.3       2 UNK         0.0481 
     23 CB         20.3712  -29.6299  -45.4613 C.3       2 UNK        -0.1831 
     24 N          19.2723  -27.5182  -44.9026 N.am      2 UNK        -0.4498 
     25 C          19.0247  -26.3037  -44.3924 C.2       1 UNK         0.5027 
     26 O          19.7676  -25.7588  -43.5744 O.2       1 UNK        -0.4969 
     27 C          20.6052  -27.4841  -40.2344 C.2       3 UNK         0.5005 
     28 O          21.2285  -27.6210  -39.1812 O.2       3 UNK        -0.5279 
     29 N          20.4878  -26.2997  -40.8592 N.am      4 UNK        -0.4463 
     30 CA         21.0268  -25.0346  -40.3364 C.3       4 UNK         0.0283 
     31 CB         20.4626  -23.8497  -41.1378 C.3       4 UNK        -0.1875 
     32 C          22.5651  -24.9820  -40.3090 C.2       4 UNK         0.4949 
     33 O          23.1279  -24.2140  -39.5290 O.2       4 UNK        -0.5039 
     34 N          23.2173  -25.8168  -41.1301 N.am      5 UNK        -0.4663 
     35 CA         24.6671  -26.0289  -41.1244 C.3       5 UNK         0.0242 
     36 CB         25.0727  -26.6687  -42.4632 C.3       5 UNK        -0.1982 
     37 C          25.1527  -26.8964  -39.9447 C.2       5 UNK         0.5017 
     38 O          26.3589  -26.9440  -39.7035 O.2       5 UNK        -0.5012 
     39 N          24.2182  -27.5763  -39.2598 N.am      6 UNK        -0.4439 
     40 CA         24.4067  -28.5656  -38.1937 C.3       6 UNK         0.0297 
     41 CB         24.7553  -27.8425  -36.8758 C.3       6 UNK        -0.2006 
     42 C          25.4133  -29.6898  -38.5435 C.2       6 UNK         0.4892 
     43 O          26.4116  -29.8385  -37.8386 O.2       6 UNK        -0.5089 
     44 N          25.2022  -30.4861  -39.6013 N.am      7 UNK        -0.4243 
     45 CA         24.1218  -30.4833  -40.5857 C.3       7 UNK         0.0196 
     46 CB         22.9621  -31.3739  -40.1072 C.3       7 UNK        -0.2007 
     47 C          24.7077  -31.0011  -41.9022 C.2       7 UNK         0.5020 
     48 O          25.5767  -31.8758  -41.8785 O.2       7 UNK        -0.5147 
     49 N          24.2154  -30.4644  -43.0228 N.am      8 UNK        -0.4734 
     50 CA         24.6115  -30.8647  -44.3768 C.3       8 UNK         0.0238 
     51 CB         24.5121  -29.6409  -45.3038 C.3       8 UNK        -0.1912 
     52 C          23.7665  -32.0320  -44.9187 C.2       8 UNK         0.5038 
     53 O          24.1312  -32.6130  -45.9413 O.2       8 UNK        -0.5046 
     54 N          22.6517  -32.3382  -44.2422 N.am      9 UNK        -0.4200 
     55 CA         21.7382  -33.4430  -44.5516 C.3       9 UNK         0.0839 
     56 C          22.4026  -34.8253  -44.3031 C.2       9 UNK         0.5513 
     57 N          22.2596  -35.7643  -45.2280 N.am      9 UNK        -0.7519 
     58 O          23.0173  -35.0576  -43.2643 O.2       9 UNK        -0.4960 
     59 C59        20.4176  -33.2788  -43.7564 C.3       10 UNK        -0.0876 
     60 S60        19.0335  -34.2329  -44.4697 S.3       10 UNK        -0.2414 
     61 C61        18.1385  -32.9548  -45.4228 C.3       10 UNK         0.0169 
     62 H62        18.8912  -21.6282  -43.2024 H         1 UNK         0.0903 
     63 H63        17.4896  -21.1526  -44.1661 H         1 UNK         0.0903 
     64 H64        17.2821  -22.2028  -42.7630 H         1 UNK         0.0903 
     65 H65        17.0046  -24.3490  -43.3104 H         1 UNK         0.3096 
     66 H66        17.8532  -25.3834  -45.9137 H         1 UNK         0.1121 
     67 H67        15.5731  -25.8855  -44.6058 H         1 UNK         0.0849 
     68 H68        16.5134  -27.0834  -43.7646 H         1 UNK         0.0849 
     69 H69        14.3910  -28.4385  -44.7967 H         1 UNK         0.0865 
     70 H70        14.6412  -29.3952  -46.2305 H         1 UNK         0.0865 
     71 H71        16.6872  -30.9133  -46.3923 H         1 UNK         0.1346 
     72 H72        17.8505  -32.6450  -42.6377 H         1 UNK         0.1412 
     73 H73        15.4182  -29.1332  -42.7050 H         1 UNK         0.1426 
     74 H74        16.1162  -31.8320  -40.6889 H         1 UNK         0.0716 
     75 H75        16.0026  -30.0944  -40.6009 H         1 UNK         0.0716 
     76 H76        18.6597  -28.8319  -39.1048 H         1 UNK         0.0695 
     77 H77        17.8023  -28.5013  -40.5851 H         1 UNK         0.0695 
     78 H78        20.6667  -29.5462  -40.6787 H         1 UNK         0.0983 
     79 H79        18.8660  -28.5422  -42.6785 H         1 UNK         0.3095 
     80 H80        21.3202  -27.7484  -45.0874 H         1 UNK         0.0454 
     81 H81        21.2760  -30.2276  -45.3665 H         1 UNK         0.0851 
     82 H82        20.2194  -29.4474  -46.5252 H         1 UNK         0.0851 
     83 H83        19.5406  -30.2347  -45.1028 H         1 UNK         0.0851 
     84 H84        18.5855  -27.9085  -45.5356 H         1 UNK         0.2976 
     85 H85        20.0405  -26.2517  -41.7719 H         1 UNK         0.3116 
     86 H86        20.6819  -24.9342  -39.3051 H         1 UNK         0.0646 
     87 H87        20.8351  -23.8397  -42.1627 H         1 UNK         0.0847 
     88 H88        20.7509  -22.9014  -40.6824 H         1 UNK         0.0847 
     89 H89        19.3736  -23.8731  -41.1754 H         1 UNK         0.0847 
     90 H90        22.6721  -26.4015  -41.7490 H         1 UNK         0.3040 
     91 H91        25.1632  -25.0592  -41.0403 H         1 UNK         0.1015 
     92 H92        24.8001  -26.0330  -43.3059 H         1 UNK         0.0786 
     93 H93        24.5964  -27.6381  -42.6081 H         1 UNK         0.0786 
     94 H94        26.1512  -26.8252  -42.5132 H         1 UNK         0.0786 
     95 H95        23.2479  -27.4256  -39.5154 H         1 UNK         0.3172 
     96 H96        23.4408  -29.0509  -38.0503 H         1 UNK         0.0595 
     97 H97        25.7099  -27.3193  -36.9423 H         1 UNK         0.0839 
     98 H98        24.8262  -28.5487  -36.0476 H         1 UNK         0.0839 
     99 H99        23.9909  -27.1115  -36.6121 H         1 UNK         0.0839 
    100 H100       25.9132  -31.1721  -39.8230 H         1 UNK         0.2998 
    101 H101       23.7445  -29.4806  -40.7694 H         1 UNK         0.0822 
    102 H102       22.5023  -30.9810  -39.2007 H         1 UNK         0.0787 
    103 H103       22.1793  -31.4401  -40.8636 H         1 UNK         0.0787 
    104 H104       23.2972  -32.3907  -39.8982 H         1 UNK         0.0787 
    105 H105       23.4803  -29.7605  -42.9552 H         1 UNK         0.3055 
    106 H106       25.6515  -31.1996  -44.3687 H         1 UNK         0.1106 
    107 H107       24.7992  -29.8973  -46.3246 H         1 UNK         0.0828 
    108 H108       23.5004  -29.2378  -45.3406 H         1 UNK         0.0828 
    109 H109       25.1765  -28.8421  -44.9743 H         1 UNK         0.0828 
    110 H110       22.4719  -31.8322  -43.3897 H         1 UNK         0.2931 
    111 H111       21.5033  -33.3564  -45.6149 H         1 UNK         0.0412 
    112 H112       21.7381  -35.5847  -46.0722 H         1 UNK         0.3472 
    113 H113       22.6734  -36.6712  -45.0772 H         1 UNK         0.3472 
    114 H114       20.5490  -33.5748  -42.7136 H         1 UNK         0.0970 
    115 H115       20.1283  -32.2278  -43.7250 H         1 UNK         0.0970 
    116 H116       17.4231  -33.4663  -46.0681 H         1 UNK         0.0612 
    117 H117       18.8483  -32.4580  -46.0858 H         1 UNK         0.0612 
@<TRIPOS>BOND
     1    1    2 1    
     2    1   62 1    
     3    1   63 1    
     4    1   64 1    
     5    2    3 2    
     6    2    4 am   BACKBONE|DICT|INTERRES
     7    4    5 1    
     8    4   65 1    
     9    5    6 1    
    10    5   25 1    
    11    5   66 1    
    12    6    7 1    
    13    6   67 1    
    14    6   68 1    
    15    7    8 1    
    16    8    9 1    
    17    8   69 1    
    18    8   70 1    
    19    9   10 ar   
    20    9   14 ar   
    21   10   11 ar   
    22   10   71 1    
    23   11   12 ar   
    24   11   61 1    
    25   12   13 ar   
    26   12   72 1    
    27   13   14 ar   
    28   13   15 1    
    29   14   73 1    
    30   15   16 1    
    31   15   74 1    
    32   15   75 1    
    33   16   17 1    
    34   17   18 1    
    35   17   76 1    
    36   17   77 1    
    37   18   19 1    
    38   18   27 1    
    39   18   78 1    
    40   19   20 am   BACKBONE|DICT|INTERRES
    41   19   79 1    
    42   20   21 2    
    43   20   22 1    
    44   22   23 1    
    45   22   24 1    
    46   22   80 1    
    47   23   81 1    
    48   23   82 1    
    49   23   83 1    
    50   24   25 am   BACKBONE|DICT|INTERRES
    51   24   84 1    
    52   25   26 2    
    53   27   28 2    
    54   27   29 am   BACKBONE|DICT|INTERRES
    55   29   30 1    
    56   29   85 1    
    57   30   31 1    
    58   30   32 1    
    59   30   86 1    
    60   31   87 1    
    61   31   88 1    
    62   31   89 1    
    63   32   33 2    
    64   32   34 am   BACKBONE|DICT|INTERRES
    65   34   35 1    
    66   34   90 1    
    67   35   36 1    
    68   35   37 1    
    69   35   91 1    
    70   36   92 1    
    71   36   93 1    
    72   36   94 1    
    73   37   38 2    
    74   37   39 am   BACKBONE|DICT|INTERRES
    75   39   40 1    
    76   39   95 1    
    77   40   41 1    
    78   40   42 1    
    79   40   96 1    
    80   41   97 1    
    81   41   98 1    
    82   41   99 1    
    83   42   43 2    
    84   42   44 am   BACKBONE|DICT|INTERRES
    85   44   45 1    
    86   44  100 1    
    87   45   46 1    
    88   45   47 1    
    89   45  101 1    
    90   46  102 1    
    91   46  103 1    
    92   46  104 1    
    93   47   48 2    
    94   47   49 am   BACKBONE|DICT|INTERRES
    95   49   50 1    
    96   49  105 1    
    97   50   51 1    
    98   50   52 1    
    99   50  106 1    
   100   51  107 1    
   101   51  108 1    
   102   51  109 1    
   103   52   53 2    
   104   52   54 am   BACKBONE|DICT|INTERRES
   105   54   55 1    
   106   54  110 1    
   107   55   56 1    
   108   55   59 1    
   109   55  111 1    
   110   56   57 am   BACKBONE|DICT|INTERRES
   111   56   58 2    
   112   57  112 1    
   113   57  113 1    
   114   59   60 1    
   115   59  114 1    
   116   59  115 1    
   117   60   61 1    
   118   61  116 1    
   119   61  117 1    
@<TRIPOS>SUBSTRUCTURE
     1 UNK         1 GROUP             0       ****    0 ROOT    
