@<TRIPOS>MOLECULE
3R8
117   119    1
SMALL
USER_CHARGES


@<TRIPOS>ATOM
      1 CA         14.9593  -29.9724  -41.8748 C.3       0 UNK        -0.2013 
      2 C          15.1502  -28.5767  -42.4474 C.2       0 UNK         0.4866 
      3 O          14.7887  -27.5951  -41.7984 O.2       0 UNK        -0.5176 
      4 N          15.7110  -28.4790  -43.6598 N.am      1 UNK        -0.4884 
      5 CA         15.9178  -27.2169  -44.3865 C.3       1 UNK         0.0853 
      6 C6         15.9473  -27.4027  -45.9289 C.3       10 UNK        -0.0849 
      7 S7         14.6362  -28.5338  -46.5406 S.3       10 UNK        -0.2776 
      8 C8         15.5169  -29.9190  -47.3555 C.3       10 UNK         0.0316 
      9 C9         16.8737  -30.2393  -46.7411 C.ar      10 UNK        -0.0863 
     10 C10        16.9716  -30.8621  -45.4933 C.ar      10 UNK        -0.1009 
     11 C11        18.2240  -31.0724  -44.9043 C.ar      10 UNK        -0.0712 
     12 C12        19.3833  -30.6909  -45.5895 C.ar      10 UNK        -0.0894 
     13 C13        19.2940  -30.0901  -46.8483 C.ar      10 UNK        -0.0745 
     14 C14        18.0389  -29.8731  -47.4192 C.ar      10 UNK        -0.0972 
     15 C15        20.5396  -29.6567  -47.6027 C.3       10 UNK         0.0209 
     16 S16        20.8798  -27.8860  -47.3458 S.3       10 UNK        -0.2568 
     17 C17        22.2105  -27.9413  -46.1040 C.3       10 UNK        -0.0983 
     18 CA         22.0673  -26.8475  -45.0148 C.3       3 UNK         0.0876 
     19 N          20.8907  -27.0745  -44.1608 N.am      3 UNK        -0.4424 
     20 C          20.3008  -26.1489  -43.3927 C.2       2 UNK         0.4918 
     21 O          20.6168  -24.9568  -43.4010 O.2       2 UNK        -0.4875 
     22 CA         19.2203  -26.6572  -42.4249 C.3       2 UNK         0.0481 
     23 CB         18.8462  -25.6201  -41.3452 C.3       2 UNK        -0.1831 
     24 N          18.0235  -27.1453  -43.1122 N.am      2 UNK        -0.4498 
     25 C          17.1708  -26.4593  -43.8917 C.2       1 UNK         0.5027 
     26 O          17.3202  -25.2789  -44.2097 O.2       1 UNK        -0.4969 
     27 C          23.3549  -26.7066  -44.1624 C.2       3 UNK         0.5005 
     28 O          24.2894  -27.4977  -44.3122 O.2       3 UNK        -0.5279 
     29 N          23.3619  -25.7101  -43.2639 N.am      4 UNK        -0.4463 
     30 CA         24.3743  -25.4039  -42.2470 C.3       4 UNK         0.0283 
     31 CB         25.7256  -25.0586  -42.9127 C.3       4 UNK        -0.1875 
     32 C          24.5197  -26.5104  -41.1823 C.2       4 UNK         0.4949 
     33 O          23.8426  -27.5408  -41.2350 O.2       4 UNK        -0.5039 
     34 N          25.4306  -26.2834  -40.2263 N.am      5 UNK        -0.4663 
     35 CA         25.7956  -27.2375  -39.1707 C.3       5 UNK         0.0242 
     36 CB         26.6661  -26.5216  -38.1252 C.3       5 UNK        -0.1982 
     37 C          26.5070  -28.5006  -39.6946 C.2       5 UNK         0.5017 
     38 O          26.5734  -29.4948  -38.9722 O.2       5 UNK        -0.5012 
     39 N          27.0109  -28.4442  -40.9367 N.am      6 UNK        -0.4439 
     40 CA         27.5647  -29.5774  -41.6778 C.3       6 UNK         0.0297 
     41 CB         28.2016  -29.0736  -42.9832 C.3       6 UNK        -0.2006 
     42 C          26.5116  -30.6607  -41.9709 C.2       6 UNK         0.4892 
     43 O          26.8283  -31.8459  -41.8622 O.2       6 UNK        -0.5089 
     44 N          25.2854  -30.2392  -42.3150 N.am      7 UNK        -0.4243 
     45 CA         24.1359  -31.1289  -42.4727 C.3       7 UNK         0.0196 
     46 CB         23.1783  -30.5727  -43.5366 C.3       7 UNK        -0.2007 
     47 C          23.4036  -31.3127  -41.1395 C.2       7 UNK         0.5020 
     48 O          23.0986  -32.4480  -40.7745 O.2       7 UNK        -0.5147 
     49 N          23.1088  -30.1954  -40.4551 N.am      8 UNK        -0.4734 
     50 CA         22.3835  -30.0445  -39.1817 C.3       8 UNK         0.0238 
     51 CB         23.1438  -30.7226  -38.0260 C.3       8 UNK        -0.1912 
     52 C          20.9043  -30.4839  -39.1963 C.2       8 UNK         0.5038 
     53 O          20.0914  -29.8517  -38.5214 O.2       8 UNK        -0.5046 
     54 N          20.5855  -31.5423  -39.9500 N.am      9 UNK        -0.4200 
     55 CA         19.2626  -32.1669  -40.1133 C.3       9 UNK         0.0839 
     56 C          18.7389  -32.9097  -38.8463 C.2       9 UNK         0.5513 
     57 N          19.5790  -33.2183  -37.8655 N.am      9 UNK        -0.7519 
     58 O          17.5592  -33.2419  -38.7602 O.2       9 UNK        -0.4960 
     59 C59        18.1948  -31.2202  -40.7329 C.3       10 UNK        -0.0876 
     60 S60        18.7240  -30.4135  -42.2824 S.3       10 UNK        -0.2414 
     61 C61        18.3241  -31.6874  -43.5174 C.3       10 UNK         0.0169 
     62 H62        13.8970  -30.1986  -41.7885 H         1 UNK         0.0903 
     63 H63        15.4195  -30.7372  -42.4991 H         1 UNK         0.0903 
     64 H64        15.4005  -30.0324  -40.8805 H         1 UNK         0.0903 
     65 H65        15.9833  -29.3104  -44.1646 H         1 UNK         0.3096 
     66 H66        15.0663  -26.5694  -44.1635 H         1 UNK         0.1121 
     67 H67        16.9322  -27.7254  -46.2612 H         1 UNK         0.0849 
     68 H68        15.7957  -26.4357  -46.4120 H         1 UNK         0.0849 
     69 H69        14.8852  -30.8076  -47.3198 H         1 UNK         0.0865 
     70 H70        15.6290  -29.6779  -48.4138 H         1 UNK         0.0865 
     71 H71        16.0708  -31.1603  -44.9745 H         1 UNK         0.1346 
     72 H72        20.3514  -30.8501  -45.1357 H         1 UNK         0.1412 
     73 H73        17.9712  -29.3883  -48.3840 H         1 UNK         0.1426 
     74 H74        20.3951  -29.8296  -48.6703 H         1 UNK         0.0716 
     75 H75        21.3992  -30.2654  -47.3183 H         1 UNK         0.0716 
     76 H76        23.1496  -27.8264  -46.6489 H         1 UNK         0.0695 
     77 H77        22.2437  -28.9277  -45.6427 H         1 UNK         0.0695 
     78 H78        21.9372  -25.8915  -45.5274 H         1 UNK         0.0983 
     79 H79        20.5633  -28.0273  -44.1036 H         1 UNK         0.3095 
     80 H80        19.6491  -27.5158  -41.9059 H         1 UNK         0.0454 
     81 H81        18.1244  -26.0284  -40.6379 H         1 UNK         0.0851 
     82 H82        18.4168  -24.7157  -41.7773 H         1 UNK         0.0851 
     83 H83        19.7253  -25.3198  -40.7738 H         1 UNK         0.0851 
     84 H84        17.7987  -28.1174  -42.9452 H         1 UNK         0.2976 
     85 H85        22.5072  -25.1621  -43.2043 H         1 UNK         0.3116 
     86 H86        24.0151  -24.5148  -41.7267 H         1 UNK         0.0646 
     87 H87        26.1994  -25.9350  -43.3561 H         1 UNK         0.0847 
     88 H88        26.4306  -24.6357  -42.1969 H         1 UNK         0.0847 
     89 H89        25.5976  -24.3179  -43.7021 H         1 UNK         0.0847 
     90 H90        25.9312  -25.4056  -40.2302 H         1 UNK         0.3040 
     91 H91        24.8758  -27.5700  -38.6838 H         1 UNK         0.1015 
     92 H92        27.5984  -26.1558  -38.5574 H         1 UNK         0.0786 
     93 H93        26.9285  -27.1952  -37.3079 H         1 UNK         0.0786 
     94 H94        26.1420  -25.6728  -37.6855 H         1 UNK         0.0786 
     95 H95        26.9237  -27.5715  -41.4351 H         1 UNK         0.3172 
     96 H96        28.3481  -30.0277  -41.0646 H         1 UNK         0.0595 
     97 H97        27.4697  -28.5904  -43.6324 H         1 UNK         0.0839 
     98 H98        28.6396  -29.8994  -43.5457 H         1 UNK         0.0839 
     99 H99        29.0009  -28.3589  -42.7863 H         1 UNK         0.0839 
    100 H100       25.1045  -29.2454  -42.3792 H         1 UNK         0.2998 
    101 H101       24.4747  -32.1106  -42.8118 H         1 UNK         0.0822 
    102 H102       23.6832  -30.4612  -44.4961 H         1 UNK         0.0787 
    103 H103       22.3324  -31.2446  -43.6874 H         1 UNK         0.0787 
    104 H104       22.7761  -29.6001  -43.2515 H         1 UNK         0.0787 
    105 H105       23.3857  -29.3077  -40.8718 H         1 UNK         0.3055 
    106 H106       22.3753  -28.9713  -38.9823 H         1 UNK         0.1106 
    107 H107       22.6492  -30.5365  -37.0717 H         1 UNK         0.0828 
    108 H108       23.2044  -31.8035  -38.1543 H         1 UNK         0.0828 
    109 H109       24.1603  -30.3391  -37.9425 H         1 UNK         0.0828 
    110 H110       21.3578  -32.0163  -40.4107 H         1 UNK         0.2931 
    111 H111       19.4273  -32.9641  -40.8389 H         1 UNK         0.0412 
    112 H112       20.5526  -32.9679  -37.9298 H         1 UNK         0.3472 
    113 H113       19.2343  -33.7083  -37.0547 H         1 UNK         0.3472 
    114 H114       17.9311  -30.4364  -40.0212 H         1 UNK         0.0970 
    115 H115       17.2698  -31.7655  -40.9254 H         1 UNK         0.0970 
    116 H116       17.3879  -32.1817  -43.2548 H         1 UNK         0.0612 
    117 H117       19.0969  -32.4572  -43.5046 H         1 UNK         0.0612 
@<TRIPOS>BOND
     1    1    2 1    
     2    1   62 1    
     3    1   63 1    
     4    1   64 1    
     5    2    3 2    
     6    2    4 am   BACKBONE|DICT|INTERRES
     7    4    5 1    
     8    4   65 1    
     9    5    6 1    
    10    5   25 1    
    11    5   66 1    
    12    6    7 1    
    13    6   67 1    
    14    6   68 1    
    15    7    8 1    
    16    8    9 1    
    17    8   69 1    
    18    8   70 1    
    19    9   10 ar   
    20    9   14 ar   
    21   10   11 ar   
    22   10   71 1    
    23   11   12 ar   
    24   11   61 1    
    25   12   13 ar   
    26   12   72 1    
    27   13   14 ar   
    28   13   15 1    
    29   14   73 1    
    30   15   16 1    
    31   15   74 1    
    32   15   75 1    
    33   16   17 1    
    34   17   18 1    
    35   17   76 1    
    36   17   77 1    
    37   18   19 1    
    38   18   27 1    
    39   18   78 1    
    40   19   20 am   BACKBONE|DICT|INTERRES
    41   19   79 1    
    42   20   21 2    
    43   20   22 1    
    44   22   23 1    
    45   22   24 1    
    46   22   80 1    
    47   23   81 1    
    48   23   82 1    
    49   23   83 1    
    50   24   25 am   BACKBONE|DICT|INTERRES
    51   24   84 1    
    52   25   26 2    
    53   27   28 2    
    54   27   29 am   BACKBONE|DICT|INTERRES
    55   29   30 1    
    56   29   85 1    
    57   30   31 1    
    58   30   32 1    
    59   30   86 1    
    60   31   87 1    
    61   31   88 1    
    62   31   89 1    
    63   32   33 2    
    64   32   34 am   BACKBONE|DICT|INTERRES
    65   34   35 1    
    66   34   90 1    
    67   35   36 1    
    68   35   37 1    
    69   35   91 1    
    70   36   92 1    
    71   36   93 1    
    72   36   94 1    
    73   37   38 2    
    74   37   39 am   BACKBONE|DICT|INTERRES
    75   39   40 1    
    76   39   95 1    
    77   40   41 1    
    78   40   42 1    
    79   40   96 1    
    80   41   97 1    
    81   41   98 1    
    82   41   99 1    
    83   42   43 2    
    84   42   44 am   BACKBONE|DICT|INTERRES
    85   44   45 1    
    86   44  100 1    
    87   45   46 1    
    88   45   47 1    
    89   45  101 1    
    90   46  102 1    
    91   46  103 1    
    92   46  104 1    
    93   47   48 2    
    94   47   49 am   BACKBONE|DICT|INTERRES
    95   49   50 1    
    96   49  105 1    
    97   50   51 1    
    98   50   52 1    
    99   50  106 1    
   100   51  107 1    
   101   51  108 1    
   102   51  109 1    
   103   52   53 2    
   104   52   54 am   BACKBONE|DICT|INTERRES
   105   54   55 1    
   106   54  110 1    
   107   55   56 1    
   108   55   59 1    
   109   55  111 1    
   110   56   57 am   BACKBONE|DICT|INTERRES
   111   56   58 2    
   112   57  112 1    
   113   57  113 1    
   114   59   60 1    
   115   59  114 1    
   116   59  115 1    
   117   60   61 1    
   118   61  116 1    
   119   61  117 1    
@<TRIPOS>SUBSTRUCTURE
     1 UNK         1 GROUP             0       ****    0 ROOT    
