@<TRIPOS>MOLECULE
3R8
117   119    1
SMALL
USER_CHARGES


@<TRIPOS>ATOM
      1 CA         16.2945  -23.6441  -40.6715 C.3       0 UNK        -0.2013 
      2 C          16.0083  -24.4519  -41.9285 C.2       0 UNK         0.4866 
      3 O          14.8959  -24.9522  -42.0963 O.2       0 UNK        -0.5176 
      4 N          17.0014  -24.5809  -42.8129 N.am      1 UNK        -0.4884 
      5 CA         16.9219  -25.2829  -44.0922 C.3       1 UNK         0.0853 
      6 C6         17.0037  -26.8219  -43.9214 C.3       10 UNK        -0.0849 
      7 S7         16.2531  -27.7157  -45.3241 S.3       10 UNK        -0.2776 
      8 C8         16.3674  -29.4387  -44.7452 C.3       10 UNK         0.0316 
      9 C9         17.8132  -29.8656  -44.5423 C.ar      10 UNK        -0.0863 
     10 C10        18.3334  -30.0082  -43.2519 C.ar      10 UNK        -0.1009 
     11 C11        19.6692  -30.3736  -43.0623 C.ar      10 UNK        -0.0712 
     12 C12        20.4816  -30.6059  -44.1747 C.ar      10 UNK        -0.0894 
     13 C13        19.9805  -30.4368  -45.4691 C.ar      10 UNK        -0.0745 
     14 C14        18.6399  -30.0860  -45.6476 C.ar      10 UNK        -0.0972 
     15 C15        20.9034  -30.5796  -46.6711 C.3       10 UNK         0.0209 
     16 S16        21.2793  -28.9669  -47.4412 S.3       10 UNK        -0.2568 
     17 C17        22.0277  -28.0440  -46.0523 C.3       10 UNK        -0.0983 
     18 CA         21.9696  -26.5037  -46.2166 C.3       3 UNK         0.0876 
     19 N          20.6155  -26.0332  -46.5337 N.am      3 UNK        -0.4424 
     20 C          20.3389  -24.8840  -47.1622 C.2       2 UNK         0.4918 
     21 O          21.1987  -24.1020  -47.5684 O.2       2 UNK        -0.4875 
     22 CA         18.8518  -24.5327  -47.3571 C.3       2 UNK         0.0481 
     23 CB         18.3612  -25.0450  -48.7205 C.3       2 UNK        -0.1831 
     24 N          17.9543  -25.0270  -46.3047 N.am      2 UNK        -0.4498 
     25 C          18.0359  -24.7299  -45.0004 C.2       1 UNK         0.5027 
     26 O          18.9489  -24.0606  -44.5069 O.2       1 UNK        -0.4969 
     27 C          22.5473  -25.8319  -44.9485 C.2       3 UNK         0.5005 
     28 O          23.7338  -26.0148  -44.6716 O.2       3 UNK        -0.5279 
     29 N          21.7070  -25.1136  -44.1835 N.am      4 UNK        -0.4463 
     30 CA         21.9378  -24.6312  -42.8173 C.3       4 UNK         0.0283 
     31 CB         23.1100  -23.6249  -42.7594 C.3       4 UNK        -0.1875 
     32 C          22.0650  -25.8067  -41.8254 C.2       4 UNK         0.4949 
     33 O          21.5096  -26.8807  -42.0728 O.2       4 UNK        -0.5039 
     34 N          22.7777  -25.5997  -40.7108 N.am      5 UNK        -0.4663 
     35 CA         23.0263  -26.5997  -39.6662 C.3       5 UNK         0.0242 
     36 CB         23.3733  -25.8709  -38.3542 C.3       5 UNK        -0.1982 
     37 C          24.1099  -27.6143  -40.0860 C.2       5 UNK         0.5017 
     38 O          25.1401  -27.7360  -39.4192 O.2       5 UNK        -0.5012 
     39 N          23.8697  -28.3119  -41.2023 N.am      6 UNK        -0.4439 
     40 CA         24.7637  -29.2925  -41.8206 C.3       6 UNK         0.0297 
     41 CB         24.3851  -29.4414  -43.3046 C.3       6 UNK        -0.2006 
     42 C          24.7774  -30.6374  -41.0666 C.2       6 UNK         0.4892 
     43 O          24.3647  -31.6596  -41.6184 O.2       6 UNK        -0.5089 
     44 N          25.2691  -30.5952  -39.8204 N.am      7 UNK        -0.4243 
     45 CA         25.4553  -31.7086  -38.8831 C.3       7 UNK         0.0196 
     46 CB         26.5477  -32.6701  -39.4068 C.3       7 UNK        -0.2007 
     47 C          24.1352  -32.4181  -38.5150 C.2       7 UNK         0.5020 
     48 O          23.0657  -31.8060  -38.5676 O.2       7 UNK        -0.5147 
     49 N          24.2288  -33.6935  -38.1183 N.am      8 UNK        -0.4734 
     50 CA         23.1007  -34.5598  -37.7701 C.3       8 UNK         0.0238 
     51 CB         23.5950  -35.6617  -36.8135 C.3       8 UNK        -0.1912 
     52 C          22.4362  -35.1286  -39.0376 C.2       8 UNK         0.5038 
     53 O          22.5236  -36.3310  -39.2965 O.2       8 UNK        -0.5046 
     54 N          21.8206  -34.2387  -39.8223 N.am      9 UNK        -0.4200 
     55 CA         21.0697  -34.5459  -41.0460 C.3       9 UNK         0.0839 
     56 C          19.8228  -35.4475  -40.8128 C.2       9 UNK         0.5513 
     57 N          19.3823  -36.1652  -41.8377 N.am      9 UNK        -0.7519 
     58 O          19.2378  -35.4849  -39.7314 O.2       9 UNK        -0.4960 
     59 C59        20.7197  -33.2510  -41.8253 C.3       10 UNK        -0.0876 
     60 S60        19.7598  -32.0371  -40.8520 S.3       10 UNK        -0.2414 
     61 C61        20.2416  -30.4805  -41.6564 C.3       10 UNK         0.0169 
     62 H62        16.1462  -24.2625  -39.7866 H         1 UNK         0.0903 
     63 H63        17.3167  -23.2663  -40.6533 H         1 UNK         0.0903 
     64 H64        15.6171  -22.7928  -40.6100 H         1 UNK         0.0903 
     65 H65        17.8873  -24.1082  -42.6736 H         1 UNK         0.3096 
     66 H66        15.9666  -25.0160  -44.5510 H         1 UNK         0.1121 
     67 H67        16.4657  -27.1318  -43.0242 H         1 UNK         0.0849 
     68 H68        18.0360  -27.1477  -43.7761 H         1 UNK         0.0849 
     69 H69        15.7940  -29.5506  -43.8235 H         1 UNK         0.0865 
     70 H70        15.8958  -30.0935  -45.4794 H         1 UNK         0.0865 
     71 H71        17.7047  -29.8232  -42.3916 H         1 UNK         0.1346 
     72 H72        21.5151  -30.8859  -44.0335 H         1 UNK         0.1412 
     73 H73        18.2500  -29.9473  -46.6470 H         1 UNK         0.1426 
     74 H74        20.4344  -31.2272  -47.4131 H         1 UNK         0.0716 
     75 H75        21.8388  -31.0644  -46.3872 H         1 UNK         0.0716 
     76 H76        21.5309  -28.3205  -45.1228 H         1 UNK         0.0695 
     77 H77        23.0621  -28.3784  -45.9537 H         1 UNK         0.0695 
     78 H78        22.6284  -26.2335  -47.0450 H         1 UNK         0.0983 
     79 H79        19.8546  -26.6377  -46.2604 H         1 UNK         0.3095 
     80 H80        18.7758  -23.4435  -47.3578 H         1 UNK         0.0454 
     81 H81        18.3761  -26.1346  -48.7717 H         1 UNK         0.0851 
     82 H82        18.9928  -24.6729  -49.5285 H         1 UNK         0.0851 
     83 H83        17.3445  -24.7118  -48.9292 H         1 UNK         0.0851 
     84 H84        17.1941  -25.6221  -46.6063 H         1 UNK         0.2976 
     85 H85        20.7539  -24.9955  -44.5096 H         1 UNK         0.3116 
     86 H86        21.0302  -24.0956  -42.5360 H         1 UNK         0.0646 
     87 H87        24.0777  -24.1143  -42.8757 H         1 UNK         0.0847 
     88 H88        23.1249  -23.0861  -41.8117 H         1 UNK         0.0847 
     89 H89        23.0225  -22.8750  -43.5456 H         1 UNK         0.0847 
     90 H90        23.2282  -24.7041  -40.5893 H         1 UNK         0.3040 
     91 H91        22.1080  -27.1669  -39.4958 H         1 UNK         0.1015 
     92 H92        23.5285  -26.5819  -37.5415 H         1 UNK         0.0786 
     93 H93        22.5688  -25.2027  -38.0466 H         1 UNK         0.0786 
     94 H94        24.2847  -25.2789  -38.4485 H         1 UNK         0.0786 
     95 H95        22.9962  -28.1162  -41.6833 H         1 UNK         0.3172 
     96 H96        25.7818  -28.8990  -41.7854 H         1 UNK         0.0595 
     97 H97        25.0149  -30.1805  -43.8013 H         1 UNK         0.0839 
     98 H98        24.5118  -28.4999  -43.8387 H         1 UNK         0.0839 
     99 H99        23.3503  -29.7563  -43.4242 H         1 UNK         0.0839 
    100 H100       25.4945  -29.6725  -39.4595 H         1 UNK         0.2998 
    101 H101       25.8223  -31.2603  -37.9587 H         1 UNK         0.0822 
    102 H102       26.8690  -33.3726  -38.6371 H         1 UNK         0.0787 
    103 H103       26.2005  -33.2498  -40.2634 H         1 UNK         0.0787 
    104 H104       27.4369  -32.1219  -39.7187 H         1 UNK         0.0787 
    105 H105       25.1402  -34.1288  -38.1279 H         1 UNK         0.3055 
    106 H106       22.3455  -33.9740  -37.2402 H         1 UNK         0.1106 
    107 H107       22.7760  -36.3210  -36.5227 H         1 UNK         0.0828 
    108 H108       24.3662  -36.2826  -37.2714 H         1 UNK         0.0828 
    109 H109       24.0064  -35.2367  -35.8979 H         1 UNK         0.0828 
    110 H110       21.8318  -33.2653  -39.5405 H         1 UNK         0.2931 
    111 H111       21.7515  -35.1215  -41.6754 H         1 UNK         0.0412 
    112 H112       19.8495  -36.1427  -42.7310 H         1 UNK         0.3472 
    113 H113       18.5694  -36.7488  -41.7134 H         1 UNK         0.3472 
    114 H114       20.1694  -33.4812  -42.7395 H         1 UNK         0.0970 
    115 H115       21.6475  -32.7787  -42.1530 H         1 UNK         0.0970 
    116 H116       21.3297  -30.3954  -41.6683 H         1 UNK         0.0612 
    117 H117       19.8800  -29.6454  -41.0546 H         1 UNK         0.0612 
@<TRIPOS>BOND
     1    1    2 1    
     2    1   62 1    
     3    1   63 1    
     4    1   64 1    
     5    2    3 2    
     6    2    4 am   BACKBONE|DICT|INTERRES
     7    4    5 1    
     8    4   65 1    
     9    5    6 1    
    10    5   25 1    
    11    5   66 1    
    12    6    7 1    
    13    6   67 1    
    14    6   68 1    
    15    7    8 1    
    16    8    9 1    
    17    8   69 1    
    18    8   70 1    
    19    9   10 ar   
    20    9   14 ar   
    21   10   11 ar   
    22   10   71 1    
    23   11   12 ar   
    24   11   61 1    
    25   12   13 ar   
    26   12   72 1    
    27   13   14 ar   
    28   13   15 1    
    29   14   73 1    
    30   15   16 1    
    31   15   74 1    
    32   15   75 1    
    33   16   17 1    
    34   17   18 1    
    35   17   76 1    
    36   17   77 1    
    37   18   19 1    
    38   18   27 1    
    39   18   78 1    
    40   19   20 am   BACKBONE|DICT|INTERRES
    41   19   79 1    
    42   20   21 2    
    43   20   22 1    
    44   22   23 1    
    45   22   24 1    
    46   22   80 1    
    47   23   81 1    
    48   23   82 1    
    49   23   83 1    
    50   24   25 am   BACKBONE|DICT|INTERRES
    51   24   84 1    
    52   25   26 2    
    53   27   28 2    
    54   27   29 am   BACKBONE|DICT|INTERRES
    55   29   30 1    
    56   29   85 1    
    57   30   31 1    
    58   30   32 1    
    59   30   86 1    
    60   31   87 1    
    61   31   88 1    
    62   31   89 1    
    63   32   33 2    
    64   32   34 am   BACKBONE|DICT|INTERRES
    65   34   35 1    
    66   34   90 1    
    67   35   36 1    
    68   35   37 1    
    69   35   91 1    
    70   36   92 1    
    71   36   93 1    
    72   36   94 1    
    73   37   38 2    
    74   37   39 am   BACKBONE|DICT|INTERRES
    75   39   40 1    
    76   39   95 1    
    77   40   41 1    
    78   40   42 1    
    79   40   96 1    
    80   41   97 1    
    81   41   98 1    
    82   41   99 1    
    83   42   43 2    
    84   42   44 am   BACKBONE|DICT|INTERRES
    85   44   45 1    
    86   44  100 1    
    87   45   46 1    
    88   45   47 1    
    89   45  101 1    
    90   46  102 1    
    91   46  103 1    
    92   46  104 1    
    93   47   48 2    
    94   47   49 am   BACKBONE|DICT|INTERRES
    95   49   50 1    
    96   49  105 1    
    97   50   51 1    
    98   50   52 1    
    99   50  106 1    
   100   51  107 1    
   101   51  108 1    
   102   51  109 1    
   103   52   53 2    
   104   52   54 am   BACKBONE|DICT|INTERRES
   105   54   55 1    
   106   54  110 1    
   107   55   56 1    
   108   55   59 1    
   109   55  111 1    
   110   56   57 am   BACKBONE|DICT|INTERRES
   111   56   58 2    
   112   57  112 1    
   113   57  113 1    
   114   59   60 1    
   115   59  114 1    
   116   59  115 1    
   117   60   61 1    
   118   61  116 1    
   119   61  117 1    
@<TRIPOS>SUBSTRUCTURE
     1 UNK         1 GROUP             0       ****    0 ROOT    
