@<TRIPOS>MOLECULE
3R8
117   119    1
SMALL
USER_CHARGES


@<TRIPOS>ATOM
      1 CA         14.1486  -24.5897  -42.3734 C.3       0 UNK        -0.2013 
      2 C          15.1028  -25.4094  -43.2283 C.2       0 UNK         0.4866 
      3 O          16.0278  -26.0226  -42.6968 O.2       0 UNK        -0.5176 
      4 N          14.9041  -25.4049  -44.5538 N.am      1 UNK        -0.4884 
      5 CA         15.6498  -26.1485  -45.5863 C.3       1 UNK         0.0853 
      6 C6         15.6144  -27.6853  -45.3647 C.3       10 UNK        -0.0849 
      7 S7         15.4271  -28.6035  -46.9289 S.3       10 UNK        -0.2776 
      8 C8         15.2391  -30.3098  -46.3131 C.3       10 UNK         0.0316 
      9 C9         16.4514  -30.7640  -45.5117 C.ar      10 UNK        -0.0863 
     10 C10        16.3117  -31.1750  -44.1827 C.ar      10 UNK        -0.1009 
     11 C11        17.4303  -31.5638  -43.4388 C.ar      10 UNK        -0.0712 
     12 C12        18.6973  -31.5301  -44.0307 C.ar      10 UNK        -0.0894 
     13 C13        18.8477  -31.1160  -45.3573 C.ar      10 UNK        -0.0745 
     14 C14        17.7198  -30.7551  -46.0969 C.ar      10 UNK        -0.0972 
     15 C15        20.2223  -31.0444  -46.0023 C.3       10 UNK         0.0209 
     16 S16        20.7176  -29.3230  -46.3245 S.3       10 UNK        -0.2568 
     17 C17        21.1481  -28.7489  -44.6508 C.3       10 UNK        -0.0983 
     18 CA         21.4593  -27.2320  -44.6540 C.3       3 UNK         0.0876 
     19 N          20.2443  -26.4113  -44.7319 N.am      3 UNK        -0.4424 
     20 C          20.2380  -25.1401  -45.1534 C.2       2 UNK         0.4918 
     21 O          21.1969  -24.6110  -45.7195 O.2       2 UNK        -0.4875 
     22 CA         18.9849  -24.2989  -44.8378 C.3       2 UNK         0.0481 
     23 CB         18.8678  -23.0384  -45.7224 C.3       2 UNK        -0.1831 
     24 N          17.7240  -25.0488  -44.8208 N.am      2 UNK        -0.4498 
     25 C          17.0825  -25.6178  -45.8512 C.2       1 UNK         0.5027 
     26 O          17.5478  -25.6817  -46.9897 O.2       1 UNK        -0.4969 
     27 C          22.2664  -26.8296  -43.4031 C.2       3 UNK         0.5005 
     28 O          21.6777  -26.4375  -42.3907 O.2       3 UNK        -0.5279 
     29 N          23.5995  -26.9319  -43.4957 N.am      4 UNK        -0.4463 
     30 CA         24.5245  -26.6777  -42.3910 C.3       4 UNK         0.0283 
     31 CB         25.9581  -26.5647  -42.9357 C.3       4 UNK        -0.1875 
     32 C          24.4297  -27.8039  -41.3541 C.2       4 UNK         0.4949 
     33 O          24.6079  -28.9667  -41.7200 O.2       4 UNK        -0.5039 
     34 N          24.1835  -27.4392  -40.0884 N.am      5 UNK        -0.4663 
     35 CA         23.9071  -28.3588  -38.9758 C.3       5 UNK         0.0242 
     36 CB         23.6126  -27.5434  -37.7066 C.3       5 UNK        -0.1982 
     37 C          25.0012  -29.4057  -38.7008 C.2       5 UNK         0.5017 
     38 O          24.6890  -30.4904  -38.2090 O.2       5 UNK        -0.5012 
     39 N          26.2530  -29.0707  -39.0422 N.am      6 UNK        -0.4439 
     40 CA         27.4069  -29.9694  -38.9863 C.3       6 UNK         0.0297 
     41 CB         28.6943  -29.1478  -39.1627 C.3       6 UNK        -0.2006 
     42 C          27.3509  -31.1081  -40.0234 C.2       6 UNK         0.4892 
     43 O          27.9622  -32.1514  -39.7891 O.2       6 UNK        -0.5089 
     44 N          26.6382  -30.8965  -41.1395 N.am      7 UNK        -0.4243 
     45 CA         26.4153  -31.8967  -42.1808 C.3       7 UNK         0.0196 
     46 CB         26.3718  -31.2189  -43.5618 C.3       7 UNK        -0.2007 
     47 C          25.1244  -32.6773  -41.9035 C.2       7 UNK         0.5020 
     48 O          25.1664  -33.9073  -41.8595 O.2       7 UNK        -0.5147 
     49 N          24.0079  -31.9629  -41.7086 N.am      8 UNK        -0.4734 
     50 CA         22.6874  -32.5329  -41.4371 C.3       8 UNK         0.0238 
     51 CB         22.1136  -33.1878  -42.7099 C.3       8 UNK        -0.1912 
     52 C          21.7422  -31.4381  -40.9308 C.2       8 UNK         0.5038 
     53 O          21.9536  -30.2639  -41.2314 O.2       8 UNK        -0.5046 
     54 N          20.6896  -31.8494  -40.2130 N.am      9 UNK        -0.4200 
     55 CA         19.6545  -30.9800  -39.6229 C.3       9 UNK         0.0839 
     56 C          20.1189  -30.1535  -38.3844 C.2       9 UNK         0.5513 
     57 N          21.2516  -30.4677  -37.7678 N.am      9 UNK        -0.7519 
     58 O          19.4237  -29.2420  -37.9435 O.2       9 UNK        -0.4960 
     59 C59        18.8777  -30.1387  -40.6908 C.3       10 UNK        -0.0876 
     60 S60        17.1323  -30.6447  -40.8322 S.3       10 UNK        -0.2414 
     61 C61        17.2600  -32.0342  -42.0015 C.3       10 UNK         0.0169 
     62 H62        14.6984  -23.8251  -41.8252 H         1 UNK         0.0903 
     63 H63        13.3848  -24.0946  -42.9729 H         1 UNK         0.0903 
     64 H64        13.6477  -25.2331  -41.6506 H         1 UNK         0.0903 
     65 H65        14.1481  -24.8402  -44.9183 H         1 UNK         0.3096 
     66 H66        15.0961  -25.9300  -46.5015 H         1 UNK         0.1121 
     67 H67        14.7653  -27.9590  -44.7363 H         1 UNK         0.0849 
     68 H68        16.5002  -28.0328  -44.8285 H         1 UNK         0.0849 
     69 H69        14.3278  -30.3751  -45.7164 H         1 UNK         0.0865 
     70 H70        15.1008  -30.9815  -47.1613 H         1 UNK         0.0865 
     71 H71        15.3338  -31.1883  -43.7206 H         1 UNK         0.1346 
     72 H72        19.5658  -31.8190  -43.4567 H         1 UNK         0.1412 
     73 H73        17.8349  -30.4298  -47.1222 H         1 UNK         0.1426 
     74 H74        20.2007  -31.5875  -46.9482 H         1 UNK         0.0716 
     75 H75        20.9772  -31.5325  -45.3860 H         1 UNK         0.0716 
     76 H76        22.0119  -29.3306  -44.3204 H         1 UNK         0.0695 
     77 H77        20.3390  -28.9811  -43.9558 H         1 UNK         0.0695 
     78 H78        22.0819  -27.0122  -45.5249 H         1 UNK         0.0983 
     79 H79        19.4335  -26.7619  -44.2451 H         1 UNK         0.3095 
     80 H80        19.1242  -23.9532  -43.8125 H         1 UNK         0.0454 
     81 H81        17.9917  -22.4466  -45.4580 H         1 UNK         0.0851 
     82 H82        18.7968  -23.2909  -46.7807 H         1 UNK         0.0851 
     83 H83        19.7386  -22.3928  -45.6024 H         1 UNK         0.0851 
     84 H84        17.2629  -25.1251  -43.9184 H         1 UNK         0.2976 
     85 H85        24.0053  -27.2979  -44.3450 H         1 UNK         0.3116 
     86 H86        24.2566  -25.7273  -41.9241 H         1 UNK         0.0646 
     87 H87        26.2822  -27.4865  -43.4212 H         1 UNK         0.0847 
     88 H88        26.6651  -26.3559  -42.1317 H         1 UNK         0.0847 
     89 H89        26.0457  -25.7549  -43.6601 H         1 UNK         0.0847 
     90 H90        24.0620  -26.4558  -39.8917 H         1 UNK         0.3040 
     91 H91        23.0046  -28.9105  -39.2418 H         1 UNK         0.1015 
     92 H92        24.4609  -26.9201  -37.4208 H         1 UNK         0.0786 
     93 H93        23.3910  -28.1988  -36.8631 H         1 UNK         0.0786 
     94 H94        22.7470  -26.8950  -37.8438 H         1 UNK         0.0786 
     95 H95        26.4030  -28.1521  -39.4335 H         1 UNK         0.3172 
     96 H96        27.4280  -30.4283  -37.9955 H         1 UNK         0.0595 
     97 H97        28.7273  -28.6502  -40.1329 H         1 UNK         0.0839 
     98 H98        29.5762  -29.7865  -39.0952 H         1 UNK         0.0839 
     99 H99        28.7897  -28.3857  -38.3891 H         1 UNK         0.0839 
    100 H100       26.1000  -30.0389  -41.2281 H         1 UNK         0.2998 
    101 H101       27.2442  -32.6082  -42.1899 H         1 UNK         0.0822 
    102 H102       27.3009  -30.6883  -43.7701 H         1 UNK         0.0787 
    103 H103       26.2366  -31.9588  -44.3518 H         1 UNK         0.0787 
    104 H104       25.5536  -30.5033  -43.6455 H         1 UNK         0.0787 
    105 H105       24.0410  -30.9446  -41.7282 H         1 UNK         0.3055 
    106 H106       22.7907  -33.2859  -40.6525 H         1 UNK         0.1106 
    107 H107       21.1053  -33.5683  -42.5422 H         1 UNK         0.0828 
    108 H108       22.0662  -32.4757  -43.5332 H         1 UNK         0.0828 
    109 H109       22.7192  -34.0329  -43.0369 H         1 UNK         0.0828 
    110 H110       20.5913  -32.8338  -40.0099 H         1 UNK         0.2931 
    111 H111       18.9566  -31.6924  -39.1815 H         1 UNK         0.0412 
    112 H112       21.8352  -31.2166  -38.1043 H         1 UNK         0.3472 
    113 H113       21.5256  -29.9455  -36.9513 H         1 UNK         0.3472 
    114 H114       19.3389  -30.1989  -41.6752 H         1 UNK         0.0970 
    115 H115       18.8919  -29.0723  -40.4590 H         1 UNK         0.0970 
    116 H116       16.3547  -32.6380  -41.9241 H         1 UNK         0.0612 
    117 H117       18.0842  -32.6861  -41.7078 H         1 UNK         0.0612 
@<TRIPOS>BOND
     1    1    2 1    
     2    1   62 1    
     3    1   63 1    
     4    1   64 1    
     5    2    3 2    
     6    2    4 am   BACKBONE|DICT|INTERRES
     7    4    5 1    
     8    4   65 1    
     9    5    6 1    
    10    5   25 1    
    11    5   66 1    
    12    6    7 1    
    13    6   67 1    
    14    6   68 1    
    15    7    8 1    
    16    8    9 1    
    17    8   69 1    
    18    8   70 1    
    19    9   10 ar   
    20    9   14 ar   
    21   10   11 ar   
    22   10   71 1    
    23   11   12 ar   
    24   11   61 1    
    25   12   13 ar   
    26   12   72 1    
    27   13   14 ar   
    28   13   15 1    
    29   14   73 1    
    30   15   16 1    
    31   15   74 1    
    32   15   75 1    
    33   16   17 1    
    34   17   18 1    
    35   17   76 1    
    36   17   77 1    
    37   18   19 1    
    38   18   27 1    
    39   18   78 1    
    40   19   20 am   BACKBONE|DICT|INTERRES
    41   19   79 1    
    42   20   21 2    
    43   20   22 1    
    44   22   23 1    
    45   22   24 1    
    46   22   80 1    
    47   23   81 1    
    48   23   82 1    
    49   23   83 1    
    50   24   25 am   BACKBONE|DICT|INTERRES
    51   24   84 1    
    52   25   26 2    
    53   27   28 2    
    54   27   29 am   BACKBONE|DICT|INTERRES
    55   29   30 1    
    56   29   85 1    
    57   30   31 1    
    58   30   32 1    
    59   30   86 1    
    60   31   87 1    
    61   31   88 1    
    62   31   89 1    
    63   32   33 2    
    64   32   34 am   BACKBONE|DICT|INTERRES
    65   34   35 1    
    66   34   90 1    
    67   35   36 1    
    68   35   37 1    
    69   35   91 1    
    70   36   92 1    
    71   36   93 1    
    72   36   94 1    
    73   37   38 2    
    74   37   39 am   BACKBONE|DICT|INTERRES
    75   39   40 1    
    76   39   95 1    
    77   40   41 1    
    78   40   42 1    
    79   40   96 1    
    80   41   97 1    
    81   41   98 1    
    82   41   99 1    
    83   42   43 2    
    84   42   44 am   BACKBONE|DICT|INTERRES
    85   44   45 1    
    86   44  100 1    
    87   45   46 1    
    88   45   47 1    
    89   45  101 1    
    90   46  102 1    
    91   46  103 1    
    92   46  104 1    
    93   47   48 2    
    94   47   49 am   BACKBONE|DICT|INTERRES
    95   49   50 1    
    96   49  105 1    
    97   50   51 1    
    98   50   52 1    
    99   50  106 1    
   100   51  107 1    
   101   51  108 1    
   102   51  109 1    
   103   52   53 2    
   104   52   54 am   BACKBONE|DICT|INTERRES
   105   54   55 1    
   106   54  110 1    
   107   55   56 1    
   108   55   59 1    
   109   55  111 1    
   110   56   57 am   BACKBONE|DICT|INTERRES
   111   56   58 2    
   112   57  112 1    
   113   57  113 1    
   114   59   60 1    
   115   59  114 1    
   116   59  115 1    
   117   60   61 1    
   118   61  116 1    
   119   61  117 1    
@<TRIPOS>SUBSTRUCTURE
     1 UNK         1 GROUP             0       ****    0 ROOT    
