@<TRIPOS>MOLECULE
3R8
117   119    1
SMALL
USER_CHARGES


@<TRIPOS>ATOM
      1 CA         17.1109  -25.0746  -47.8720 C.3       0 UNK        -0.2013 
      2 C          18.4301  -25.7848  -47.6082 C.2       0 UNK         0.4866 
      3 O          19.4342  -25.4693  -48.2468 O.2       0 UNK        -0.5176 
      4 N          18.4365  -26.7412  -46.6704 N.am      1 UNK        -0.4884 
      5 CA         19.6144  -27.5413  -46.3021 C.3       1 UNK         0.0853 
      6 C6         19.2237  -28.8394  -45.5534 C.3       10 UNK        -0.0849 
      7 S7         18.1570  -29.9426  -46.5444 S.3       10 UNK        -0.2776 
      8 C8         16.5834  -29.9128  -45.6210 C.3       10 UNK         0.0316 
      9 C9         16.7453  -30.3895  -44.1832 C.ar      10 UNK        -0.0863 
     10 C10        17.1066  -31.7128  -43.9137 C.ar      10 UNK        -0.1009 
     11 C11        17.2803  -32.1499  -42.5970 C.ar      10 UNK        -0.0712 
     12 C12        17.0881  -31.2472  -41.5440 C.ar      10 UNK        -0.0894 
     13 C13        16.7286  -29.9184  -41.8000 C.ar      10 UNK        -0.0745 
     14 C14        16.5439  -29.5023  -43.1218 C.ar      10 UNK        -0.0972 
     15 C15        16.5394  -28.9311  -40.6515 C.3       10 UNK         0.0209 
     16 S16        17.6069  -27.4546  -40.7943 S.3       10 UNK        -0.2568 
     17 C17        19.2579  -28.2253  -40.7590 C.3       10 UNK        -0.0983 
     18 CA         20.4434  -27.2355  -40.8814 C.3       3 UNK         0.0876 
     19 N          20.3205  -26.3590  -42.0528 N.am      3 UNK        -0.4424 
     20 C          21.3054  -25.6214  -42.5846 C.2       2 UNK         0.4918 
     21 O          22.4337  -25.5408  -42.0953 O.2       2 UNK        -0.4875 
     22 CA         20.9436  -24.8314  -43.8572 C.3       2 UNK         0.0481 
     23 CB         22.1646  -24.1489  -44.5098 C.3       2 UNK        -0.1831 
     24 N          20.2012  -25.6545  -44.8222 N.am      2 UNK        -0.4498 
     25 C          20.6416  -26.7518  -45.4622 C.2       1 UNK         0.5027 
     26 O          21.7969  -27.1692  -45.3980 O.2       1 UNK        -0.4969 
     27 C          20.7721  -26.5181  -39.5552 C.2       3 UNK         0.5005 
     28 O          21.2200  -27.1770  -38.6155 O.2       3 UNK        -0.5279 
     29 N          20.6125  -25.1878  -39.5122 N.am      4 UNK        -0.4463 
     30 CA         21.1172  -24.3274  -38.4396 C.3       4 UNK         0.0283 
     31 CB         20.4945  -22.9289  -38.5781 C.3       4 UNK        -0.1875 
     32 C          22.6569  -24.2291  -38.4147 C.2       4 UNK         0.4949 
     33 O          23.2171  -23.9678  -37.3499 O.2       4 UNK        -0.5039 
     34 N          23.3090  -24.4302  -39.5697 N.am      5 UNK        -0.4663 
     35 CA         24.7637  -24.4260  -39.7221 C.3       5 UNK         0.0242 
     36 CB         25.1501  -23.6366  -40.9858 C.3       5 UNK        -0.1982 
     37 C          25.3047  -25.8616  -39.7747 C.2       5 UNK         0.5017 
     38 O          26.1420  -26.2177  -38.9448 O.2       5 UNK        -0.5012 
     39 N          24.8160  -26.6610  -40.7322 N.am      6 UNK        -0.4439 
     40 CA         25.2028  -28.0558  -40.9439 C.3       6 UNK         0.0297 
     41 CB         26.5991  -28.1493  -41.5906 C.3       6 UNK        -0.2006 
     42 C          24.1386  -28.7144  -41.8248 C.2       6 UNK         0.4892 
     43 O          23.9626  -28.2953  -42.9681 O.2       6 UNK        -0.5089 
     44 N          23.4249  -29.6987  -41.2666 N.am      7 UNK        -0.4243 
     45 CA         22.2689  -30.3333  -41.9029 C.3       7 UNK         0.0196 
     46 CB         21.3663  -30.9220  -40.8077 C.3       7 UNK        -0.2007 
     47 C          22.6556  -31.3991  -42.9373 C.2       7 UNK         0.5020 
     48 O          22.0963  -31.4014  -44.0334 O.2       7 UNK        -0.5147 
     49 N          23.5957  -32.2828  -42.5632 N.am      8 UNK        -0.4734 
     50 CA         24.1048  -33.4180  -43.3517 C.3       8 UNK         0.0238 
     51 CB         24.9741  -32.9091  -44.5221 C.3       8 UNK        -0.1912 
     52 C          23.0018  -34.4016  -43.8078 C.2       8 UNK         0.5038 
     53 O          23.0442  -34.8931  -44.9379 O.2       8 UNK        -0.5046 
     54 N          22.0257  -34.6486  -42.9234 N.am      9 UNK        -0.4200 
     55 CA         20.8530  -35.5091  -43.1509 C.3       9 UNK         0.0839 
     56 C          21.2289  -36.9914  -43.4217 C.2       9 UNK         0.5513 
     57 N          20.4920  -37.6694  -44.2909 N.am      9 UNK        -0.7519 
     58 O          22.1476  -37.5411  -42.8169 O.2       9 UNK        -0.4960 
     59 C59        19.8379  -35.4168  -41.9793 C.3       10 UNK        -0.0876 
     60 S60        19.3478  -33.6987  -41.6127 S.3       10 UNK        -0.2414 
     61 C61        17.6766  -33.5956  -42.3208 C.3       10 UNK         0.0169 
     62 H62        16.8143  -25.2099  -48.9118 H         1 UNK         0.0903 
     63 H63        16.3086  -25.4536  -47.2392 H         1 UNK         0.0903 
     64 H64        17.2155  -24.0064  -47.6840 H         1 UNK         0.0903 
     65 H65        17.5780  -26.9766  -46.1940 H         1 UNK         0.3096 
     66 H66        20.1260  -27.8285  -47.2240 H         1 UNK         0.1121 
     67 H67        20.1163  -29.4140  -45.2943 H         1 UNK         0.0849 
     68 H68        18.7454  -28.5983  -44.6036 H         1 UNK         0.0849 
     69 H69        16.1674  -28.9049  -45.6545 H         1 UNK         0.0865 
     70 H70        15.8633  -30.5549  -46.1301 H         1 UNK         0.0865 
     71 H71        17.2647  -32.3980  -44.7355 H         1 UNK         0.1346 
     72 H72        17.2314  -31.5819  -40.5256 H         1 UNK         0.1412 
     73 H73        16.2644  -28.4765  -43.3204 H         1 UNK         0.1426 
     74 H74        16.7327  -29.4116  -39.6911 H         1 UNK         0.0716 
     75 H75        15.4971  -28.6106  -40.6304 H         1 UNK         0.0716 
     76 H76        19.3404  -28.8298  -39.8541 H         1 UNK         0.0695 
     77 H77        19.3077  -28.9281  -41.5916 H         1 UNK         0.0695 
     78 H78        21.3335  -27.8345  -41.0626 H         1 UNK         0.0983 
     79 H79        19.4122  -26.3486  -42.4933 H         1 UNK         0.3095 
     80 H80        20.2604  -24.0417  -43.5417 H         1 UNK         0.0454 
     81 H81        22.6204  -23.4322  -43.8256 H         1 UNK         0.0851 
     82 H82        21.8815  -23.6033  -45.4097 H         1 UNK         0.0851 
     83 H83        22.9379  -24.8681  -44.7814 H         1 UNK         0.0851 
     84 H84        19.2365  -25.3942  -44.9734 H         1 UNK         0.2976 
     85 H85        20.2142  -24.7302  -40.3190 H         1 UNK         0.3116 
     86 H86        20.7975  -24.7506  -37.4848 H         1 UNK         0.0646 
     87 H87        20.8283  -22.2730  -37.7727 H         1 UNK         0.0847 
     88 H88        20.7715  -22.4532  -39.5198 H         1 UNK         0.0847 
     89 H89        19.4063  -22.9707  -38.5282 H         1 UNK         0.0847 
     90 H90        22.7789  -24.6896  -40.3957 H         1 UNK         0.3040 
     91 H91        25.2296  -23.9290  -38.8680 H         1 UNK         0.1015 
     92 H92        26.2320  -23.6311  -41.1254 H         1 UNK         0.0786 
     93 H93        24.8285  -22.5976  -40.9130 H         1 UNK         0.0786 
     94 H94        24.7072  -24.0579  -41.8889 H         1 UNK         0.0786 
     95 H95        24.1021  -26.3043  -41.3649 H         1 UNK         0.3172 
     96 H96        25.2286  -28.5637  -39.9774 H         1 UNK         0.0595 
     97 H97        26.6421  -27.6044  -42.5345 H         1 UNK         0.0839 
     98 H98        26.8627  -29.1868  -41.8000 H         1 UNK         0.0839 
     99 H99        27.3724  -27.7464  -40.9368 H         1 UNK         0.0839 
    100 H100       23.6431  -29.9864  -40.3231 H         1 UNK         0.2998 
    101 H101       21.7017  -29.5672  -42.4360 H         1 UNK         0.0822 
    102 H102       20.3714  -31.1168  -41.2055 H         1 UNK         0.0787 
    103 H103       21.7545  -31.8596  -40.4081 H         1 UNK         0.0787 
    104 H104       21.2454  -30.2363  -39.9696 H         1 UNK         0.0787 
    105 H105       23.9890  -32.1832  -41.6375 H         1 UNK         0.3055 
    106 H106       24.7545  -33.9910  -42.6879 H         1 UNK         0.1106 
    107 H107       25.7627  -32.2437  -44.1709 H         1 UNK         0.0828 
    108 H108       25.4585  -33.7373  -45.0408 H         1 UNK         0.0828 
    109 H109       24.3811  -32.3661  -45.2589 H         1 UNK         0.0828 
    110 H110       22.0657  -34.1926  -42.0249 H         1 UNK         0.2931 
    111 H111       20.3605  -35.1227  -44.0458 H         1 UNK         0.0412 
    112 H112       19.7308  -37.2295  -44.7849 H         1 UNK         0.3472 
    113 H113       20.7092  -38.6382  -44.4678 H         1 UNK         0.3472 
    114 H114       18.9456  -36.0081  -42.1940 H         1 UNK         0.0970 
    115 H115       20.2675  -35.8428  -41.0705 H         1 UNK         0.0970 
    116 H116       16.9629  -34.0489  -41.6316 H         1 UNK         0.0612 
    117 H117       17.6395  -34.1815  -43.2406 H         1 UNK         0.0612 
@<TRIPOS>BOND
     1    1    2 1    
     2    1   62 1    
     3    1   63 1    
     4    1   64 1    
     5    2    3 2    
     6    2    4 am   BACKBONE|DICT|INTERRES
     7    4    5 1    
     8    4   65 1    
     9    5    6 1    
    10    5   25 1    
    11    5   66 1    
    12    6    7 1    
    13    6   67 1    
    14    6   68 1    
    15    7    8 1    
    16    8    9 1    
    17    8   69 1    
    18    8   70 1    
    19    9   10 ar   
    20    9   14 ar   
    21   10   11 ar   
    22   10   71 1    
    23   11   12 ar   
    24   11   61 1    
    25   12   13 ar   
    26   12   72 1    
    27   13   14 ar   
    28   13   15 1    
    29   14   73 1    
    30   15   16 1    
    31   15   74 1    
    32   15   75 1    
    33   16   17 1    
    34   17   18 1    
    35   17   76 1    
    36   17   77 1    
    37   18   19 1    
    38   18   27 1    
    39   18   78 1    
    40   19   20 am   BACKBONE|DICT|INTERRES
    41   19   79 1    
    42   20   21 2    
    43   20   22 1    
    44   22   23 1    
    45   22   24 1    
    46   22   80 1    
    47   23   81 1    
    48   23   82 1    
    49   23   83 1    
    50   24   25 am   BACKBONE|DICT|INTERRES
    51   24   84 1    
    52   25   26 2    
    53   27   28 2    
    54   27   29 am   BACKBONE|DICT|INTERRES
    55   29   30 1    
    56   29   85 1    
    57   30   31 1    
    58   30   32 1    
    59   30   86 1    
    60   31   87 1    
    61   31   88 1    
    62   31   89 1    
    63   32   33 2    
    64   32   34 am   BACKBONE|DICT|INTERRES
    65   34   35 1    
    66   34   90 1    
    67   35   36 1    
    68   35   37 1    
    69   35   91 1    
    70   36   92 1    
    71   36   93 1    
    72   36   94 1    
    73   37   38 2    
    74   37   39 am   BACKBONE|DICT|INTERRES
    75   39   40 1    
    76   39   95 1    
    77   40   41 1    
    78   40   42 1    
    79   40   96 1    
    80   41   97 1    
    81   41   98 1    
    82   41   99 1    
    83   42   43 2    
    84   42   44 am   BACKBONE|DICT|INTERRES
    85   44   45 1    
    86   44  100 1    
    87   45   46 1    
    88   45   47 1    
    89   45  101 1    
    90   46  102 1    
    91   46  103 1    
    92   46  104 1    
    93   47   48 2    
    94   47   49 am   BACKBONE|DICT|INTERRES
    95   49   50 1    
    96   49  105 1    
    97   50   51 1    
    98   50   52 1    
    99   50  106 1    
   100   51  107 1    
   101   51  108 1    
   102   51  109 1    
   103   52   53 2    
   104   52   54 am   BACKBONE|DICT|INTERRES
   105   54   55 1    
   106   54  110 1    
   107   55   56 1    
   108   55   59 1    
   109   55  111 1    
   110   56   57 am   BACKBONE|DICT|INTERRES
   111   56   58 2    
   112   57  112 1    
   113   57  113 1    
   114   59   60 1    
   115   59  114 1    
   116   59  115 1    
   117   60   61 1    
   118   61  116 1    
   119   61  117 1    
@<TRIPOS>SUBSTRUCTURE
     1 UNK         1 GROUP             0       ****    0 ROOT    
