@<TRIPOS>MOLECULE
3R8
117   119    1
SMALL
USER_CHARGES


@<TRIPOS>ATOM
      1 CA         13.9146  -24.9160  -45.7460 C.3       0 UNK        -0.2013 
      2 C          15.1373  -25.7383  -45.3675 C.2       0 UNK         0.4866 
      3 O          16.2551  -25.2238  -45.4042 O.2       0 UNK        -0.5176 
      4 N          14.9339  -27.0130  -45.0112 N.am      1 UNK        -0.4884 
      5 CA         15.9814  -27.9435  -44.5787 C.3       1 UNK         0.0853 
      6 C6         15.4751  -29.4072  -44.5613 C.3       10 UNK        -0.0849 
      7 S7         15.2045  -30.0188  -46.2617 S.3       10 UNK        -0.2776 
      8 C8         16.6956  -31.0303  -46.5595 C.3       10 UNK         0.0316 
      9 C9         17.9804  -30.2913  -46.2072 C.ar      10 UNK        -0.0863 
     10 C10        18.6932  -30.6434  -45.0584 C.ar      10 UNK        -0.1009 
     11 C11        19.8414  -29.9394  -44.6896 C.ar      10 UNK        -0.0712 
     12 C12        20.2965  -28.8966  -45.5002 C.ar      10 UNK        -0.0894 
     13 C13        19.5984  -28.5349  -46.6587 C.ar      10 UNK        -0.0745 
     14 C14        18.4426  -29.2425  -47.0085 C.ar      10 UNK        -0.0972 
     15 C15        20.0970  -27.4046  -47.5536 C.3       10 UNK         0.0209 
     16 S16        19.9746  -25.7608  -46.7671 S.3       10 UNK        -0.2568 
     17 C17        21.5678  -25.6646  -45.8731 C.3       10 UNK        -0.0983 
     18 CA         21.4556  -25.3587  -44.3506 C.3       3 UNK         0.0876 
     19 N          20.2697  -25.9662  -43.7247 N.am      3 UNK        -0.4424 
     20 C          20.0127  -26.2057  -42.4258 C.2       2 UNK         0.4918 
     21 O          20.8362  -26.1026  -41.5158 O.2       2 UNK        -0.4875 
     22 CA         18.5644  -26.5704  -42.0549 C.3       2 UNK         0.0481 
     23 CB         17.8707  -25.3079  -41.4956 C.3       2 UNK        -0.1831 
     24 N          17.8268  -27.1285  -43.1956 N.am      2 UNK        -0.4498 
     25 C          16.5441  -27.5146  -43.2106 C.2       1 UNK         0.5027 
     26 O          15.8018  -27.5218  -42.2259 O.2       1 UNK        -0.4969 
     27 C          22.7925  -25.6742  -43.6467 C.2       3 UNK         0.5005 
     28 O          23.2973  -26.7926  -43.7737 O.2       3 UNK        -0.5279 
     29 N          23.3106  -24.6932  -42.8895 N.am      4 UNK        -0.4463 
     30 CA         24.5897  -24.6964  -42.1614 C.3       4 UNK         0.0283 
     31 CB         25.7600  -24.6434  -43.1667 C.3       4 UNK        -0.1875 
     32 C          24.7724  -25.8427  -41.1412 C.2       4 UNK         0.4949 
     33 O          25.9052  -26.0981  -40.7300 O.2       4 UNK        -0.5039 
     34 N          23.6769  -26.5239  -40.7681 N.am      5 UNK        -0.4663 
     35 CA         23.6352  -27.7783  -40.0071 C.3       5 UNK         0.0242 
     36 CB         24.0348  -27.5469  -38.5348 C.3       5 UNK        -0.1982 
     37 C          24.4385  -28.9124  -40.6822 C.2       5 UNK         0.5017 
     38 O          25.0944  -29.6929  -39.9887 O.2       5 UNK        -0.5012 
     39 N          24.3917  -28.9703  -42.0242 N.am      6 UNK        -0.4439 
     40 CA         25.0768  -29.9654  -42.8547 C.3       6 UNK         0.0297 
     41 CB         24.8121  -29.6637  -44.3386 C.3       6 UNK        -0.2006 
     42 C          24.6496  -31.4012  -42.5075 C.2       6 UNK         0.4892 
     43 O          23.4563  -31.7027  -42.5552 O.2       6 UNK        -0.5089 
     44 N          25.6331  -32.2399  -42.1452 N.am      7 UNK        -0.4243 
     45 CA         25.4770  -33.6141  -41.6439 C.3       7 UNK         0.0196 
     46 CB         24.9890  -34.5541  -42.7673 C.3       7 UNK        -0.2007 
     47 C          24.5968  -33.6806  -40.3778 C.2       7 UNK         0.5020 
     48 O          23.7343  -34.5530  -40.2666 O.2       7 UNK        -0.5147 
     49 N          24.7931  -32.7086  -39.4740 N.am      8 UNK        -0.4734 
     50 CA         24.0318  -32.4026  -38.2522 C.3       8 UNK         0.0238 
     51 CB         23.9759  -33.5987  -37.2816 C.3       8 UNK        -0.1912 
     52 C          22.6293  -31.8268  -38.5189 C.2       8 UNK         0.5038 
     53 O          22.2067  -30.9302  -37.7887 O.2       8 UNK        -0.5046 
     54 N          21.9449  -32.3274  -39.5542 N.am      9 UNK        -0.4200 
     55 CA         20.6499  -31.8809  -40.0936 C.3       9 UNK         0.0839 
     56 C          19.4145  -32.1306  -39.1775 C.2       9 UNK         0.5513 
     57 N          19.5492  -32.1006  -37.8589 N.am      9 UNK        -0.7519 
     58 O          18.3215  -32.3921  -39.6725 O.2       9 UNK        -0.4960 
     59 C59        20.7209  -30.4163  -40.6062 C.3       10 UNK        -0.0876 
     60 S60        19.5413  -30.0568  -41.9453 S.3       10 UNK        -0.2414 
     61 C61        20.5851  -30.3069  -43.4145 C.3       10 UNK         0.0169 
     62 H62        13.8211  -24.0566  -45.0826 H         1 UNK         0.0903 
     63 H63        14.0113  -24.5492  -46.7675 H         1 UNK         0.0903 
     64 H64        12.9949  -25.4972  -45.6801 H         1 UNK         0.0903 
     65 H65        13.9932  -27.3804  -44.9936 H         1 UNK         0.3096 
     66 H66        16.7916  -27.8717  -45.3059 H         1 UNK         0.1121 
     67 H67        16.1754  -30.0660  -44.0456 H         1 UNK         0.0849 
     68 H68        14.5388  -29.4842  -44.0055 H         1 UNK         0.0849 
     69 H69        16.6146  -31.9560  -45.9874 H         1 UNK         0.0865 
     70 H70        16.7221  -31.3251  -47.6096 H         1 UNK         0.0865 
     71 H71        18.3414  -31.4500  -44.4293 H         1 UNK         0.1346 
     72 H72        21.1950  -28.3686  -45.2182 H         1 UNK         0.1412 
     73 H73        17.8894  -28.9706  -47.8975 H         1 UNK         0.1426 
     74 H74        19.5153  -27.3746  -48.4762 H         1 UNK         0.0716 
     75 H75        21.1243  -27.6033  -47.8616 H         1 UNK         0.0716 
     76 H76        22.1622  -24.8845  -46.3522 H         1 UNK         0.0695 
     77 H77        22.1251  -26.5835  -46.0558 H         1 UNK         0.0695 
     78 H78        21.2870  -24.2835  -44.2653 H         1 UNK         0.0983 
     79 H79        19.4985  -26.0333  -44.3706 H         1 UNK         0.3095 
     80 H80        18.6036  -27.3264  -41.2696 H         1 UNK         0.0454 
     81 H81        18.4829  -24.8263  -40.7315 H         1 UNK         0.0851 
     82 H82        16.9170  -25.5397  -41.0234 H         1 UNK         0.0851 
     83 H83        17.6873  -24.5709  -42.2783 H         1 UNK         0.0851 
     84 H84        18.3634  -27.2688  -44.0387 H         1 UNK         0.2976 
     85 H85        22.7779  -23.8382  -42.8017 H         1 UNK         0.3116 
     86 H86        24.6097  -23.7738  -41.5795 H         1 UNK         0.0646 
     87 H87        25.8362  -25.5663  -43.7431 H         1 UNK         0.0847 
     88 H88        26.7136  -24.4991  -42.6573 H         1 UNK         0.0847 
     89 H89        25.6452  -23.8178  -43.8688 H         1 UNK         0.0847 
     90 H90        22.7834  -26.2292  -41.1545 H         1 UNK         0.3040 
     91 H91        22.5931  -28.0996  -40.0149 H         1 UNK         0.1015 
     92 H92        25.0873  -27.2795  -38.4369 H         1 UNK         0.0786 
     93 H93        23.8714  -28.4480  -37.9418 H         1 UNK         0.0786 
     94 H94        23.4417  -26.7518  -38.0833 H         1 UNK         0.0786 
     95 H95        23.8710  -28.2537  -42.5235 H         1 UNK         0.3172 
     96 H96        26.1479  -29.8584  -42.6722 H         1 UNK         0.0595 
     97 H97        25.3109  -30.3899  -44.9816 H         1 UNK         0.0839 
     98 H98        25.1831  -28.6766  -44.6153 H         1 UNK         0.0839 
     99 H99        23.7471  -29.6971  -44.5726 H         1 UNK         0.0839 
    100 H100       26.5784  -31.8811  -42.1369 H         1 UNK         0.2998 
    101 H101       26.4698  -33.9501  -41.3406 H         1 UNK         0.0822 
    102 H102       24.9813  -35.5921  -42.4323 H         1 UNK         0.0787 
    103 H103       23.9762  -34.3098  -43.0894 H         1 UNK         0.0787 
    104 H104       25.6401  -34.5009  -43.6398 H         1 UNK         0.0787 
    105 H105       25.4605  -31.9884  -39.7241 H         1 UNK         0.3055 
    106 H106       24.5927  -31.6075  -37.7572 H         1 UNK         0.1106 
    107 H107       23.5252  -33.3044  -36.3329 H         1 UNK         0.0828 
    108 H108       23.3809  -34.4225  -37.6762 H         1 UNK         0.0828 
    109 H109       24.9735  -33.9788  -37.0619 H         1 UNK         0.0828 
    110 H110       22.3773  -33.1009  -40.0480 H         1 UNK         0.2931 
    111 H111       20.5079  -32.5234  -40.9640 H         1 UNK         0.0412 
    112 H112       20.4376  -31.8175  -37.4632 H         1 UNK         0.3472 
    113 H113       18.7536  -32.2765  -37.2658 H         1 UNK         0.3472 
    114 H114       21.7215  -30.2044  -40.9834 H         1 UNK         0.0970 
    115 H115       20.5586  -29.7098  -39.7902 H         1 UNK         0.0970 
    116 H116       20.8953  -31.3514  -43.4641 H         1 UNK         0.0612 
    117 H117       21.4939  -29.7111  -43.3142 H         1 UNK         0.0612 
@<TRIPOS>BOND
     1    1    2 1    
     2    1   62 1    
     3    1   63 1    
     4    1   64 1    
     5    2    3 2    
     6    2    4 am   BACKBONE|DICT|INTERRES
     7    4    5 1    
     8    4   65 1    
     9    5    6 1    
    10    5   25 1    
    11    5   66 1    
    12    6    7 1    
    13    6   67 1    
    14    6   68 1    
    15    7    8 1    
    16    8    9 1    
    17    8   69 1    
    18    8   70 1    
    19    9   10 ar   
    20    9   14 ar   
    21   10   11 ar   
    22   10   71 1    
    23   11   12 ar   
    24   11   61 1    
    25   12   13 ar   
    26   12   72 1    
    27   13   14 ar   
    28   13   15 1    
    29   14   73 1    
    30   15   16 1    
    31   15   74 1    
    32   15   75 1    
    33   16   17 1    
    34   17   18 1    
    35   17   76 1    
    36   17   77 1    
    37   18   19 1    
    38   18   27 1    
    39   18   78 1    
    40   19   20 am   BACKBONE|DICT|INTERRES
    41   19   79 1    
    42   20   21 2    
    43   20   22 1    
    44   22   23 1    
    45   22   24 1    
    46   22   80 1    
    47   23   81 1    
    48   23   82 1    
    49   23   83 1    
    50   24   25 am   BACKBONE|DICT|INTERRES
    51   24   84 1    
    52   25   26 2    
    53   27   28 2    
    54   27   29 am   BACKBONE|DICT|INTERRES
    55   29   30 1    
    56   29   85 1    
    57   30   31 1    
    58   30   32 1    
    59   30   86 1    
    60   31   87 1    
    61   31   88 1    
    62   31   89 1    
    63   32   33 2    
    64   32   34 am   BACKBONE|DICT|INTERRES
    65   34   35 1    
    66   34   90 1    
    67   35   36 1    
    68   35   37 1    
    69   35   91 1    
    70   36   92 1    
    71   36   93 1    
    72   36   94 1    
    73   37   38 2    
    74   37   39 am   BACKBONE|DICT|INTERRES
    75   39   40 1    
    76   39   95 1    
    77   40   41 1    
    78   40   42 1    
    79   40   96 1    
    80   41   97 1    
    81   41   98 1    
    82   41   99 1    
    83   42   43 2    
    84   42   44 am   BACKBONE|DICT|INTERRES
    85   44   45 1    
    86   44  100 1    
    87   45   46 1    
    88   45   47 1    
    89   45  101 1    
    90   46  102 1    
    91   46  103 1    
    92   46  104 1    
    93   47   48 2    
    94   47   49 am   BACKBONE|DICT|INTERRES
    95   49   50 1    
    96   49  105 1    
    97   50   51 1    
    98   50   52 1    
    99   50  106 1    
   100   51  107 1    
   101   51  108 1    
   102   51  109 1    
   103   52   53 2    
   104   52   54 am   BACKBONE|DICT|INTERRES
   105   54   55 1    
   106   54  110 1    
   107   55   56 1    
   108   55   59 1    
   109   55  111 1    
   110   56   57 am   BACKBONE|DICT|INTERRES
   111   56   58 2    
   112   57  112 1    
   113   57  113 1    
   114   59   60 1    
   115   59  114 1    
   116   59  115 1    
   117   60   61 1    
   118   61  116 1    
   119   61  117 1    
@<TRIPOS>SUBSTRUCTURE
     1 UNK         1 GROUP             0       ****    0 ROOT    
