@<TRIPOS>MOLECULE
3R8
117   119    1
SMALL
USER_CHARGES


@<TRIPOS>ATOM
      1 CA         13.4769  -25.2936  -45.9878 C.3       0 UNK        -0.2013 
      2 C          14.8074  -25.6824  -46.6150 C.2       0 UNK         0.4866 
      3 O          14.8856  -25.8512  -47.8324 O.2       0 UNK        -0.5176 
      4 N          15.8536  -25.8202  -45.7962 N.am      1 UNK        -0.4884 
      5 CA         17.2118  -26.1788  -46.2025 C.3       1 UNK         0.0853 
      6 C6         17.3754  -27.6899  -46.5316 C.3       10 UNK        -0.0849 
      7 S7         16.8333  -28.8156  -45.1990 S.3       10 UNK        -0.2776 
      8 C8         18.4331  -29.3432  -44.5170 C.3       10 UNK         0.0316 
      9 C9         18.2493  -29.9785  -43.1510 C.ar      10 UNK        -0.0863 
     10 C10        18.2412  -31.3674  -43.0040 C.ar      10 UNK        -0.1009 
     11 C11        18.1065  -31.9462  -41.7384 C.ar      10 UNK        -0.0712 
     12 C12        17.9659  -31.1190  -40.6175 C.ar      10 UNK        -0.0894 
     13 C13        17.9444  -29.7260  -40.7570 C.ar      10 UNK        -0.0745 
     14 C14        18.0858  -29.1655  -42.0286 C.ar      10 UNK        -0.0972 
     15 C15        17.7215  -28.8301  -39.5449 C.3       10 UNK         0.0209 
     16 S16        19.2403  -27.9766  -39.0099 S.3       10 UNK        -0.2568 
     17 C17        19.3124  -26.5348  -40.1322 C.3       10 UNK        -0.0983 
     18 CA         20.4908  -26.6251  -41.1371 C.3       3 UNK         0.0876 
     19 N          20.1928  -25.9299  -42.3993 N.am      3 UNK        -0.4424 
     20 C          20.9566  -25.9824  -43.4998 C.2       2 UNK         0.4918 
     21 O          21.9612  -26.6884  -43.5969 O.2       2 UNK        -0.4875 
     22 CA         20.5578  -25.0508  -44.6592 C.3       2 UNK         0.0481 
     23 CB         21.7594  -24.7170  -45.5629 C.3       2 UNK        -0.1831 
     24 N          19.4808  -25.5987  -45.4848 N.am      2 UNK        -0.4498 
     25 C          18.1922  -25.6742  -45.1270 C.2       1 UNK         0.5027 
     26 O          17.7707  -25.3432  -44.0132 O.2       1 UNK        -0.4969 
     27 C          21.8157  -26.1509  -40.4910 C.2       3 UNK         0.5005 
     28 O          22.4547  -26.9188  -39.7702 O.2       3 UNK        -0.5279 
     29 N          22.2298  -24.9107  -40.7990 N.am      4 UNK        -0.4463 
     30 CA         23.4891  -24.2848  -40.3823 C.3       4 UNK         0.0283 
     31 CB         23.5290  -22.8404  -40.9065 C.3       4 UNK        -0.1875 
     32 C          24.7592  -25.0432  -40.8147 C.2       4 UNK         0.4949 
     33 O          25.7970  -24.8788  -40.1748 O.2       4 UNK        -0.5039 
     34 N          24.6607  -25.8986  -41.8428 N.am      5 UNK        -0.4663 
     35 CA         25.7192  -26.8050  -42.3028 C.3       5 UNK         0.0242 
     36 CB         25.4723  -27.1291  -43.7885 C.3       5 UNK        -0.1982 
     37 C          25.8351  -28.0832  -41.4389 C.2       5 UNK         0.5017 
     38 O          26.1385  -29.1499  -41.9745 O.2       5 UNK        -0.5012 
     39 N          25.5802  -27.9575  -40.1263 N.am      6 UNK        -0.4439 
     40 CA         25.5228  -29.0150  -39.1087 C.3       6 UNK         0.0297 
     41 CB         26.9260  -29.6046  -38.8521 C.3       6 UNK        -0.2006 
     42 C          24.4678  -30.0884  -39.4409 C.2       6 UNK         0.4892 
     43 O          24.7577  -31.2848  -39.3644 O.2       6 UNK        -0.5089 
     44 N          23.2718  -29.6286  -39.8390 N.am      7 UNK        -0.4243 
     45 CA         22.1191  -30.3783  -40.3547 C.3       7 UNK         0.0196 
     46 CB         21.5733  -31.3775  -39.3170 C.3       7 UNK        -0.2007 
     47 C          22.3823  -31.0436  -41.7170 C.2       7 UNK         0.5020 
     48 O          21.6491  -30.7794  -42.6695 O.2       7 UNK        -0.5147 
     49 N          23.4269  -31.8798  -41.7872 N.am      8 UNK        -0.4734 
     50 CA         23.9121  -32.6826  -42.9182 C.3       8 UNK         0.0238 
     51 CB         24.3302  -31.7960  -44.1085 C.3       8 UNK        -0.1912 
     52 C          22.9386  -33.7931  -43.3487 C.2       8 UNK         0.5038 
     53 O          23.3267  -34.9619  -43.3581 O.2       8 UNK        -0.5046 
     54 N          21.6999  -33.4079  -43.6748 N.am      9 UNK        -0.4200 
     55 CA         20.5626  -34.2753  -44.0222 C.3       9 UNK         0.0839 
     56 C          20.7427  -35.1199  -45.3202 C.2       9 UNK         0.5513 
     57 N          21.6440  -34.7534  -46.2234 N.am      9 UNK        -0.7519 
     58 O          20.0355  -36.1020  -45.5319 O.2       9 UNK        -0.4960 
     59 C59        20.0494  -35.1154  -42.8165 C.3       10 UNK        -0.0876 
     60 S60        19.7511  -34.1349  -41.3012 S.3       10 UNK        -0.2414 
     61 C61        18.0827  -33.4615  -41.5838 C.3       10 UNK         0.0169 
     62 H62        13.1265  -24.3497  -46.4045 H         1 UNK         0.0903 
     63 H63        12.7277  -26.0572  -46.1950 H         1 UNK         0.0903 
     64 H64        13.5541  -25.1797  -44.9066 H         1 UNK         0.0903 
     65 H65        15.7691  -25.6347  -44.8035 H         1 UNK         0.3096 
     66 H66        17.4408  -25.6099  -47.1070 H         1 UNK         0.1121 
     67 H67        16.7797  -27.9272  -47.4143 H         1 UNK         0.0849 
     68 H68        18.4038  -27.9189  -46.8165 H         1 UNK         0.0849 
     69 H69        19.1046  -28.4883  -44.4254 H         1 UNK         0.0865 
     70 H70        18.9137  -30.0390  -45.2066 H         1 UNK         0.0865 
     71 H71        18.3338  -31.9934  -43.8782 H         1 UNK         0.1346 
     72 H72        17.8549  -31.5632  -39.6378 H         1 UNK         0.1412 
     73 H73        18.0585  -28.0936  -42.1572 H         1 UNK         0.1426 
     74 H74        17.3545  -29.4241  -38.7066 H         1 UNK         0.0716 
     75 H75        16.9373  -28.1022  -39.7580 H         1 UNK         0.0716 
     76 H76        19.3733  -25.6260  -39.5298 H         1 UNK         0.0695 
     77 H77        18.3614  -26.4553  -40.6590 H         1 UNK         0.0695 
     78 H78        20.6321  -27.6719  -41.4114 H         1 UNK         0.0983 
     79 H79        19.3452  -25.3764  -42.4349 H         1 UNK         0.3095 
     80 H80        20.2111  -24.1114  -44.2228 H         1 UNK         0.0454 
     81 H81        21.4951  -23.9779  -46.3193 H         1 UNK         0.0851 
     82 H82        22.1408  -25.6009  -46.0759 H         1 UNK         0.0851 
     83 H83        22.5826  -24.3003  -44.9806 H         1 UNK         0.0851 
     84 H84        19.7481  -25.9119  -46.4071 H         1 UNK         0.2976 
     85 H85        21.6299  -24.3539  -41.3897 H         1 UNK         0.3116 
     86 H86        23.4896  -24.2540  -39.2908 H         1 UNK         0.0646 
     87 H87        24.4417  -22.3345  -40.5879 H         1 UNK         0.0847 
     88 H88        22.6907  -22.2551  -40.5283 H         1 UNK         0.0847 
     89 H89        23.5019  -22.8048  -41.9964 H         1 UNK         0.0847 
     90 H90        23.7596  -26.0087  -42.2915 H         1 UNK         0.3040 
     91 H91        26.6790  -26.2888  -42.2290 H         1 UNK         0.1015 
     92 H92        25.3942  -26.2212  -44.3868 H         1 UNK         0.0786 
     93 H93        24.5537  -27.7014  -43.9263 H         1 UNK         0.0786 
     94 H94        26.2901  -27.7189  -44.2047 H         1 UNK         0.0786 
     95 H95        25.3540  -27.0259  -39.8008 H         1 UNK         0.3172 
     96 H96        25.1913  -28.5361  -38.1862 H         1 UNK         0.0595 
     97 H97        27.3072  -30.1384  -39.7233 H         1 UNK         0.0839 
     98 H98        26.9058  -30.3121  -38.0222 H         1 UNK         0.0839 
     99 H99        27.6435  -28.8255  -38.5954 H         1 UNK         0.0839 
    100 H100       23.1410  -28.6175  -39.8417 H         1 UNK         0.2998 
    101 H101       21.3359  -29.6391  -40.5179 H         1 UNK         0.0822 
    102 H102       22.2702  -32.1912  -39.1159 H         1 UNK         0.0787 
    103 H103       21.3502  -30.8818  -38.3723 H         1 UNK         0.0787 
    104 H104       20.6455  -31.8262  -39.6703 H         1 UNK         0.0787 
    105 H105       23.9669  -31.9710  -40.9288 H         1 UNK         0.3055 
    106 H106       24.8124  -33.1822  -42.5561 H         1 UNK         0.1106 
    107 H107       23.4870  -31.2551  -44.5386 H         1 UNK         0.0828 
    108 H108       25.0767  -31.0606  -43.8074 H         1 UNK         0.0828 
    109 H109       24.7703  -32.3971  -44.9050 H         1 UNK         0.0828 
    110 H110       21.4892  -32.4189  -43.5655 H         1 UNK         0.2931 
    111 H111       19.7635  -33.5857  -44.2821 H         1 UNK         0.0412 
    112 H112       22.2232  -33.9443  -46.0660 H         1 UNK         0.3472 
    113 H113       21.7499  -35.2964  -47.0661 H         1 UNK         0.3472 
    114 H114       19.1307  -35.6444  -43.0757 H         1 UNK         0.0970 
    115 H115       20.7765  -35.8914  -42.5717 H         1 UNK         0.0970 
    116 H116       17.4488  -33.7372  -40.7398 H         1 UNK         0.0612 
    117 H117       17.6282  -33.9198  -42.4632 H         1 UNK         0.0612 
@<TRIPOS>BOND
     1    1    2 1    
     2    1   62 1    
     3    1   63 1    
     4    1   64 1    
     5    2    3 2    
     6    2    4 am   BACKBONE|DICT|INTERRES
     7    4    5 1    
     8    4   65 1    
     9    5    6 1    
    10    5   25 1    
    11    5   66 1    
    12    6    7 1    
    13    6   67 1    
    14    6   68 1    
    15    7    8 1    
    16    8    9 1    
    17    8   69 1    
    18    8   70 1    
    19    9   10 ar   
    20    9   14 ar   
    21   10   11 ar   
    22   10   71 1    
    23   11   12 ar   
    24   11   61 1    
    25   12   13 ar   
    26   12   72 1    
    27   13   14 ar   
    28   13   15 1    
    29   14   73 1    
    30   15   16 1    
    31   15   74 1    
    32   15   75 1    
    33   16   17 1    
    34   17   18 1    
    35   17   76 1    
    36   17   77 1    
    37   18   19 1    
    38   18   27 1    
    39   18   78 1    
    40   19   20 am   BACKBONE|DICT|INTERRES
    41   19   79 1    
    42   20   21 2    
    43   20   22 1    
    44   22   23 1    
    45   22   24 1    
    46   22   80 1    
    47   23   81 1    
    48   23   82 1    
    49   23   83 1    
    50   24   25 am   BACKBONE|DICT|INTERRES
    51   24   84 1    
    52   25   26 2    
    53   27   28 2    
    54   27   29 am   BACKBONE|DICT|INTERRES
    55   29   30 1    
    56   29   85 1    
    57   30   31 1    
    58   30   32 1    
    59   30   86 1    
    60   31   87 1    
    61   31   88 1    
    62   31   89 1    
    63   32   33 2    
    64   32   34 am   BACKBONE|DICT|INTERRES
    65   34   35 1    
    66   34   90 1    
    67   35   36 1    
    68   35   37 1    
    69   35   91 1    
    70   36   92 1    
    71   36   93 1    
    72   36   94 1    
    73   37   38 2    
    74   37   39 am   BACKBONE|DICT|INTERRES
    75   39   40 1    
    76   39   95 1    
    77   40   41 1    
    78   40   42 1    
    79   40   96 1    
    80   41   97 1    
    81   41   98 1    
    82   41   99 1    
    83   42   43 2    
    84   42   44 am   BACKBONE|DICT|INTERRES
    85   44   45 1    
    86   44  100 1    
    87   45   46 1    
    88   45   47 1    
    89   45  101 1    
    90   46  102 1    
    91   46  103 1    
    92   46  104 1    
    93   47   48 2    
    94   47   49 am   BACKBONE|DICT|INTERRES
    95   49   50 1    
    96   49  105 1    
    97   50   51 1    
    98   50   52 1    
    99   50  106 1    
   100   51  107 1    
   101   51  108 1    
   102   51  109 1    
   103   52   53 2    
   104   52   54 am   BACKBONE|DICT|INTERRES
   105   54   55 1    
   106   54  110 1    
   107   55   56 1    
   108   55   59 1    
   109   55  111 1    
   110   56   57 am   BACKBONE|DICT|INTERRES
   111   56   58 2    
   112   57  112 1    
   113   57  113 1    
   114   59   60 1    
   115   59  114 1    
   116   59  115 1    
   117   60   61 1    
   118   61  116 1    
   119   61  117 1    
@<TRIPOS>SUBSTRUCTURE
     1 UNK         1 GROUP             0       ****    0 ROOT    
