@<TRIPOS>MOLECULE
3R8
117   119    1
SMALL
USER_CHARGES


@<TRIPOS>ATOM
      1 CA         17.5762  -23.0406  -41.6505 C.3       0 UNK        -0.2013 
      2 C          18.2739  -24.3813  -41.8247 C.2       0 UNK         0.4866 
      3 O          19.1708  -24.7034  -41.0463 O.2       0 UNK        -0.5176 
      4 N          17.8642  -25.1546  -42.8414 N.am      1 UNK        -0.4884 
      5 CA         18.3855  -26.4853  -43.1953 C.3       1 UNK         0.0853 
      6 C6         18.1080  -27.5719  -42.1237 C.3       10 UNK        -0.0849 
      7 S7         16.3437  -27.7736  -41.6855 S.3       10 UNK        -0.2776 
      8 C8         15.5523  -28.2490  -43.2660 C.3       10 UNK         0.0316 
      9 C9         16.3221  -29.3089  -44.0476 C.ar      10 UNK        -0.0863 
     10 C10        16.7461  -30.4862  -43.4240 C.ar      10 UNK        -0.1009 
     11 C11        17.5032  -31.4294  -44.1226 C.ar      10 UNK        -0.0712 
     12 C12        17.7997  -31.2116  -45.4716 C.ar      10 UNK        -0.0894 
     13 C13        17.3556  -30.0520  -46.1174 C.ar      10 UNK        -0.0745 
     14 C14        16.6188  -29.1052  -45.3996 C.ar      10 UNK        -0.0972 
     15 C15        17.6667  -29.8210  -47.5917 C.3       10 UNK         0.0209 
     16 S16        18.9641  -28.5649  -47.8432 S.3       10 UNK        -0.2568 
     17 C17        20.4039  -29.4097  -47.1110 C.3       10 UNK        -0.0983 
     18 CA         21.6499  -28.5059  -46.9278 C.3       3 UNK         0.0876 
     19 N          21.3081  -27.2380  -46.2717 N.am      3 UNK        -0.4424 
     20 C          22.1447  -26.2863  -45.8324 C.2       2 UNK         0.4918 
     21 O          23.3635  -26.3046  -46.0075 O.2       2 UNK        -0.4875 
     22 CA         21.5259  -25.1409  -45.0079 C.3       2 UNK         0.0481 
     23 CB         21.4527  -23.8577  -45.8501 C.3       2 UNK        -0.1831 
     24 N          20.1974  -25.4233  -44.4467 N.am      2 UNK        -0.4498 
     25 C          19.8688  -26.4374  -43.6281 C.2       1 UNK         0.5027 
     26 O          20.6609  -27.3115  -43.2637 O.2       1 UNK        -0.4969 
     27 C          22.7212  -29.3123  -46.1632 C.2       3 UNK         0.5005 
     28 O          23.5552  -29.9644  -46.7934 O.2       3 UNK        -0.5279 
     29 N          22.6701  -29.2460  -44.8256 N.am      4 UNK        -0.4463 
     30 CA         23.6045  -29.8930  -43.9111 C.3       4 UNK         0.0283 
     31 CB         22.9014  -31.0759  -43.2256 C.3       4 UNK        -0.1875 
     32 C          24.1606  -28.8658  -42.9133 C.2       4 UNK         0.4949 
     33 O          24.3000  -29.1790  -41.7304 O.2       4 UNK        -0.5039 
     34 N          24.4650  -27.6554  -43.4088 N.am      5 UNK        -0.4663 
     35 CA         25.0264  -26.5128  -42.6789 C.3       5 UNK         0.0242 
     36 CB         26.4998  -26.7869  -42.2988 C.3       5 UNK        -0.1982 
     37 C          24.1389  -26.1034  -41.4891 C.2       5 UNK         0.5017 
     38 O          23.0704  -25.5349  -41.7066 O.2       5 UNK        -0.5012 
     39 N          24.5669  -26.4248  -40.2622 N.am      6 UNK        -0.4439 
     40 CA         23.8326  -26.1951  -39.0160 C.3       6 UNK         0.0297 
     41 CB         24.8479  -25.9925  -37.8749 C.3       6 UNK        -0.2006 
     42 C          22.8233  -27.3253  -38.7188 C.2       6 UNK         0.4892 
     43 O          22.7579  -27.7974  -37.5823 O.2       6 UNK        -0.5089 
     44 N          22.0604  -27.7379  -39.7434 N.am      7 UNK        -0.4243 
     45 CA         21.0210  -28.7760  -39.7245 C.3       7 UNK         0.0196 
     46 CB         19.8244  -28.3147  -38.8633 C.3       7 UNK        -0.2007 
     47 C          21.5354  -30.1680  -39.3003 C.2       7 UNK         0.5020 
     48 O          20.8020  -30.9220  -38.6573 O.2       7 UNK        -0.5147 
     49 N          22.7792  -30.5085  -39.6649 N.am      8 UNK        -0.4734 
     50 CA         23.4616  -31.7521  -39.2869 C.3       8 UNK         0.0238 
     51 CB         24.9823  -31.5091  -39.3224 C.3       8 UNK        -0.1912 
     52 C          23.0327  -32.9565  -40.1516 C.2       8 UNK         0.5038 
     53 O          23.8868  -33.6711  -40.6799 O.2       8 UNK        -0.5046 
     54 N          21.7171  -33.1460  -40.3019 N.am      9 UNK        -0.4200 
     55 CA         21.0909  -34.1997  -41.1169 C.3       9 UNK         0.0839 
     56 C          21.2149  -35.6368  -40.5307 C.2       9 UNK         0.5513 
     57 N          21.6060  -35.8159  -39.2744 N.am      9 UNK        -0.7519 
     58 O          20.9520  -36.6090  -41.2339 O.2       9 UNK        -0.4960 
     59 C59        19.6103  -33.8663  -41.4381 C.3       10 UNK        -0.0876 
     60 S60        19.4107  -32.2815  -42.3214 S.3       10 UNK        -0.2414 
     61 C61        18.0030  -32.6736  -43.4062 C.3       10 UNK         0.0169 
     62 H62        18.2990  -22.2289  -41.7287 H         1 UNK         0.0903 
     63 H63        16.8031  -22.8800  -42.4017 H         1 UNK         0.0903 
     64 H64        17.1090  -22.9871  -40.6675 H         1 UNK         0.0903 
     65 H65        17.1120  -24.8200  -43.4282 H         1 UNK         0.3096 
     66 H66        17.8531  -26.7825  -44.0987 H         1 UNK         0.1121 
     67 H67        18.4939  -28.5410  -42.4447 H         1 UNK         0.0849 
     68 H68        18.6493  -27.3312  -41.2110 H         1 UNK         0.0849 
     69 H69        14.5504  -28.6259  -43.0565 H         1 UNK         0.0865 
     70 H70        15.4165  -27.3491  -43.8675 H         1 UNK         0.0865 
     71 H71        16.5207  -30.6515  -42.3791 H         1 UNK         0.1346 
     72 H72        18.3822  -31.9415  -46.0171 H         1 UNK         0.1412 
     73 H73        16.2858  -28.2049  -45.8982 H         1 UNK         0.1426 
     74 H74        16.7596  -29.4962  -48.1035 H         1 UNK         0.0716 
     75 H75        17.9701  -30.7517  -48.0737 H         1 UNK         0.0716 
     76 H76        20.6470  -30.2704  -47.7374 H         1 UNK         0.0695 
     77 H77        20.0971  -29.8119  -46.1440 H         1 UNK         0.0695 
     78 H78        22.0567  -28.2601  -47.9106 H         1 UNK         0.0983 
     79 H79        20.3228  -27.1061  -46.0997 H         1 UNK         0.3095 
     80 H80        22.1967  -24.9561  -44.1679 H         1 UNK         0.0454 
     81 H81        22.4318  -23.6003  -46.2568 H         1 UNK         0.0851 
     82 H82        21.1214  -23.0079  -45.2531 H         1 UNK         0.0851 
     83 H83        20.7688  -23.9657  -46.6929 H         1 UNK         0.0851 
     84 H84        19.4720  -24.7581  -44.6734 H         1 UNK         0.2976 
     85 H85        21.9651  -28.6562  -44.3930 H         1 UNK         0.3116 
     86 H86        24.4652  -30.2819  -44.4587 H         1 UNK         0.0646 
     87 H87        22.0933  -30.7433  -42.5734 H         1 UNK         0.0847 
     88 H88        22.4798  -31.7691  -43.9533 H         1 UNK         0.0847 
     89 H89        23.6101  -31.6389  -42.6196 H         1 UNK         0.0847 
     90 H90        24.2588  -27.4808  -44.3860 H         1 UNK         0.3040 
     91 H91        25.0148  -25.6669  -43.3686 H         1 UNK         0.1015 
     92 H92        26.9333  -25.9404  -41.7643 H         1 UNK         0.0786 
     93 H93        27.1067  -26.9427  -43.1909 H         1 UNK         0.0786 
     94 H94        26.6130  -27.6715  -41.6711 H         1 UNK         0.0786 
     95 H95        25.4201  -26.9605  -40.1905 H         1 UNK         0.3172 
     96 H96        23.2553  -25.2728  -39.1089 H         1 UNK         0.0595 
     97 H97        25.4413  -26.8905  -37.6984 H         1 UNK         0.0839 
     98 H98        24.3429  -25.7462  -36.9399 H         1 UNK         0.0839 
     99 H99        25.5335  -25.1735  -38.0933 H         1 UNK         0.0839 
    100 H100       22.1990  -27.2737  -40.6339 H         1 UNK         0.2998 
    101 H101       20.6767  -28.8772  -40.7550 H         1 UNK         0.0822 
    102 H102       18.9559  -28.9537  -39.0285 H         1 UNK         0.0787 
    103 H103       19.5285  -27.2924  -39.0981 H         1 UNK         0.0787 
    104 H104       20.0578  -28.3512  -37.7985 H         1 UNK         0.0787 
    105 H105       23.3054  -29.8758  -40.2644 H         1 UNK         0.3055 
    106 H106       23.1930  -31.9951  -38.2564 H         1 UNK         0.1106 
    107 H107       25.2655  -30.6718  -38.6843 H         1 UNK         0.0828 
    108 H108       25.5284  -32.3843  -38.9679 H         1 UNK         0.0828 
    109 H109       25.3319  -31.2930  -40.3327 H         1 UNK         0.0828 
    110 H110       21.0912  -32.5059  -39.8245 H         1 UNK         0.2931 
    111 H111       21.6286  -34.2220  -42.0671 H         1 UNK         0.0412 
    112 H112       21.8212  -35.0254  -38.6885 H         1 UNK         0.3472 
    113 H113       21.6846  -36.7524  -38.9094 H         1 UNK         0.3472 
    114 H114       19.1722  -34.6595  -42.0473 H         1 UNK         0.0970 
    115 H115       19.0192  -33.8268  -40.5213 H         1 UNK         0.0970 
    116 H116       18.3017  -33.4395  -44.1237 H         1 UNK         0.0612 
    117 H117       17.1933  -33.0993  -42.8114 H         1 UNK         0.0612 
@<TRIPOS>BOND
     1    1    2 1    
     2    1   62 1    
     3    1   63 1    
     4    1   64 1    
     5    2    3 2    
     6    2    4 am   BACKBONE|DICT|INTERRES
     7    4    5 1    
     8    4   65 1    
     9    5    6 1    
    10    5   25 1    
    11    5   66 1    
    12    6    7 1    
    13    6   67 1    
    14    6   68 1    
    15    7    8 1    
    16    8    9 1    
    17    8   69 1    
    18    8   70 1    
    19    9   10 ar   
    20    9   14 ar   
    21   10   11 ar   
    22   10   71 1    
    23   11   12 ar   
    24   11   61 1    
    25   12   13 ar   
    26   12   72 1    
    27   13   14 ar   
    28   13   15 1    
    29   14   73 1    
    30   15   16 1    
    31   15   74 1    
    32   15   75 1    
    33   16   17 1    
    34   17   18 1    
    35   17   76 1    
    36   17   77 1    
    37   18   19 1    
    38   18   27 1    
    39   18   78 1    
    40   19   20 am   BACKBONE|DICT|INTERRES
    41   19   79 1    
    42   20   21 2    
    43   20   22 1    
    44   22   23 1    
    45   22   24 1    
    46   22   80 1    
    47   23   81 1    
    48   23   82 1    
    49   23   83 1    
    50   24   25 am   BACKBONE|DICT|INTERRES
    51   24   84 1    
    52   25   26 2    
    53   27   28 2    
    54   27   29 am   BACKBONE|DICT|INTERRES
    55   29   30 1    
    56   29   85 1    
    57   30   31 1    
    58   30   32 1    
    59   30   86 1    
    60   31   87 1    
    61   31   88 1    
    62   31   89 1    
    63   32   33 2    
    64   32   34 am   BACKBONE|DICT|INTERRES
    65   34   35 1    
    66   34   90 1    
    67   35   36 1    
    68   35   37 1    
    69   35   91 1    
    70   36   92 1    
    71   36   93 1    
    72   36   94 1    
    73   37   38 2    
    74   37   39 am   BACKBONE|DICT|INTERRES
    75   39   40 1    
    76   39   95 1    
    77   40   41 1    
    78   40   42 1    
    79   40   96 1    
    80   41   97 1    
    81   41   98 1    
    82   41   99 1    
    83   42   43 2    
    84   42   44 am   BACKBONE|DICT|INTERRES
    85   44   45 1    
    86   44  100 1    
    87   45   46 1    
    88   45   47 1    
    89   45  101 1    
    90   46  102 1    
    91   46  103 1    
    92   46  104 1    
    93   47   48 2    
    94   47   49 am   BACKBONE|DICT|INTERRES
    95   49   50 1    
    96   49  105 1    
    97   50   51 1    
    98   50   52 1    
    99   50  106 1    
   100   51  107 1    
   101   51  108 1    
   102   51  109 1    
   103   52   53 2    
   104   52   54 am   BACKBONE|DICT|INTERRES
   105   54   55 1    
   106   54  110 1    
   107   55   56 1    
   108   55   59 1    
   109   55  111 1    
   110   56   57 am   BACKBONE|DICT|INTERRES
   111   56   58 2    
   112   57  112 1    
   113   57  113 1    
   114   59   60 1    
   115   59  114 1    
   116   59  115 1    
   117   60   61 1    
   118   61  116 1    
   119   61  117 1    
@<TRIPOS>SUBSTRUCTURE
     1 UNK         1 GROUP             0       ****    0 ROOT    
