@<TRIPOS>MOLECULE
3R8
117   119    1
SMALL
USER_CHARGES


@<TRIPOS>ATOM
      1 CA         19.1746  -27.3100  -49.7115 C.3       0 UNK        -0.2013 
      2 C          20.0777  -27.8527  -48.6142 C.2       0 UNK         0.4866 
      3 O          21.2968  -27.8796  -48.7827 O.2       0 UNK        -0.5176 
      4 N          19.4883  -28.2866  -47.4922 N.am      1 UNK        -0.4884 
      5 CA         20.1968  -28.8612  -46.3396 C.3       1 UNK         0.0853 
      6 C6         19.2217  -29.5080  -45.3232 C.3       10 UNK        -0.0849 
      7 S7         18.1070  -30.7665  -46.0293 S.3       10 UNK        -0.2776 
      8 C8         16.5222  -30.3481  -45.2181 C.3       10 UNK         0.0316 
      9 C9         16.6439  -30.2238  -43.7010 C.ar      10 UNK        -0.0863 
     10 C10        17.1113  -31.2997  -42.9406 C.ar      10 UNK        -0.1009 
     11 C11        17.2685  -31.1795  -41.5573 C.ar      10 UNK        -0.0712 
     12 C12        16.9024  -29.9864  -40.9273 C.ar      10 UNK        -0.0894 
     13 C13        16.4082  -28.9080  -41.6689 C.ar      10 UNK        -0.0745 
     14 C14        16.2918  -29.0307  -43.0579 C.ar      10 UNK        -0.0972 
     15 C15        15.9621  -27.6281  -40.9668 C.3       10 UNK         0.0209 
     16 S16        17.2348  -26.9315  -39.8593 S.3       10 UNK        -0.2568 
     17 C17        18.3879  -26.1474  -41.0366 C.3       10 UNK        -0.0983 
     18 CA         19.4950  -27.1067  -41.5576 C.3       3 UNK         0.0876 
     19 N          19.9727  -26.7126  -42.8831 N.am      3 UNK        -0.4424 
     20 C          20.6965  -25.6340  -43.2163 C.2       2 UNK         0.4918 
     21 O          21.0746  -24.7862  -42.4067 O.2       2 UNK        -0.4875 
     22 CA         21.0068  -25.4415  -44.7202 C.3       2 UNK         0.0481 
     23 CB         22.4784  -25.0603  -44.9773 C.3       2 UNK        -0.1831 
     24 N          20.5785  -26.5638  -45.5731 N.am      2 UNK        -0.4498 
     25 C          21.0481  -27.8235  -45.5791 C.2       1 UNK         0.5027 
     26 O          22.0308  -28.1963  -44.9404 O.2       1 UNK        -0.4969 
     27 C          20.6522  -27.3706  -40.5664 C.2       3 UNK         0.5005 
     28 O          21.7788  -27.6422  -40.9904 O.2       3 UNK        -0.5279 
     29 N          20.3577  -27.3084  -39.2611 N.am      4 UNK        -0.4463 
     30 CA         21.2510  -27.6284  -38.1402 C.3       4 UNK         0.0283 
     31 CB         20.4604  -27.5114  -36.8271 C.3       4 UNK        -0.1875 
     32 C          22.5460  -26.7968  -38.0630 C.2       4 UNK         0.4949 
     33 O          23.4792  -27.2115  -37.3761 O.2       4 UNK        -0.5039 
     34 N          22.5984  -25.6624  -38.7759 N.am      5 UNK        -0.4663 
     35 CA         23.8039  -24.8517  -38.9662 C.3       5 UNK         0.0242 
     36 CB         23.4207  -23.5278  -39.6464 C.3       5 UNK        -0.1982 
     37 C          24.8958  -25.5778  -39.7754 C.2       5 UNK         0.5017 
     38 O          26.0781  -25.3212  -39.5449 O.2       5 UNK        -0.5012 
     39 N          24.4838  -26.4697  -40.6873 N.am      6 UNK        -0.4439 
     40 CA         25.3648  -27.3447  -41.4635 C.3       6 UNK         0.0297 
     41 CB         25.0280  -27.2050  -42.9557 C.3       6 UNK        -0.2006 
     42 C          25.2241  -28.8122  -41.0317 C.2       6 UNK         0.4892 
     43 O          26.2167  -29.5396  -41.0595 O.2       6 UNK        -0.5089 
     44 N          23.9971  -29.2203  -40.6695 N.am      7 UNK        -0.4243 
     45 CA         23.5581  -30.5785  -40.3255 C.3       7 UNK         0.0196 
     46 CB         24.2795  -31.1019  -39.0663 C.3       7 UNK        -0.2007 
     47 C          23.6234  -31.5636  -41.5103 C.2       7 UNK         0.5020 
     48 O          23.6082  -32.7774  -41.3002 O.2       7 UNK        -0.5147 
     49 N          23.6561  -31.0391  -42.7431 N.am      8 UNK        -0.4734 
     50 CA         23.6898  -31.8018  -43.9920 C.3       8 UNK         0.0238 
     51 CB         24.4324  -30.9759  -45.0593 C.3       8 UNK        -0.1912 
     52 C          22.2684  -32.2031  -44.4258 C.2       8 UNK         0.5038 
     53 O          21.8302  -31.8433  -45.5188 O.2       8 UNK        -0.5046 
     54 N          21.5699  -32.9246  -43.5414 N.am      9 UNK        -0.4200 
     55 CA         20.1793  -33.3745  -43.7089 C.3       9 UNK         0.0839 
     56 C          19.9529  -34.4358  -44.8263 C.2       9 UNK         0.5513 
     57 N          20.9866  -35.0648  -45.3730 N.am      9 UNK        -0.7519 
     58 O          18.8121  -34.6984  -45.1976 O.2       9 UNK        -0.4960 
     59 C59        19.5775  -33.8667  -42.3660 C.3       10 UNK        -0.0876 
     60 S60        19.5996  -32.6037  -41.0433 S.3       10 UNK        -0.2414 
     61 C61        17.8212  -32.3365  -40.7371 C.3       10 UNK         0.0169 
     62 H62        19.3054  -27.8894  -50.6252 H         1 UNK         0.0903 
     63 H63        18.1219  -27.3513  -49.4323 H         1 UNK         0.0903 
     64 H64        19.4280  -26.2723  -49.9271 H         1 UNK         0.0903 
     65 H65        18.4800  -28.2812  -47.4261 H         1 UNK         0.3096 
     66 H66        20.8763  -29.6319  -46.7108 H         1 UNK         0.1121 
     67 H67        19.7772  -29.9882  -44.5142 H         1 UNK         0.0849 
     68 H68        18.6125  -28.7339  -44.8542 H         1 UNK         0.0849 
     69 H69        15.7895  -31.1210  -45.4539 H         1 UNK         0.0865 
     70 H70        16.1404  -29.4230  -45.6529 H         1 UNK         0.0865 
     71 H71        17.3735  -32.2249  -43.4335 H         1 UNK         0.1346 
     72 H72        16.9990  -29.8945  -39.8539 H         1 UNK         0.1412 
     73 H73        15.9142  -28.1996  -43.6381 H         1 UNK         0.1426 
     74 H74        15.0772  -27.8570  -40.3716 H         1 UNK         0.0716 
     75 H75        15.6544  -26.8686  -41.6871 H         1 UNK         0.0716 
     76 H76        18.8260  -25.2609  -40.5738 H         1 UNK         0.0695 
     77 H77        17.7953  -25.7709  -41.8721 H         1 UNK         0.0695 
     78 H78        19.0456  -28.0868  -41.7177 H         1 UNK         0.0983 
     79 H79        19.7556  -27.3561  -43.6254 H         1 UNK         0.3095 
     80 H80        20.3985  -24.5915  -45.0318 H         1 UNK         0.0454 
     81 H81        23.1627  -25.8566  -44.6922 H         1 UNK         0.0851 
     82 H82        22.7606  -24.1732  -44.4090 H         1 UNK         0.0851 
     83 H83        22.6493  -24.8367  -46.0301 H         1 UNK         0.0851 
     84 H84        19.7678  -26.3800  -46.1488 H         1 UNK         0.2976 
     85 H85        19.4002  -27.0811  -39.0205 H         1 UNK         0.3116 
     86 H86        21.5553  -28.6700  -38.2617 H         1 UNK         0.0646 
     87 H87        19.5994  -28.1801  -36.8192 H         1 UNK         0.0847 
     88 H88        20.0995  -26.4952  -36.6633 H         1 UNK         0.0847 
     89 H89        21.0810  -27.7783  -35.9704 H         1 UNK         0.0847 
     90 H90        21.7825  -25.3984  -39.3095 H         1 UNK         0.3040 
     91 H91        24.2198  -24.6275  -37.9813 H         1 UNK         0.1015 
     92 H92        24.2959  -22.8904  -39.7801 H         1 UNK         0.0786 
     93 H93        22.7015  -22.9673  -39.0489 H         1 UNK         0.0786 
     94 H94        22.9835  -23.6919  -40.6325 H         1 UNK         0.0786 
     95 H95        23.4849  -26.6222  -40.7906 H         1 UNK         0.3172 
     96 H96        26.4095  -27.0589  -41.3246 H         1 UNK         0.0595 
     97 H97        23.9917  -27.4769  -43.1604 H         1 UNK         0.0839 
     98 H98        25.6617  -27.8518  -43.5643 H         1 UNK         0.0839 
     99 H99        25.1832  -26.1825  -43.2999 H         1 UNK         0.0839 
    100 H100       23.2323  -28.5492  -40.7439 H         1 UNK         0.2998 
    101 H101       22.4987  -30.4898  -40.0795 H         1 UNK         0.0822 
    102 H102       24.2102  -30.3876  -38.2456 H         1 UNK         0.0787 
    103 H103       23.8341  -32.0356  -38.7209 H         1 UNK         0.0787 
    104 H104       25.3353  -31.2976  -39.2547 H         1 UNK         0.0787 
    105 H105       23.6054  -30.0345  -42.8334 H         1 UNK         0.3055 
    106 H106       24.2533  -32.7249  -43.8368 H         1 UNK         0.1106 
    107 H107       24.5083  -31.5276  -45.9972 H         1 UNK         0.0828 
    108 H108       25.4477  -30.7386  -44.7412 H         1 UNK         0.0828 
    109 H109       23.9215  -30.0373  -45.2745 H         1 UNK         0.0828 
    110 H110       22.0139  -33.1525  -42.6597 H         1 UNK         0.2931 
    111 H111       19.6130  -32.4964  -44.0197 H         1 UNK         0.0412 
    112 H112       21.9267  -34.8570  -45.0776 H         1 UNK         0.3472 
    113 H113       20.8231  -35.7488  -46.0952 H         1 UNK         0.3472 
    114 H114       18.5538  -34.2138  -42.5145 H         1 UNK         0.0970 
    115 H115       20.1302  -34.7365  -42.0064 H         1 UNK         0.0970 
    116 H116       17.6919  -32.1364  -39.6724 H         1 UNK         0.0612 
    117 H117       17.2502  -33.2435  -40.9382 H         1 UNK         0.0612 
@<TRIPOS>BOND
     1    1    2 1    
     2    1   62 1    
     3    1   63 1    
     4    1   64 1    
     5    2    3 2    
     6    2    4 am   BACKBONE|DICT|INTERRES
     7    4    5 1    
     8    4   65 1    
     9    5    6 1    
    10    5   25 1    
    11    5   66 1    
    12    6    7 1    
    13    6   67 1    
    14    6   68 1    
    15    7    8 1    
    16    8    9 1    
    17    8   69 1    
    18    8   70 1    
    19    9   10 ar   
    20    9   14 ar   
    21   10   11 ar   
    22   10   71 1    
    23   11   12 ar   
    24   11   61 1    
    25   12   13 ar   
    26   12   72 1    
    27   13   14 ar   
    28   13   15 1    
    29   14   73 1    
    30   15   16 1    
    31   15   74 1    
    32   15   75 1    
    33   16   17 1    
    34   17   18 1    
    35   17   76 1    
    36   17   77 1    
    37   18   19 1    
    38   18   27 1    
    39   18   78 1    
    40   19   20 am   BACKBONE|DICT|INTERRES
    41   19   79 1    
    42   20   21 2    
    43   20   22 1    
    44   22   23 1    
    45   22   24 1    
    46   22   80 1    
    47   23   81 1    
    48   23   82 1    
    49   23   83 1    
    50   24   25 am   BACKBONE|DICT|INTERRES
    51   24   84 1    
    52   25   26 2    
    53   27   28 2    
    54   27   29 am   BACKBONE|DICT|INTERRES
    55   29   30 1    
    56   29   85 1    
    57   30   31 1    
    58   30   32 1    
    59   30   86 1    
    60   31   87 1    
    61   31   88 1    
    62   31   89 1    
    63   32   33 2    
    64   32   34 am   BACKBONE|DICT|INTERRES
    65   34   35 1    
    66   34   90 1    
    67   35   36 1    
    68   35   37 1    
    69   35   91 1    
    70   36   92 1    
    71   36   93 1    
    72   36   94 1    
    73   37   38 2    
    74   37   39 am   BACKBONE|DICT|INTERRES
    75   39   40 1    
    76   39   95 1    
    77   40   41 1    
    78   40   42 1    
    79   40   96 1    
    80   41   97 1    
    81   41   98 1    
    82   41   99 1    
    83   42   43 2    
    84   42   44 am   BACKBONE|DICT|INTERRES
    85   44   45 1    
    86   44  100 1    
    87   45   46 1    
    88   45   47 1    
    89   45  101 1    
    90   46  102 1    
    91   46  103 1    
    92   46  104 1    
    93   47   48 2    
    94   47   49 am   BACKBONE|DICT|INTERRES
    95   49   50 1    
    96   49  105 1    
    97   50   51 1    
    98   50   52 1    
    99   50  106 1    
   100   51  107 1    
   101   51  108 1    
   102   51  109 1    
   103   52   53 2    
   104   52   54 am   BACKBONE|DICT|INTERRES
   105   54   55 1    
   106   54  110 1    
   107   55   56 1    
   108   55   59 1    
   109   55  111 1    
   110   56   57 am   BACKBONE|DICT|INTERRES
   111   56   58 2    
   112   57  112 1    
   113   57  113 1    
   114   59   60 1    
   115   59  114 1    
   116   59  115 1    
   117   60   61 1    
   118   61  116 1    
   119   61  117 1    
@<TRIPOS>SUBSTRUCTURE
     1 UNK         1 GROUP             0       ****    0 ROOT    
