@<TRIPOS>MOLECULE
3R8
117   119    1
SMALL
USER_CHARGES


@<TRIPOS>ATOM
      1 CA         17.6153  -24.4357  -45.7484 C.3       0 UNK        -0.2013 
      2 C          16.1018  -24.2531  -45.7073 C.2       0 UNK         0.4866 
      3 O          15.6273  -23.1244  -45.8207 O.2       0 UNK        -0.5176 
      4 N          15.3005  -25.3180  -45.5648 N.am      1 UNK        -0.4884 
      5 CA         15.7004  -26.7132  -45.3401 C.3       1 UNK         0.0853 
      6 C6         14.5375  -27.6614  -45.7327 C.3       10 UNK        -0.0849 
      7 S7         14.9411  -29.4406  -45.8554 S.3       10 UNK        -0.2776 
      8 C8         16.2478  -29.5019  -47.1274 C.3       10 UNK         0.0316 
      9 C9         17.6455  -29.5227  -46.5162 C.ar      10 UNK        -0.0863 
     10 C10        18.0270  -30.5774  -45.6817 C.ar      10 UNK        -0.1009 
     11 C11        19.3158  -30.6469  -45.1439 C.ar      10 UNK        -0.0712 
     12 C12        20.2327  -29.6308  -45.4511 C.ar      10 UNK        -0.0894 
     13 C13        19.8682  -28.5724  -46.2908 C.ar      10 UNK        -0.0745 
     14 C14        18.5752  -28.5244  -46.8200 C.ar      10 UNK        -0.0972 
     15 C15        20.8845  -27.5090  -46.6839 C.3       10 UNK         0.0209 
     16 S16        20.7521  -26.0125  -45.6564 S.3       10 UNK        -0.2568 
     17 C17        21.6794  -26.4928  -44.1635 C.3       10 UNK        -0.0983 
     18 CA         20.8188  -26.4616  -42.8755 C.3       3 UNK         0.0876 
     19 N          19.6554  -27.3461  -42.9745 N.am      3 UNK        -0.4424 
     20 C          18.6944  -27.4906  -42.0522 C.2       2 UNK         0.4918 
     21 O          18.6589  -26.8749  -40.9858 O.2       2 UNK        -0.4875 
     22 CA         17.5633  -28.4637  -42.4287 C.3       2 UNK         0.0481 
     23 CB         16.5438  -28.6896  -41.2922 C.3       2 UNK        -0.1831 
     24 N          16.8998  -28.0520  -43.6702 N.am      2 UNK        -0.4498 
     25 C          16.1950  -26.9317  -43.8904 C.2       1 UNK         0.5027 
     26 O          15.9413  -26.0934  -43.0219 O.2       1 UNK        -0.4969 
     27 C          21.6954  -26.8227  -41.6608 C.2       3 UNK         0.5005 
     28 O          22.3004  -27.8940  -41.6591 O.2       3 UNK        -0.5279 
     29 N          21.7894  -25.9201  -40.6742 N.am      4 UNK        -0.4463 
     30 CA         22.5706  -26.1102  -39.4434 C.3       4 UNK         0.0283 
     31 CB         22.2766  -24.9530  -38.4748 C.3       4 UNK        -0.1875 
     32 C          24.0897  -26.2501  -39.6676 C.2       4 UNK         0.4949 
     33 O          24.7792  -26.7988  -38.8082 O.2       4 UNK        -0.5039 
     34 N          24.5823  -25.7542  -40.8105 N.am      5 UNK        -0.4663 
     35 CA         25.9735  -25.8797  -41.2463 C.3       5 UNK         0.0242 
     36 CB         26.2665  -24.7829  -42.2840 C.3       5 UNK        -0.1982 
     37 C          26.3166  -27.2671  -41.8226 C.2       5 UNK         0.5017 
     38 O          27.5030  -27.5845  -41.9209 O.2       5 UNK        -0.5012 
     39 N          25.3052  -28.0569  -42.2124 N.am      6 UNK        -0.4439 
     40 CA         25.4772  -29.4060  -42.7515 C.3       6 UNK         0.0297 
     41 CB         24.3838  -29.6747  -43.7988 C.3       6 UNK        -0.2006 
     42 C          25.4250  -30.4447  -41.6211 C.2       6 UNK         0.4892 
     43 O          24.7606  -30.2228  -40.6064 O.2       6 UNK        -0.5089 
     44 N          26.1198  -31.5712  -41.8237 N.am      7 UNK        -0.4243 
     45 CA         26.1295  -32.7112  -40.9045 C.3       7 UNK         0.0196 
     46 CB         27.2660  -33.6693  -41.2963 C.3       7 UNK        -0.2007 
     47 C          24.7791  -33.4447  -40.9156 C.2       7 UNK         0.5020 
     48 O          24.1755  -33.5851  -41.9801 O.2       7 UNK        -0.5147 
     49 N          24.3350  -33.8967  -39.7348 N.am      8 UNK        -0.4734 
     50 CA         23.0893  -34.6276  -39.4345 C.3       8 UNK         0.0238 
     51 CB         23.0272  -35.9664  -40.1972 C.3       8 UNK        -0.1912 
     52 C          21.7812  -33.8291  -39.6182 C.2       8 UNK         0.5038 
     53 O          20.8066  -34.1292  -38.9271 O.2       8 UNK        -0.5046 
     54 N          21.7721  -32.8437  -40.5219 N.am      9 UNK        -0.4200 
     55 CA         20.6667  -31.9165  -40.7973 C.3       9 UNK         0.0839 
     56 C          20.2520  -31.0835  -39.5541 C.2       9 UNK         0.5513 
     57 N          18.9567  -30.9033  -39.3353 N.am      9 UNK        -0.7519 
     58 O          21.0887  -30.5747  -38.8119 O.2       9 UNK        -0.4960 
     59 C59        21.0140  -30.9804  -41.9815 C.3       10 UNK        -0.0876 
     60 S60        21.3195  -31.8946  -43.5284 S.3       10 UNK        -0.2414 
     61 C61        19.6630  -31.8730  -44.2944 C.3       10 UNK         0.0169 
     62 H62        18.1112  -23.4801  -45.9180 H         1 UNK         0.0903 
     63 H63        17.9078  -25.1030  -46.5583 H         1 UNK         0.0903 
     64 H64        17.9885  -24.8349  -44.8060 H         1 UNK         0.0903 
     65 H65        14.3058  -25.1497  -45.5131 H         1 UNK         0.3096 
     66 H66        16.5376  -26.9145  -46.0046 H         1 UNK         0.1121 
     67 H67        13.7088  -27.5521  -45.0303 H         1 UNK         0.0849 
     68 H68        14.1364  -27.3648  -46.7037 H         1 UNK         0.0849 
     69 H69        16.1158  -30.4117  -47.7149 H         1 UNK         0.0865 
     70 H70        16.1281  -28.6734  -47.8274 H         1 UNK         0.0865 
     71 H71        17.3164  -31.3645  -45.4655 H         1 UNK         0.1346 
     72 H72        21.2430  -29.6705  -45.0700 H         1 UNK         0.1412 
     73 H73        18.3051  -27.7181  -47.4889 H         1 UNK         0.1426 
     74 H74        20.7251  -27.2259  -47.7254 H         1 UNK         0.0716 
     75 H75        21.9000  -27.9056  -46.6376 H         1 UNK         0.0716 
     76 H76        22.1178  -27.4813  -44.3106 H         1 UNK         0.0695 
     77 H77        22.5219  -25.8044  -44.0723 H         1 UNK         0.0695 
     78 H78        20.4405  -25.4457  -42.7439 H         1 UNK         0.0983 
     79 H79        19.5897  -27.8774  -43.8308 H         1 UNK         0.3095 
     80 H80        18.0317  -29.4260  -42.6371 H         1 UNK         0.0454 
     81 H81        16.0378  -27.7685  -41.0029 H         1 UNK         0.0851 
     82 H82        15.7825  -29.4139  -41.5811 H         1 UNK         0.0851 
     83 H83        17.0370  -29.0743  -40.3997 H         1 UNK         0.0851 
     84 H84        17.0196  -28.6870  -44.4505 H         1 UNK         0.2976 
     85 H85        21.2527  -25.0665  -40.7396 H         1 UNK         0.3116 
     86 H86        22.2294  -27.0384  -38.9794 H         1 UNK         0.0646 
     87 H87        22.8185  -25.0820  -37.5367 H         1 UNK         0.0847 
     88 H88        21.2162  -24.9003  -38.2275 H         1 UNK         0.0847 
     89 H89        22.5748  -23.9905  -38.8924 H         1 UNK         0.0847 
     90 H90        23.9432  -25.3008  -41.4466 H         1 UNK         0.3040 
     91 H91        26.6250  -25.7178  -40.3844 H         1 UNK         0.1015 
     92 H92        26.0949  -23.7888  -41.8707 H         1 UNK         0.0786 
     93 H93        25.6440  -24.8907  -43.1733 H         1 UNK         0.0786 
     94 H94        27.3073  -24.8205  -42.6089 H         1 UNK         0.0786 
     95 H95        24.3522  -27.7897  -41.9867 H         1 UNK         0.3172 
     96 H96        26.4457  -29.4830  -43.2506 H         1 UNK         0.0595 
     97 H97        24.4678  -30.6827  -44.2073 H         1 UNK         0.0839 
     98 H98        24.4556  -28.9782  -44.6342 H         1 UNK         0.0839 
     99 H99        23.3856  -29.5816  -43.3743 H         1 UNK         0.0839 
    100 H100       26.6049  -31.6945  -42.7007 H         1 UNK         0.2998 
    101 H101       26.3232  -32.3346  -39.8975 H         1 UNK         0.0822 
    102 H102       27.1276  -34.0699  -42.3016 H         1 UNK         0.0787 
    103 H103       28.2355  -33.1717  -41.2627 H         1 UNK         0.0787 
    104 H104       27.3144  -34.5177  -40.6122 H         1 UNK         0.0787 
    105 H105       24.9049  -33.6971  -38.9232 H         1 UNK         0.3055 
    106 H106       23.1424  -34.8651  -38.3704 H         1 UNK         0.1106 
    107 H107       22.9346  -35.8202  -41.2737 H         1 UNK         0.0828 
    108 H108       23.9165  -36.5696  -40.0150 H         1 UNK         0.0828 
    109 H109       22.1661  -36.5553  -39.8782 H         1 UNK         0.0828 
    110 H110       22.6033  -32.7262  -41.0895 H         1 UNK         0.2931 
    111 H111       19.8124  -32.5300  -41.0907 H         1 UNK         0.0412 
    112 H112       18.2627  -31.3381  -39.9225 H         1 UNK         0.3472 
    113 H113       18.6690  -30.3603  -38.5363 H         1 UNK         0.3472 
    114 H114       21.9132  -30.4118  -41.7420 H         1 UNK         0.0970 
    115 H115       20.2285  -30.2439  -42.1515 H         1 UNK         0.0970 
    116 H116       19.5903  -32.7534  -44.9342 H         1 UNK         0.0612 
    117 H117       18.9104  -32.0011  -43.5149 H         1 UNK         0.0612 
@<TRIPOS>BOND
     1    1    2 1    
     2    1   62 1    
     3    1   63 1    
     4    1   64 1    
     5    2    3 2    
     6    2    4 am   BACKBONE|DICT|INTERRES
     7    4    5 1    
     8    4   65 1    
     9    5    6 1    
    10    5   25 1    
    11    5   66 1    
    12    6    7 1    
    13    6   67 1    
    14    6   68 1    
    15    7    8 1    
    16    8    9 1    
    17    8   69 1    
    18    8   70 1    
    19    9   10 ar   
    20    9   14 ar   
    21   10   11 ar   
    22   10   71 1    
    23   11   12 ar   
    24   11   61 1    
    25   12   13 ar   
    26   12   72 1    
    27   13   14 ar   
    28   13   15 1    
    29   14   73 1    
    30   15   16 1    
    31   15   74 1    
    32   15   75 1    
    33   16   17 1    
    34   17   18 1    
    35   17   76 1    
    36   17   77 1    
    37   18   19 1    
    38   18   27 1    
    39   18   78 1    
    40   19   20 am   BACKBONE|DICT|INTERRES
    41   19   79 1    
    42   20   21 2    
    43   20   22 1    
    44   22   23 1    
    45   22   24 1    
    46   22   80 1    
    47   23   81 1    
    48   23   82 1    
    49   23   83 1    
    50   24   25 am   BACKBONE|DICT|INTERRES
    51   24   84 1    
    52   25   26 2    
    53   27   28 2    
    54   27   29 am   BACKBONE|DICT|INTERRES
    55   29   30 1    
    56   29   85 1    
    57   30   31 1    
    58   30   32 1    
    59   30   86 1    
    60   31   87 1    
    61   31   88 1    
    62   31   89 1    
    63   32   33 2    
    64   32   34 am   BACKBONE|DICT|INTERRES
    65   34   35 1    
    66   34   90 1    
    67   35   36 1    
    68   35   37 1    
    69   35   91 1    
    70   36   92 1    
    71   36   93 1    
    72   36   94 1    
    73   37   38 2    
    74   37   39 am   BACKBONE|DICT|INTERRES
    75   39   40 1    
    76   39   95 1    
    77   40   41 1    
    78   40   42 1    
    79   40   96 1    
    80   41   97 1    
    81   41   98 1    
    82   41   99 1    
    83   42   43 2    
    84   42   44 am   BACKBONE|DICT|INTERRES
    85   44   45 1    
    86   44  100 1    
    87   45   46 1    
    88   45   47 1    
    89   45  101 1    
    90   46  102 1    
    91   46  103 1    
    92   46  104 1    
    93   47   48 2    
    94   47   49 am   BACKBONE|DICT|INTERRES
    95   49   50 1    
    96   49  105 1    
    97   50   51 1    
    98   50   52 1    
    99   50  106 1    
   100   51  107 1    
   101   51  108 1    
   102   51  109 1    
   103   52   53 2    
   104   52   54 am   BACKBONE|DICT|INTERRES
   105   54   55 1    
   106   54  110 1    
   107   55   56 1    
   108   55   59 1    
   109   55  111 1    
   110   56   57 am   BACKBONE|DICT|INTERRES
   111   56   58 2    
   112   57  112 1    
   113   57  113 1    
   114   59   60 1    
   115   59  114 1    
   116   59  115 1    
   117   60   61 1    
   118   61  116 1    
   119   61  117 1    
@<TRIPOS>SUBSTRUCTURE
     1 UNK         1 GROUP             0       ****    0 ROOT    
