@<TRIPOS>MOLECULE
3R8
117   119    1
SMALL
USER_CHARGES


@<TRIPOS>ATOM
      1 CA         21.5852  -27.2331  -48.3445 C.3       0 UNK        -0.2013 
      2 C          20.4074  -27.5993  -47.4543 C.2       0 UNK         0.4866 
      3 O          20.1789  -28.7812  -47.2044 O.2       0 UNK        -0.5176 
      4 N          19.6647  -26.5930  -46.9782 N.am      1 UNK        -0.4884 
      5 CA         18.4913  -26.7419  -46.1057 C.3       1 UNK         0.0853 
      6 C6         17.1857  -26.7633  -46.9510 C.3       10 UNK        -0.0849 
      7 S7         15.6820  -27.3682  -46.1058 S.3       10 UNK        -0.2776 
      8 C8         15.8741  -29.1835  -46.1587 C.3       10 UNK         0.0316 
      9 C9         16.8543  -29.6934  -45.1088 C.ar      10 UNK        -0.0863 
     10 C10        17.9226  -30.5160  -45.4772 C.ar      10 UNK        -0.1009 
     11 C11        18.8432  -30.9594  -44.5225 C.ar      10 UNK        -0.0712 
     12 C12        18.6992  -30.5497  -43.1909 C.ar      10 UNK        -0.0894 
     13 C13        17.6248  -29.7430  -42.8018 C.ar      10 UNK        -0.0745 
     14 C14        16.6963  -29.3385  -43.7659 C.ar      10 UNK        -0.0972 
     15 C15        17.4532  -29.3398  -41.3397 C.3       10 UNK         0.0209 
     16 S16        17.0768  -27.5627  -41.1381 S.3       10 UNK        -0.2568 
     17 C17        18.3475  -27.0362  -39.9445 C.3       10 UNK        -0.0983 
     18 CA         19.6757  -26.6592  -40.6398 C.3       3 UNK         0.0876 
     19 N          19.5031  -25.5978  -41.6462 N.am      3 UNK        -0.4424 
     20 C          20.4571  -25.0777  -42.4300 C.2       2 UNK         0.4918 
     21 O          21.6594  -25.3199  -42.3058 O.2       2 UNK        -0.4875 
     22 CA         19.9802  -24.2058  -43.5984 C.3       2 UNK         0.0481 
     23 CB         21.0408  -23.1702  -44.0134 C.3       2 UNK        -0.1831 
     24 N          19.6982  -25.0852  -44.7321 N.am      2 UNK        -0.4498 
     25 C          18.5253  -25.6962  -44.9629 C.2       1 UNK         0.5027 
     26 O          17.5188  -25.4671  -44.2925 O.2       1 UNK        -0.4969 
     27 C          20.7790  -26.4116  -39.5923 C.2       3 UNK         0.5005 
     28 O          21.3409  -27.3851  -39.0932 O.2       3 UNK        -0.5279 
     29 N          21.1208  -25.1423  -39.3229 N.am      4 UNK        -0.4463 
     30 CA         22.2557  -24.7345  -38.4845 C.3       4 UNK         0.0283 
     31 CB         22.3089  -23.2000  -38.4148 C.3       4 UNK        -0.1875 
     32 C          23.6158  -25.2976  -38.9491 C.2       4 UNK         0.4949 
     33 O          24.4910  -25.5129  -38.1101 O.2       4 UNK        -0.5039 
     34 N          23.7551  -25.5460  -40.2584 N.am      5 UNK        -0.4663 
     35 CA         24.8848  -26.2533  -40.8621 C.3       5 UNK         0.0242 
     36 CB         25.5415  -25.3468  -41.9163 C.3       5 UNK        -0.1982 
     37 C          24.4398  -27.5789  -41.5013 C.2       5 UNK         0.5017 
     38 O          25.1686  -28.5669  -41.4063 O.2       5 UNK        -0.5012 
     39 N          23.2675  -27.5817  -42.1543 N.am      6 UNK        -0.4439 
     40 CA         22.7746  -28.6867  -42.9796 C.3       6 UNK         0.0297 
     41 CB         21.6302  -28.1970  -43.8830 C.3       6 UNK        -0.2006 
     42 C          22.3545  -29.9476  -42.2081 C.2       6 UNK         0.4892 
     43 O          22.3099  -31.0074  -42.8277 O.2       6 UNK        -0.5089 
     44 N          22.0882  -29.8568  -40.8926 N.am      7 UNK        -0.4243 
     45 CA         21.6726  -30.9861  -40.0376 C.3       7 UNK         0.0196 
     46 CB         21.4039  -30.4915  -38.6080 C.3       7 UNK        -0.2007 
     47 C          22.6304  -32.1961  -40.0170 C.2       7 UNK         0.5020 
     48 O          22.2141  -33.2882  -39.6277 O.2       7 UNK        -0.5147 
     49 N          23.8691  -32.0063  -40.4924 N.am      8 UNK        -0.4734 
     50 CA         24.8429  -33.0559  -40.8008 C.3       8 UNK         0.0238 
     51 CB         26.1470  -32.3941  -41.2753 C.3       8 UNK        -0.1912 
     52 C          24.3616  -34.1002  -41.8326 C.2       8 UNK         0.5038 
     53 O          24.9470  -35.1834  -41.8790 O.2       8 UNK        -0.5046 
     54 N          23.3156  -33.7914  -42.6191 N.am      9 UNK        -0.4200 
     55 CA         22.6222  -34.7603  -43.4857 C.3       9 UNK         0.0839 
     56 C          21.8823  -35.9077  -42.7305 C.2       9 UNK         0.5513 
     57 N          21.6265  -35.7972  -41.4307 N.am      9 UNK        -0.7519 
     58 O          21.5467  -36.9216  -43.3376 O.2       9 UNK        -0.4960 
     59 C59        21.7158  -34.0716  -44.5455 C.3       10 UNK        -0.0876 
     60 S60        20.1840  -33.3236  -43.8801 S.3       10 UNK        -0.2414 
     61 C61        20.0046  -31.8541  -44.9460 C.3       10 UNK         0.0169 
     62 H62        21.4752  -27.7019  -49.3220 H         1 UNK         0.0903 
     63 H63        21.6693  -26.1566  -48.4924 H         1 UNK         0.0903 
     64 H64        22.5144  -27.5881  -47.8994 H         1 UNK         0.0903 
     65 H65        19.8779  -25.6444  -47.2576 H         1 UNK         0.3096 
     66 H66        18.5759  -27.6980  -45.5882 H         1 UNK         0.1121 
     67 H67        17.3305  -27.3902  -47.8324 H         1 UNK         0.0849 
     68 H68        16.9779  -25.7641  -47.3375 H         1 UNK         0.0849 
     69 H69        14.9021  -29.6437  -45.9761 H         1 UNK         0.0865 
     70 H70        16.1741  -29.4882  -47.1626 H         1 UNK         0.0865 
     71 H71        18.0487  -30.7998  -46.5132 H         1 UNK         0.1346 
     72 H72        19.4207  -30.8786  -42.4566 H         1 UNK         0.1412 
     73 H73        15.8602  -28.7167  -43.4759 H         1 UNK         0.1426 
     74 H74        18.3488  -29.5971  -40.7720 H         1 UNK         0.0716 
     75 H75        16.6386  -29.9220  -40.9074 H         1 UNK         0.0716 
     76 H76        17.9562  -26.1832  -39.3869 H         1 UNK         0.0695 
     77 H77        18.4939  -27.8340  -39.2130 H         1 UNK         0.0695 
     78 H78        20.0039  -27.5409  -41.1915 H         1 UNK         0.0983 
     79 H79        18.5416  -25.3752  -41.8681 H         1 UNK         0.3095 
     80 H80        19.0795  -23.6671  -43.2966 H         1 UNK         0.0454 
     81 H81        21.2959  -22.5184  -43.1769 H         1 UNK         0.0851 
     82 H82        21.9649  -23.6409  -44.3518 H         1 UNK         0.0851 
     83 H83        20.6765  -22.5338  -44.8197 H         1 UNK         0.0851 
     84 H84        20.4947  -25.3666  -45.2847 H         1 UNK         0.2976 
     85 H85        20.6073  -24.4054  -39.7842 H         1 UNK         0.3116 
     86 H86        22.0717  -25.1183  -37.4790 H         1 UNK         0.0646 
     87 H87        23.1291  -22.8672  -37.7769 H         1 UNK         0.0847 
     88 H88        21.3902  -22.7875  -37.9974 H         1 UNK         0.0847 
     89 H89        22.4623  -22.7560  -39.3992 H         1 UNK         0.0847 
     90 H90        22.9766  -25.3257  -40.8714 H         1 UNK         0.3040 
     91 H91        25.6348  -26.4964  -40.1060 H         1 UNK         0.1015 
     92 H92        25.9253  -24.4319  -41.4645 H         1 UNK         0.0786 
     93 H93        24.8389  -25.0626  -42.7010 H         1 UNK         0.0786 
     94 H94        26.3830  -25.8495  -42.3952 H         1 UNK         0.0786 
     95 H95        22.7315  -26.7178  -42.2009 H         1 UNK         0.3172 
     96 H96        23.5969  -28.9837  -43.6342 H         1 UNK         0.0595 
     97 H97        21.9214  -27.3155  -44.4536 H         1 UNK         0.0839 
     98 H98        20.7314  -27.9556  -43.3183 H         1 UNK         0.0839 
     99 H99        21.3516  -28.9645  -44.6053 H         1 UNK         0.0839 
    100 H100       22.1597  -28.9538  -40.4385 H         1 UNK         0.2998 
    101 H101       20.7301  -31.3595  -40.4422 H         1 UNK         0.0822 
    102 H102       20.5507  -29.8142  -38.5801 H         1 UNK         0.0787 
    103 H103       21.1693  -31.3201  -37.9382 H         1 UNK         0.0787 
    104 H104       22.2665  -29.9689  -38.1931 H         1 UNK         0.0787 
    105 H105       24.1104  -31.0715  -40.7926 H         1 UNK         0.3055 
    106 H106       25.0452  -33.5968  -39.8739 H         1 UNK         0.1106 
    107 H107       25.9951  -31.8141  -42.1867 H         1 UNK         0.0828 
    108 H108       26.5529  -31.7249  -40.5163 H         1 UNK         0.0828 
    109 H109       26.9122  -33.1422  -41.4876 H         1 UNK         0.0828 
    110 H110       22.8980  -32.8670  -42.5551 H         1 UNK         0.2931 
    111 H111       23.4111  -35.2592  -44.0523 H         1 UNK         0.0412 
    112 H112       21.1518  -36.5483  -40.9557 H         1 UNK         0.3472 
    113 H113       21.8825  -34.9597  -40.9217 H         1 UNK         0.3472 
    114 H114       21.4276  -34.7942  -45.3110 H         1 UNK         0.0970 
    115 H115       22.2919  -33.3071  -45.0689 H         1 UNK         0.0970 
    116 H116       19.8694  -32.1943  -45.9738 H         1 UNK         0.0612 
    117 H117       20.9234  -31.2703  -44.9388 H         1 UNK         0.0612 
@<TRIPOS>BOND
     1    1    2 1    
     2    1   62 1    
     3    1   63 1    
     4    1   64 1    
     5    2    3 2    
     6    2    4 am   BACKBONE|DICT|INTERRES
     7    4    5 1    
     8    4   65 1    
     9    5    6 1    
    10    5   25 1    
    11    5   66 1    
    12    6    7 1    
    13    6   67 1    
    14    6   68 1    
    15    7    8 1    
    16    8    9 1    
    17    8   69 1    
    18    8   70 1    
    19    9   10 ar   
    20    9   14 ar   
    21   10   11 ar   
    22   10   71 1    
    23   11   12 ar   
    24   11   61 1    
    25   12   13 ar   
    26   12   72 1    
    27   13   14 ar   
    28   13   15 1    
    29   14   73 1    
    30   15   16 1    
    31   15   74 1    
    32   15   75 1    
    33   16   17 1    
    34   17   18 1    
    35   17   76 1    
    36   17   77 1    
    37   18   19 1    
    38   18   27 1    
    39   18   78 1    
    40   19   20 am   BACKBONE|DICT|INTERRES
    41   19   79 1    
    42   20   21 2    
    43   20   22 1    
    44   22   23 1    
    45   22   24 1    
    46   22   80 1    
    47   23   81 1    
    48   23   82 1    
    49   23   83 1    
    50   24   25 am   BACKBONE|DICT|INTERRES
    51   24   84 1    
    52   25   26 2    
    53   27   28 2    
    54   27   29 am   BACKBONE|DICT|INTERRES
    55   29   30 1    
    56   29   85 1    
    57   30   31 1    
    58   30   32 1    
    59   30   86 1    
    60   31   87 1    
    61   31   88 1    
    62   31   89 1    
    63   32   33 2    
    64   32   34 am   BACKBONE|DICT|INTERRES
    65   34   35 1    
    66   34   90 1    
    67   35   36 1    
    68   35   37 1    
    69   35   91 1    
    70   36   92 1    
    71   36   93 1    
    72   36   94 1    
    73   37   38 2    
    74   37   39 am   BACKBONE|DICT|INTERRES
    75   39   40 1    
    76   39   95 1    
    77   40   41 1    
    78   40   42 1    
    79   40   96 1    
    80   41   97 1    
    81   41   98 1    
    82   41   99 1    
    83   42   43 2    
    84   42   44 am   BACKBONE|DICT|INTERRES
    85   44   45 1    
    86   44  100 1    
    87   45   46 1    
    88   45   47 1    
    89   45  101 1    
    90   46  102 1    
    91   46  103 1    
    92   46  104 1    
    93   47   48 2    
    94   47   49 am   BACKBONE|DICT|INTERRES
    95   49   50 1    
    96   49  105 1    
    97   50   51 1    
    98   50   52 1    
    99   50  106 1    
   100   51  107 1    
   101   51  108 1    
   102   51  109 1    
   103   52   53 2    
   104   52   54 am   BACKBONE|DICT|INTERRES
   105   54   55 1    
   106   54  110 1    
   107   55   56 1    
   108   55   59 1    
   109   55  111 1    
   110   56   57 am   BACKBONE|DICT|INTERRES
   111   56   58 2    
   112   57  112 1    
   113   57  113 1    
   114   59   60 1    
   115   59  114 1    
   116   59  115 1    
   117   60   61 1    
   118   61  116 1    
   119   61  117 1    
@<TRIPOS>SUBSTRUCTURE
     1 UNK         1 GROUP             0       ****    0 ROOT    
