@<TRIPOS>MOLECULE
3R8
117   119    1
SMALL
USER_CHARGES


@<TRIPOS>ATOM
      1 CA         11.5724  -26.1731  -44.2061 C.3       0 UNK        -0.2013 
      2 C          13.0717  -26.0008  -44.3985 C.2       0 UNK         0.4866 
      3 O          13.7027  -25.2521  -43.6517 O.2       0 UNK        -0.5176 
      4 N          13.6460  -26.6810  -45.3987 N.am      1 UNK        -0.4884 
      5 CA         15.0841  -26.6911  -45.6815 C.3       1 UNK         0.0853 
      6 C6         15.3634  -27.2154  -47.1104 C.3       10 UNK        -0.0849 
      7 S7         17.0004  -26.7097  -47.7392 S.3       10 UNK        -0.2776 
      8 C8         17.7827  -28.3080  -48.1372 C.3       10 UNK         0.0316 
      9 C9         18.7726  -28.7538  -47.0694 C.ar      10 UNK        -0.0863 
     10 C10        18.4653  -29.8009  -46.1917 C.ar      10 UNK        -0.1009 
     11 C11        19.4182  -30.2556  -45.2716 C.ar      10 UNK        -0.0712 
     12 C12        20.6806  -29.6577  -45.2408 C.ar      10 UNK        -0.0894 
     13 C13        20.9833  -28.5848  -46.0790 C.ar      10 UNK        -0.0745 
     14 C14        20.0281  -28.1417  -46.9969 C.ar      10 UNK        -0.0972 
     15 C15        22.3444  -27.9135  -45.9984 C.3       10 UNK         0.0209 
     16 S16        22.3516  -26.5452  -44.7956 S.3       10 UNK        -0.2568 
     17 C17        22.5411  -27.4139  -43.2016 C.3       10 UNK        -0.0983 
     18 CA         21.4403  -27.0483  -42.1668 C.3       3 UNK         0.0876 
     19 N          20.1278  -27.5699  -42.5372 N.am      3 UNK        -0.4424 
     20 C          19.0945  -26.8625  -42.9955 C.2       2 UNK         0.4918 
     21 O          19.1361  -25.6643  -43.2877 O.2       2 UNK        -0.4875 
     22 CA         17.7673  -27.6216  -43.0842 C.3       2 UNK         0.0481 
     23 CB         17.0935  -27.7099  -41.7007 C.3       2 UNK        -0.1831 
     24 N          16.8924  -26.9638  -44.0463 N.am      2 UNK        -0.4498 
     25 C          15.8252  -27.5273  -44.6208 C.2       1 UNK         0.5027 
     26 O          15.4203  -28.6643  -44.3620 O.2       1 UNK        -0.4969 
     27 C          21.7825  -27.6072  -40.7700 C.2       3 UNK         0.5005 
     28 O          21.0330  -28.4256  -40.2232 O.2       3 UNK        -0.5279 
     29 N          22.9204  -27.1593  -40.2255 N.am      4 UNK        -0.4463 
     30 CA         23.5246  -27.6915  -39.0038 C.3       4 UNK         0.0283 
     31 CB         23.4415  -26.6502  -37.8745 C.3       4 UNK        -0.1875 
     32 C          24.9762  -28.1169  -39.2641 C.2       4 UNK         0.4949 
     33 O          25.3446  -29.2403  -38.9243 O.2       4 UNK        -0.5039 
     34 N          25.7783  -27.2177  -39.8556 N.am      5 UNK        -0.4663 
     35 CA         27.2058  -27.4413  -40.1072 C.3       5 UNK         0.0242 
     36 CB         27.9118  -26.0879  -40.2946 C.3       5 UNK        -0.1982 
     37 C          27.4777  -28.3644  -41.3061 C.2       5 UNK         0.5017 
     38 O          28.3419  -29.2362  -41.2098 O.2       5 UNK        -0.5012 
     39 N          26.7539  -28.1456  -42.4142 N.am      6 UNK        -0.4439 
     40 CA         26.9102  -28.8974  -43.6660 C.3       6 UNK         0.0297 
     41 CB         26.2131  -28.1447  -44.8104 C.3       6 UNK        -0.2006 
     42 C          26.3916  -30.3424  -43.5679 C.2       6 UNK         0.4892 
     43 O          27.0132  -31.2528  -44.1166 O.2       6 UNK        -0.5089 
     44 N          25.2782  -30.5180  -42.8524 N.am      7 UNK        -0.4243 
     45 CA         24.6579  -31.7870  -42.4981 C.3       7 UNK         0.0196 
     46 CB         23.8554  -32.3573  -43.6820 C.3       7 UNK        -0.2007 
     47 C          23.7484  -31.4771  -41.3113 C.2       7 UNK         0.5020 
     48 O          23.0126  -30.4931  -41.3747 O.2       7 UNK        -0.5147 
     49 N          23.8070  -32.2915  -40.2535 N.am      8 UNK        -0.4734 
     50 CA         23.1183  -32.0453  -38.9807 C.3       8 UNK         0.0238 
     51 CB         23.9248  -32.7046  -37.8454 C.3       8 UNK        -0.1912 
     52 C          21.6396  -32.4826  -38.9935 C.2       8 UNK         0.5038 
     53 O          21.1986  -33.1719  -38.0711 O.2       8 UNK        -0.5046 
     54 N          20.9024  -32.0957  -40.0402 N.am      9 UNK        -0.4200 
     55 CA         19.4641  -32.3623  -40.1890 C.3       9 UNK         0.0839 
     56 C          18.5551  -31.4168  -39.3523 C.2       9 UNK         0.5513 
     57 N          18.9956  -30.2168  -38.9908 N.am      9 UNK        -0.7519 
     58 O          17.4354  -31.7897  -39.0114 O.2       9 UNK        -0.4960 
     59 C59        19.0363  -32.4240  -41.6778 C.3       10 UNK        -0.0876 
     60 S60        19.4020  -30.8880  -42.5819 S.3       10 UNK        -0.2414 
     61 C61        19.1016  -31.3904  -44.3060 C.3       10 UNK         0.0169 
     62 H62        11.3654  -26.5734  -43.2139 H         1 UNK         0.0903 
     63 H63        11.0693  -25.2107  -44.2970 H         1 UNK         0.0903 
     64 H64        11.1412  -26.8515  -44.9420 H         1 UNK         0.0903 
     65 H65        13.0844  -27.3084  -45.9570 H         1 UNK         0.3096 
     66 H66        15.4321  -25.6568  -45.6208 H         1 UNK         0.1121 
     67 H67        14.6297  -26.8010  -47.8040 H         1 UNK         0.0849 
     68 H68        15.2364  -28.2983  -47.1641 H         1 UNK         0.0849 
     69 H69        17.0301  -29.0769  -48.3165 H         1 UNK         0.0865 
     70 H70        18.3155  -28.1994  -49.0832 H         1 UNK         0.0865 
     71 H71        17.4906  -30.2679  -46.2319 H         1 UNK         0.1346 
     72 H72        21.4182  -30.0149  -44.5371 H         1 UNK         0.1412 
     73 H73        20.2637  -27.3223  -47.6626 H         1 UNK         0.1426 
     74 H74        22.6175  -27.5173  -46.9775 H         1 UNK         0.0716 
     75 H75        23.1143  -28.6429  -45.7434 H         1 UNK         0.0716 
     76 H76        23.5298  -27.1404  -42.8321 H         1 UNK         0.0695 
     77 H77        22.5769  -28.4924  -43.3559 H         1 UNK         0.0695 
     78 H78        21.3881  -25.9618  -42.0667 H         1 UNK         0.0983 
     79 H79        19.9766  -28.5313  -42.2559 H         1 UNK         0.3095 
     80 H80        17.9709  -28.6256  -43.4525 H         1 UNK         0.0454 
     81 H81        16.8390  -26.7222  -41.3149 H         1 UNK         0.0851 
     82 H82        17.7530  -28.1865  -40.9738 H         1 UNK         0.0851 
     83 H83        16.1796  -28.3025  -41.7357 H         1 UNK         0.0851 
     84 H84        17.1982  -26.0388  -44.3228 H         1 UNK         0.2976 
     85 H85        23.4611  -26.4804  -40.7397 H         1 UNK         0.3116 
     86 H86        22.9871  -28.5831  -38.6748 H         1 UNK         0.0646 
     87 H87        23.9405  -25.7171  -38.1377 H         1 UNK         0.0847 
     88 H88        23.9086  -27.0255  -36.9630 H         1 UNK         0.0847 
     89 H89        22.4046  -26.4165  -37.6329 H         1 UNK         0.0847 
     90 H90        25.4260  -26.2935  -40.0536 H         1 UNK         0.3040 
     91 H91        27.6377  -27.9212  -39.2252 H         1 UNK         0.1015 
     92 H92        27.5138  -25.5332  -41.1452 H         1 UNK         0.0786 
     93 H93        28.9801  -26.2266  -40.4680 H         1 UNK         0.0786 
     94 H94        27.8097  -25.4617  -39.4079 H         1 UNK         0.0786 
     95 H95        26.0838  -27.3918  -42.4070 H         1 UNK         0.3172 
     96 H96        27.9762  -28.9467  -43.8990 H         1 UNK         0.0595 
     97 H97        26.3132  -28.6861  -45.7523 H         1 UNK         0.0839 
     98 H98        26.6483  -27.1564  -44.9595 H         1 UNK         0.0839 
     99 H99        25.1483  -28.0165  -44.6206 H         1 UNK         0.0839 
    100 H100       24.8389  -29.7175  -42.4170 H         1 UNK         0.2998 
    101 H101       25.4323  -32.4952  -42.1959 H         1 UNK         0.0822 
    102 H102       23.3653  -33.2916  -43.4058 H         1 UNK         0.0787 
    103 H103       23.0789  -31.6663  -44.0113 H         1 UNK         0.0787 
    104 H104       24.4991  -32.5682  -44.5360 H         1 UNK         0.0787 
    105 H105       24.4030  -33.1062  -40.2927 H         1 UNK         0.3055 
    106 H106       23.1144  -30.9700  -38.7907 H         1 UNK         0.1106 
    107 H107       23.4814  -32.4894  -36.8723 H         1 UNK         0.0828 
    108 H108       23.9652  -33.7890  -37.9544 H         1 UNK         0.0828 
    109 H109       24.9480  -32.3287  -37.8187 H         1 UNK         0.0828 
    110 H110       21.3279  -31.4864  -40.7314 H         1 UNK         0.2931 
    111 H111       19.2839  -33.3630  -39.7906 H         1 UNK         0.0412 
    112 H112       19.8740  -29.8514  -39.3440 H         1 UNK         0.3472 
    113 H113       18.3992  -29.6237  -38.4373 H         1 UNK         0.3472 
    114 H114       17.9710  -32.6455  -41.7669 H         1 UNK         0.0970 
    115 H115       19.5558  -33.2475  -42.1701 H         1 UNK         0.0970 
    116 H116       18.0630  -31.7090  -44.4072 H         1 UNK         0.0612 
    117 H117       19.7264  -32.2509  -44.5487 H         1 UNK         0.0612 
@<TRIPOS>BOND
     1    1    2 1    
     2    1   62 1    
     3    1   63 1    
     4    1   64 1    
     5    2    3 2    
     6    2    4 am   BACKBONE|DICT|INTERRES
     7    4    5 1    
     8    4   65 1    
     9    5    6 1    
    10    5   25 1    
    11    5   66 1    
    12    6    7 1    
    13    6   67 1    
    14    6   68 1    
    15    7    8 1    
    16    8    9 1    
    17    8   69 1    
    18    8   70 1    
    19    9   10 ar   
    20    9   14 ar   
    21   10   11 ar   
    22   10   71 1    
    23   11   12 ar   
    24   11   61 1    
    25   12   13 ar   
    26   12   72 1    
    27   13   14 ar   
    28   13   15 1    
    29   14   73 1    
    30   15   16 1    
    31   15   74 1    
    32   15   75 1    
    33   16   17 1    
    34   17   18 1    
    35   17   76 1    
    36   17   77 1    
    37   18   19 1    
    38   18   27 1    
    39   18   78 1    
    40   19   20 am   BACKBONE|DICT|INTERRES
    41   19   79 1    
    42   20   21 2    
    43   20   22 1    
    44   22   23 1    
    45   22   24 1    
    46   22   80 1    
    47   23   81 1    
    48   23   82 1    
    49   23   83 1    
    50   24   25 am   BACKBONE|DICT|INTERRES
    51   24   84 1    
    52   25   26 2    
    53   27   28 2    
    54   27   29 am   BACKBONE|DICT|INTERRES
    55   29   30 1    
    56   29   85 1    
    57   30   31 1    
    58   30   32 1    
    59   30   86 1    
    60   31   87 1    
    61   31   88 1    
    62   31   89 1    
    63   32   33 2    
    64   32   34 am   BACKBONE|DICT|INTERRES
    65   34   35 1    
    66   34   90 1    
    67   35   36 1    
    68   35   37 1    
    69   35   91 1    
    70   36   92 1    
    71   36   93 1    
    72   36   94 1    
    73   37   38 2    
    74   37   39 am   BACKBONE|DICT|INTERRES
    75   39   40 1    
    76   39   95 1    
    77   40   41 1    
    78   40   42 1    
    79   40   96 1    
    80   41   97 1    
    81   41   98 1    
    82   41   99 1    
    83   42   43 2    
    84   42   44 am   BACKBONE|DICT|INTERRES
    85   44   45 1    
    86   44  100 1    
    87   45   46 1    
    88   45   47 1    
    89   45  101 1    
    90   46  102 1    
    91   46  103 1    
    92   46  104 1    
    93   47   48 2    
    94   47   49 am   BACKBONE|DICT|INTERRES
    95   49   50 1    
    96   49  105 1    
    97   50   51 1    
    98   50   52 1    
    99   50  106 1    
   100   51  107 1    
   101   51  108 1    
   102   51  109 1    
   103   52   53 2    
   104   52   54 am   BACKBONE|DICT|INTERRES
   105   54   55 1    
   106   54  110 1    
   107   55   56 1    
   108   55   59 1    
   109   55  111 1    
   110   56   57 am   BACKBONE|DICT|INTERRES
   111   56   58 2    
   112   57  112 1    
   113   57  113 1    
   114   59   60 1    
   115   59  114 1    
   116   59  115 1    
   117   60   61 1    
   118   61  116 1    
   119   61  117 1    
@<TRIPOS>SUBSTRUCTURE
     1 UNK         1 GROUP             0       ****    0 ROOT    
