@<TRIPOS>MOLECULE
3R8
117   119    1
SMALL
USER_CHARGES


@<TRIPOS>ATOM
      1 CA         13.8720  -27.3907  -40.9438 C.3       0 UNK        -0.2013 
      2 C          14.2765  -27.4226  -42.4101 C.2       0 UNK         0.4866 
      3 O          13.5620  -27.9991  -43.2306 O.2       0 UNK        -0.5176 
      4 N          15.4134  -26.8062  -42.7459 N.am      1 UNK        -0.4884 
      5 CA         15.9559  -26.6894  -44.0984 C.3       1 UNK         0.0853 
      6 C6         16.6123  -28.0072  -44.5889 C.3       10 UNK        -0.0849 
      7 S7         16.6153  -28.1576  -46.4103 S.3       10 UNK        -0.2776 
      8 C8         17.1405  -29.8898  -46.6288 C.3       10 UNK         0.0316 
      9 C9         18.4823  -30.1449  -45.9609 C.ar      10 UNK        -0.0863 
     10 C10        18.5394  -30.7943  -44.7255 C.ar      10 UNK        -0.1009 
     11 C11        19.7575  -30.9460  -44.0586 C.ar      10 UNK        -0.0712 
     12 C12        20.9314  -30.4643  -44.6466 C.ar      10 UNK        -0.0894 
     13 C13        20.8845  -29.8186  -45.8883 C.ar      10 UNK        -0.0745 
     14 C14        19.6600  -29.6765  -46.5471 C.ar      10 UNK        -0.0972 
     15 C15        22.1440  -29.2227  -46.5006 C.3       10 UNK         0.0209 
     16 S16        22.0861  -27.3993  -46.5171 S.3       10 UNK        -0.2568 
     17 C17        22.1096  -27.0503  -44.7294 C.3       10 UNK        -0.0983 
     18 CA         21.6039  -25.6379  -44.3561 C.3       3 UNK         0.0876 
     19 N          20.2518  -25.3702  -44.8556 N.am      3 UNK        -0.4424 
     20 C          19.7316  -24.1425  -44.9821 C.2       2 UNK         0.4918 
     21 O          20.3352  -23.1119  -44.6797 O.2       2 UNK        -0.4875 
     22 CA         18.3168  -24.0246  -45.5777 C.3       2 UNK         0.0481 
     23 CB         18.3998  -23.7928  -47.0951 C.3       2 UNK        -0.1831 
     24 N          17.4512  -25.1773  -45.3173 N.am      2 UNK        -0.4498 
     25 C          16.9199  -25.4861  -44.1278 C.2       1 UNK         0.5027 
     26 O          17.1461  -24.8530  -43.0916 O.2       1 UNK        -0.4969 
     27 C          21.6818  -25.4651  -42.8264 C.2       3 UNK         0.5005 
     28 O          20.7207  -25.7777  -42.1193 O.2       3 UNK        -0.5279 
     29 N          22.8585  -25.0433  -42.3481 N.am      4 UNK        -0.4463 
     30 CA         23.2232  -24.9794  -40.9286 C.3       4 UNK         0.0283 
     31 CB         23.7426  -23.5645  -40.6135 C.3       4 UNK        -0.1875 
     32 C          24.2667  -26.0548  -40.5627 C.2       4 UNK         0.4949 
     33 O          24.8689  -25.9727  -39.4914 O.2       4 UNK        -0.5039 
     34 N          24.4779  -27.0341  -41.4499 N.am      5 UNK        -0.4663 
     35 CA         25.4405  -28.1242  -41.3230 C.3       5 UNK         0.0242 
     36 CB         26.8405  -27.6232  -41.7331 C.3       5 UNK        -0.1982 
     37 C          24.9824  -29.3000  -42.2004 C.2       5 UNK         0.5017 
     38 O          24.0177  -29.1512  -42.9544 O.2       5 UNK        -0.5012 
     39 N          25.7181  -30.4168  -42.1030 N.am      6 UNK        -0.4439 
     40 CA         25.5479  -31.7014  -42.7961 C.3       6 UNK         0.0297 
     41 CB         25.4412  -31.5333  -44.3256 C.3       6 UNK        -0.2006 
     42 C          24.3786  -32.5341  -42.2448 C.2       6 UNK         0.4892 
     43 O          23.3130  -31.9978  -41.9393 O.2       6 UNK        -0.5089 
     44 N          24.6057  -33.8525  -42.1479 N.am      7 UNK        -0.4243 
     45 CA         23.6907  -34.8609  -41.6007 C.3       7 UNK         0.0196 
     46 CB         22.5017  -35.0932  -42.5633 C.3       7 UNK        -0.2007 
     47 C          23.2867  -34.5185  -40.1518 C.2       7 UNK         0.5020 
     48 O          24.1697  -34.3470  -39.3097 O.2       7 UNK        -0.5147 
     49 N          21.9798  -34.4162  -39.8849 N.am      8 UNK        -0.4734 
     50 CA         21.4267  -34.0129  -38.5898 C.3       8 UNK         0.0238 
     51 CB         20.0380  -34.6557  -38.4294 C.3       8 UNK        -0.1912 
     52 C          21.3319  -32.4845  -38.4141 C.2       8 UNK         0.5038 
     53 O          21.0523  -32.0369  -37.3005 O.2       8 UNK        -0.5046 
     54 N          21.5195  -31.7158  -39.4946 N.am      9 UNK        -0.4200 
     55 CA         21.3894  -30.2523  -39.5096 C.3       9 UNK         0.0839 
     56 C          22.6699  -29.5417  -38.9987 C.2       9 UNK         0.5513 
     57 N          22.5436  -28.2958  -38.5625 N.am      9 UNK        -0.7519 
     58 O          23.7701  -30.0896  -39.0028 O.2       9 UNK        -0.4960 
     59 C59        20.9551  -29.7316  -40.9059 C.3       10 UNK        -0.0876 
     60 S60        19.3281  -30.4087  -41.3883 S.3       10 UNK        -0.2414 
     61 C61        19.7813  -31.6002  -42.6876 C.3       10 UNK         0.0169 
     62 H62        14.5951  -26.8502  -40.3330 H         1 UNK         0.0903 
     63 H63        12.9030  -26.9048  -40.8320 H         1 UNK         0.0903 
     64 H64        13.7916  -28.4054  -40.5549 H         1 UNK         0.0903 
     65 H65        15.9457  -26.2860  -42.0572 H         1 UNK         0.3096 
     66 H66        15.1212  -26.4368  -44.7570 H         1 UNK         0.1121 
     67 H67        17.6291  -28.1053  -44.2027 H         1 UNK         0.0849 
     68 H68        16.0652  -28.8680  -44.2016 H         1 UNK         0.0849 
     69 H69        16.3738  -30.5545  -46.2274 H         1 UNK         0.0865 
     70 H70        17.2117  -30.1121  -47.6945 H         1 UNK         0.0865 
     71 H71        17.6291  -31.1456  -44.2589 H         1 UNK         0.1346 
     72 H72        21.8733  -30.5618  -44.1218 H         1 UNK         0.1412 
     73 H73        19.6179  -29.1552  -47.4940 H         1 UNK         0.1426 
     74 H74        22.2551  -29.5859  -47.5231 H         1 UNK         0.0716 
     75 H75        23.0332  -29.5468  -45.9573 H         1 UNK         0.0716 
     76 H76        21.5225  -27.8040  -44.2029 H         1 UNK         0.0695 
     77 H77        23.1411  -27.1800  -44.3997 H         1 UNK         0.0695 
     78 H78        22.2746  -24.9090  -44.8174 H         1 UNK         0.0983 
     79 H79        19.6964  -26.1727  -45.1096 H         1 UNK         0.3095 
     80 H80        17.8472  -23.1463  -45.1297 H         1 UNK         0.0454 
     81 H81        19.0142  -22.9208  -47.3241 H         1 UNK         0.0851 
     82 H82        18.8418  -24.6463  -47.6110 H         1 UNK         0.0851 
     83 H83        17.4143  -23.6128  -47.5250 H         1 UNK         0.0851 
     84 H84        17.2294  -25.7715  -46.1061 H         1 UNK         0.2976 
     85 H85        23.5980  -24.8193  -43.0006 H         1 UNK         0.3116 
     86 H86        22.3495  -25.1653  -40.3008 H         1 UNK         0.0646 
     87 H87        23.9660  -23.4546  -39.5515 H         1 UNK         0.0847 
     88 H88        23.0013  -22.8057  -40.8646 H         1 UNK         0.0847 
     89 H89        24.6562  -23.3371  -41.1641 H         1 UNK         0.0847 
     90 H90        23.8829  -27.1101  -42.2646 H         1 UNK         0.3040 
     91 H91        25.4615  -28.4636  -40.2854 H         1 UNK         0.1015 
     92 H92        27.1588  -26.7826  -41.1162 H         1 UNK         0.0786 
     93 H93        26.8600  -27.2987  -42.7743 H         1 UNK         0.0786 
     94 H94        27.5941  -28.4029  -41.6193 H         1 UNK         0.0786 
     95 H95        26.4646  -30.4100  -41.4221 H         1 UNK         0.3172 
     96 H96        26.4686  -32.2514  -42.5944 H         1 UNK         0.0595 
     97 H97        26.2497  -30.9167  -44.7179 H         1 UNK         0.0839 
     98 H98        24.4957  -31.0778  -44.6203 H         1 UNK         0.0839 
     99 H99        25.4970  -32.5005  -44.8264 H         1 UNK         0.0839 
    100 H100       25.5205  -34.1959  -42.4060 H         1 UNK         0.2998 
    101 H101       24.2544  -35.7933  -41.5430 H         1 UNK         0.0822 
    102 H102       22.8560  -35.3759  -43.5547 H         1 UNK         0.0787 
    103 H103       21.8612  -35.9047  -42.2153 H         1 UNK         0.0787 
    104 H104       21.8831  -34.2035  -42.6823 H         1 UNK         0.0787 
    105 H105       21.3218  -34.5687  -40.6358 H         1 UNK         0.3055 
    106 H106       22.0697  -34.3885  -37.7903 H         1 UNK         0.1106 
    107 H107       19.3398  -34.3055  -39.1909 H         1 UNK         0.0828 
    108 H108       20.0927  -35.7424  -38.4961 H         1 UNK         0.0828 
    109 H109       19.6054  -34.4154  -37.4571 H         1 UNK         0.0828 
    110 H110       21.8664  -32.1325  -40.3498 H         1 UNK         0.2931 
    111 H111       20.5922  -29.9882  -38.8110 H         1 UNK         0.0412 
    112 H112       23.3642  -27.8055  -38.2405 H         1 UNK         0.3472 
    113 H113       21.6449  -27.8404  -38.5364 H         1 UNK         0.3472 
    114 H114       21.7046  -29.9640  -41.6634 H         1 UNK         0.0970 
    115 H115       20.8680  -28.6433  -40.9012 H         1 UNK         0.0970 
    116 H116       20.7575  -32.0364  -42.4796 H         1 UNK         0.0612 
    117 H117       19.0700  -32.4271  -42.6664 H         1 UNK         0.0612 
@<TRIPOS>BOND
     1    1    2 1    
     2    1   62 1    
     3    1   63 1    
     4    1   64 1    
     5    2    3 2    
     6    2    4 am   BACKBONE|DICT|INTERRES
     7    4    5 1    
     8    4   65 1    
     9    5    6 1    
    10    5   25 1    
    11    5   66 1    
    12    6    7 1    
    13    6   67 1    
    14    6   68 1    
    15    7    8 1    
    16    8    9 1    
    17    8   69 1    
    18    8   70 1    
    19    9   10 ar   
    20    9   14 ar   
    21   10   11 ar   
    22   10   71 1    
    23   11   12 ar   
    24   11   61 1    
    25   12   13 ar   
    26   12   72 1    
    27   13   14 ar   
    28   13   15 1    
    29   14   73 1    
    30   15   16 1    
    31   15   74 1    
    32   15   75 1    
    33   16   17 1    
    34   17   18 1    
    35   17   76 1    
    36   17   77 1    
    37   18   19 1    
    38   18   27 1    
    39   18   78 1    
    40   19   20 am   BACKBONE|DICT|INTERRES
    41   19   79 1    
    42   20   21 2    
    43   20   22 1    
    44   22   23 1    
    45   22   24 1    
    46   22   80 1    
    47   23   81 1    
    48   23   82 1    
    49   23   83 1    
    50   24   25 am   BACKBONE|DICT|INTERRES
    51   24   84 1    
    52   25   26 2    
    53   27   28 2    
    54   27   29 am   BACKBONE|DICT|INTERRES
    55   29   30 1    
    56   29   85 1    
    57   30   31 1    
    58   30   32 1    
    59   30   86 1    
    60   31   87 1    
    61   31   88 1    
    62   31   89 1    
    63   32   33 2    
    64   32   34 am   BACKBONE|DICT|INTERRES
    65   34   35 1    
    66   34   90 1    
    67   35   36 1    
    68   35   37 1    
    69   35   91 1    
    70   36   92 1    
    71   36   93 1    
    72   36   94 1    
    73   37   38 2    
    74   37   39 am   BACKBONE|DICT|INTERRES
    75   39   40 1    
    76   39   95 1    
    77   40   41 1    
    78   40   42 1    
    79   40   96 1    
    80   41   97 1    
    81   41   98 1    
    82   41   99 1    
    83   42   43 2    
    84   42   44 am   BACKBONE|DICT|INTERRES
    85   44   45 1    
    86   44  100 1    
    87   45   46 1    
    88   45   47 1    
    89   45  101 1    
    90   46  102 1    
    91   46  103 1    
    92   46  104 1    
    93   47   48 2    
    94   47   49 am   BACKBONE|DICT|INTERRES
    95   49   50 1    
    96   49  105 1    
    97   50   51 1    
    98   50   52 1    
    99   50  106 1    
   100   51  107 1    
   101   51  108 1    
   102   51  109 1    
   103   52   53 2    
   104   52   54 am   BACKBONE|DICT|INTERRES
   105   54   55 1    
   106   54  110 1    
   107   55   56 1    
   108   55   59 1    
   109   55  111 1    
   110   56   57 am   BACKBONE|DICT|INTERRES
   111   56   58 2    
   112   57  112 1    
   113   57  113 1    
   114   59   60 1    
   115   59  114 1    
   116   59  115 1    
   117   60   61 1    
   118   61  116 1    
   119   61  117 1    
@<TRIPOS>SUBSTRUCTURE
     1 UNK         1 GROUP             0       ****    0 ROOT    
