@<TRIPOS>MOLECULE
3R8
117   119    1
SMALL
USER_CHARGES


@<TRIPOS>ATOM
      1 CA         15.1693  -23.2456  -45.3905 C.3       0 UNK        -0.2013 
      2 C          15.9108  -24.5560  -45.1718 C.2       0 UNK         0.4866 
      3 O          16.6866  -24.9702  -46.0335 O.2       0 UNK        -0.5176 
      4 N          15.6695  -25.2140  -44.0313 N.am      1 UNK        -0.4884 
      5 CA         16.3311  -26.4598  -43.6298 C.3       1 UNK         0.0853 
      6 C6         15.4601  -27.2696  -42.6316 C.3       10 UNK        -0.0849 
      7 S7         13.9151  -27.9639  -43.3236 S.3       10 UNK        -0.2776 
      8 C8         14.3908  -28.7397  -44.9160 C.3       10 UNK         0.0316 
      9 C9         15.7176  -29.4992  -44.8989 C.ar      10 UNK        -0.0863 
     10 C10        16.0663  -30.3409  -43.8380 C.ar      10 UNK        -0.1009 
     11 C11        17.3149  -30.9679  -43.8101 C.ar      10 UNK        -0.0712 
     12 C12        18.2117  -30.7746  -44.8667 C.ar      10 UNK        -0.0894 
     13 C13        17.8617  -29.9658  -45.9521 C.ar      10 UNK        -0.0745 
     14 C14        16.6127  -29.3378  -45.9620 C.ar      10 UNK        -0.0972 
     15 C15        18.8042  -29.7978  -47.1375 C.3       10 UNK         0.0209 
     16 S16        19.3420  -28.0671  -47.3550 S.3       10 UNK        -0.2568 
     17 C17        21.1237  -28.1185  -46.9556 C.3       10 UNK        -0.0983 
     18 CA         21.4951  -27.1616  -45.7968 C.3       3 UNK         0.0876 
     19 N          20.7814  -27.5220  -44.5647 N.am      3 UNK        -0.4424 
     20 C          20.8265  -26.8761  -43.3921 C.2       2 UNK         0.4918 
     21 O          21.5741  -25.9273  -43.1521 O.2       2 UNK        -0.4875 
     22 CA         19.8495  -27.3986  -42.3270 C.3       2 UNK         0.0481 
     23 CB         20.0224  -26.7300  -40.9474 C.3       2 UNK        -0.1831 
     24 N          18.4627  -27.3230  -42.8013 N.am      2 UNK        -0.4498 
     25 C          17.7482  -26.2161  -43.0671 C.2       1 UNK         0.5027 
     26 O          18.1538  -25.0666  -42.8759 O.2       1 UNK        -0.4969 
     27 C          23.0315  -27.0678  -45.6529 C.2       3 UNK         0.5005 
     28 O          23.6552  -26.2961  -46.3832 O.2       3 UNK        -0.5279 
     29 N          23.6072  -27.8356  -44.7187 N.am      4 UNK        -0.4463 
     30 CA         25.0308  -27.8325  -44.3689 C.3       4 UNK         0.0283 
     31 CB         25.6437  -29.2038  -44.7120 C.3       4 UNK        -0.1875 
     32 C          25.2332  -27.4606  -42.8887 C.2       4 UNK         0.4949 
     33 O          26.2115  -27.8970  -42.2803 O.2       4 UNK        -0.5039 
     34 N          24.2993  -26.6795  -42.3225 N.am      5 UNK        -0.4663 
     35 CA         24.2332  -26.2697  -40.9162 C.3       5 UNK         0.0242 
     36 CB         25.3555  -25.2559  -40.5925 C.3       5 UNK        -0.1982 
     37 C          24.1872  -27.4968  -39.9850 C.2       5 UNK         0.5017 
     38 O          23.3515  -28.3756  -40.1994 O.2       5 UNK        -0.5012 
     39 N          25.0931  -27.5596  -39.0005 N.am      6 UNK        -0.4439 
     40 CA         25.2170  -28.6501  -38.0286 C.3       6 UNK         0.0297 
     41 CB         26.2255  -28.2384  -36.9432 C.3       6 UNK        -0.2006 
     42 C          25.6045  -30.0154  -38.6319 C.2       6 UNK         0.4892 
     43 O          25.4062  -31.0314  -37.9646 O.2       6 UNK        -0.5089 
     44 N          26.1489  -30.0313  -39.8583 N.am      7 UNK        -0.4243 
     45 CA         26.4899  -31.2584  -40.5827 C.3       7 UNK         0.0196 
     46 CB         27.6160  -30.9630  -41.5870 C.3       7 UNK        -0.2007 
     47 C          25.2802  -31.8958  -41.2914 C.2       7 UNK         0.5020 
     48 O          25.3772  -33.0550  -41.6962 O.2       7 UNK        -0.5147 
     49 N          24.1756  -31.1524  -41.4427 N.am      8 UNK        -0.4734 
     50 CA         22.9253  -31.6416  -42.0239 C.3       8 UNK         0.0238 
     51 CB         22.3079  -30.5322  -42.8927 C.3       8 UNK        -0.1912 
     52 C          21.9409  -32.0693  -40.9261 C.2       8 UNK         0.5038 
     53 O          22.0658  -31.6429  -39.7758 O.2       8 UNK        -0.5046 
     54 N          20.9516  -32.8746  -41.3323 N.am      9 UNK        -0.4200 
     55 CA         19.7920  -33.3045  -40.5302 C.3       9 UNK         0.0839 
     56 C          20.1194  -34.2917  -39.3692 C.2       9 UNK         0.5513 
     57 N          21.2915  -34.9143  -39.3414 N.am      9 UNK        -0.7519 
     58 O          19.2863  -34.5258  -38.4971 O.2       9 UNK        -0.4960 
     59 C59        18.8838  -32.1221  -40.0695 C.3       10 UNK        -0.0876 
     60 S60        18.5241  -30.8651  -41.3488 S.3       10 UNK        -0.2414 
     61 C61        17.6952  -31.8478  -42.6320 C.3       10 UNK         0.0169 
     62 H62        14.5710  -23.3001  -46.2996 H         1 UNK         0.0903 
     63 H63        14.5036  -23.0094  -44.5605 H         1 UNK         0.0903 
     64 H64        15.8801  -22.4267  -45.4986 H         1 UNK         0.0903 
     65 H65        15.0367  -24.8163  -43.3520 H         1 UNK         0.3096 
     66 H66        16.4924  -27.0429  -44.5331 H         1 UNK         0.1121 
     67 H67        15.1945  -26.6443  -41.7773 H         1 UNK         0.0849 
     68 H68        16.0109  -28.1088  -42.2048 H         1 UNK         0.0849 
     69 H69        13.5998  -29.4267  -45.2192 H         1 UNK         0.0865 
     70 H70        14.4145  -27.9544  -45.6736 H         1 UNK         0.0865 
     71 H71        15.3769  -30.4852  -43.0171 H         1 UNK         0.1346 
     72 H72        19.1744  -31.2671  -44.8485 H         1 UNK         0.1412 
     73 H73        16.3474  -28.7056  -46.7992 H         1 UNK         0.1426 
     74 H74        19.6622  -30.4654  -47.0523 H         1 UNK         0.0716 
     75 H75        18.2789  -30.1075  -48.0421 H         1 UNK         0.0716 
     76 H76        21.6609  -27.8426  -47.8655 H         1 UNK         0.0695 
     77 H77        21.4345  -29.1377  -46.7209 H         1 UNK         0.0695 
     78 H78        21.1564  -26.1585  -46.0655 H         1 UNK         0.0983 
     79 H79        20.1035  -28.2623  -44.6702 H         1 UNK         0.3095 
     80 H80        20.0703  -28.4581  -42.1976 H         1 UNK         0.0454 
     81 H81        19.3092  -27.1253  -40.2244 H         1 UNK         0.0851 
     82 H82        21.0199  -26.9192  -40.5514 H         1 UNK         0.0851 
     83 H83        19.8931  -25.6485  -40.9924 H         1 UNK         0.0851 
     84 H84        18.0298  -28.2185  -42.9860 H         1 UNK         0.2976 
     85 H85        23.0094  -28.4188  -44.1525 H         1 UNK         0.3116 
     86 H86        25.5618  -27.0742  -44.9475 H         1 UNK         0.0646 
     87 H87        25.4508  -29.4777  -45.7491 H         1 UNK         0.0847 
     88 H88        26.7263  -29.1893  -44.5810 H         1 UNK         0.0847 
     89 H89        25.2515  -29.9968  -44.0750 H         1 UNK         0.0847 
     90 H90        23.5068  -26.3867  -42.8859 H         1 UNK         0.3040 
     91 H91        23.2779  -25.7581  -40.7881 H         1 UNK         0.1015 
     92 H92        26.3503  -25.6940  -40.6829 H         1 UNK         0.0786 
     93 H93        25.2529  -24.8578  -39.5821 H         1 UNK         0.0786 
     94 H94        25.3135  -24.4033  -41.2706 H         1 UNK         0.0786 
     95 H95        25.7584  -26.8040  -38.9211 H         1 UNK         0.3172 
     96 H96        24.2412  -28.7776  -37.5551 H         1 UNK         0.0595 
     97 H97        27.2209  -28.0744  -37.3580 H         1 UNK         0.0839 
     98 H98        26.3156  -29.0124  -36.1795 H         1 UNK         0.0839 
     99 H99        25.9157  -27.3240  -36.4367 H         1 UNK         0.0839 
    100 H100       26.2643  -29.1591  -40.3612 H         1 UNK         0.2998 
    101 H101       26.8688  -31.9938  -39.8693 H         1 UNK         0.0822 
    102 H102       27.9447  -31.8773  -42.0829 H         1 UNK         0.0787 
    103 H103       27.2947  -30.2721  -42.3653 H         1 UNK         0.0787 
    104 H104       28.4870  -30.5319  -41.0933 H         1 UNK         0.0787 
    105 H105       24.1279  -30.2464  -40.9895 H         1 UNK         0.3055 
    106 H106       23.1199  -32.5079  -42.6607 H         1 UNK         0.1106 
    107 H107       21.3080  -30.8011  -43.2366 H         1 UNK         0.0828 
    108 H108       22.2219  -29.5956  -42.3417 H         1 UNK         0.0828 
    109 H109       22.9109  -30.3599  -43.7820 H         1 UNK         0.0828 
    110 H110       20.9492  -33.1922  -42.2903 H         1 UNK         0.2931 
    111 H111       19.1965  -33.9086  -41.2144 H         1 UNK         0.0412 
    112 H112       21.4910  -35.5599  -38.5933 H         1 UNK         0.3472 
    113 H113       21.9826  -34.7345  -40.0521 H         1 UNK         0.3472 
    114 H114       17.9320  -32.5022  -39.6942 H         1 UNK         0.0970 
    115 H115       19.3482  -31.6040  -39.2286 H         1 UNK         0.0970 
    116 H116       18.3531  -32.6477  -42.9724 H         1 UNK         0.0612 
    117 H117       16.8097  -32.3263  -42.2106 H         1 UNK         0.0612 
@<TRIPOS>BOND
     1    1    2 1    
     2    1   62 1    
     3    1   63 1    
     4    1   64 1    
     5    2    3 2    
     6    2    4 am   BACKBONE|DICT|INTERRES
     7    4    5 1    
     8    4   65 1    
     9    5    6 1    
    10    5   25 1    
    11    5   66 1    
    12    6    7 1    
    13    6   67 1    
    14    6   68 1    
    15    7    8 1    
    16    8    9 1    
    17    8   69 1    
    18    8   70 1    
    19    9   10 ar   
    20    9   14 ar   
    21   10   11 ar   
    22   10   71 1    
    23   11   12 ar   
    24   11   61 1    
    25   12   13 ar   
    26   12   72 1    
    27   13   14 ar   
    28   13   15 1    
    29   14   73 1    
    30   15   16 1    
    31   15   74 1    
    32   15   75 1    
    33   16   17 1    
    34   17   18 1    
    35   17   76 1    
    36   17   77 1    
    37   18   19 1    
    38   18   27 1    
    39   18   78 1    
    40   19   20 am   BACKBONE|DICT|INTERRES
    41   19   79 1    
    42   20   21 2    
    43   20   22 1    
    44   22   23 1    
    45   22   24 1    
    46   22   80 1    
    47   23   81 1    
    48   23   82 1    
    49   23   83 1    
    50   24   25 am   BACKBONE|DICT|INTERRES
    51   24   84 1    
    52   25   26 2    
    53   27   28 2    
    54   27   29 am   BACKBONE|DICT|INTERRES
    55   29   30 1    
    56   29   85 1    
    57   30   31 1    
    58   30   32 1    
    59   30   86 1    
    60   31   87 1    
    61   31   88 1    
    62   31   89 1    
    63   32   33 2    
    64   32   34 am   BACKBONE|DICT|INTERRES
    65   34   35 1    
    66   34   90 1    
    67   35   36 1    
    68   35   37 1    
    69   35   91 1    
    70   36   92 1    
    71   36   93 1    
    72   36   94 1    
    73   37   38 2    
    74   37   39 am   BACKBONE|DICT|INTERRES
    75   39   40 1    
    76   39   95 1    
    77   40   41 1    
    78   40   42 1    
    79   40   96 1    
    80   41   97 1    
    81   41   98 1    
    82   41   99 1    
    83   42   43 2    
    84   42   44 am   BACKBONE|DICT|INTERRES
    85   44   45 1    
    86   44  100 1    
    87   45   46 1    
    88   45   47 1    
    89   45  101 1    
    90   46  102 1    
    91   46  103 1    
    92   46  104 1    
    93   47   48 2    
    94   47   49 am   BACKBONE|DICT|INTERRES
    95   49   50 1    
    96   49  105 1    
    97   50   51 1    
    98   50   52 1    
    99   50  106 1    
   100   51  107 1    
   101   51  108 1    
   102   51  109 1    
   103   52   53 2    
   104   52   54 am   BACKBONE|DICT|INTERRES
   105   54   55 1    
   106   54  110 1    
   107   55   56 1    
   108   55   59 1    
   109   55  111 1    
   110   56   57 am   BACKBONE|DICT|INTERRES
   111   56   58 2    
   112   57  112 1    
   113   57  113 1    
   114   59   60 1    
   115   59  114 1    
   116   59  115 1    
   117   60   61 1    
   118   61  116 1    
   119   61  117 1    
@<TRIPOS>SUBSTRUCTURE
     1 UNK         1 GROUP             0       ****    0 ROOT    
