@<TRIPOS>MOLECULE
3R8
117   119    1
SMALL
USER_CHARGES


@<TRIPOS>ATOM
      1 CA         17.1765  -24.0726  -40.0459 C.3       0 UNK        -0.2013 
      2 C          17.0119  -24.0243  -41.5577 C.2       0 UNK         0.4866 
      3 O          16.8055  -22.9466  -42.1174 O.2       0 UNK        -0.5176 
      4 N          17.0913  -25.1842  -42.2211 N.am      1 UNK        -0.4884 
      5 CA         17.0068  -25.3235  -43.6795 C.3       1 UNK         0.0853 
      6 C6         16.7770  -26.7931  -44.1059 C.3       10 UNK        -0.0849 
      7 S7         15.2874  -27.5442  -43.3608 S.3       10 UNK        -0.2776 
      8 C8         15.0786  -29.0479  -44.3773 C.3       10 UNK         0.0316 
      9 C9         16.3923  -29.7936  -44.5701 C.ar      10 UNK        -0.0863 
     10 C10        17.0258  -30.3987  -43.4808 C.ar      10 UNK        -0.1009 
     11 C11        18.2794  -30.9972  -43.6334 C.ar      10 UNK        -0.0712 
     12 C12        18.8883  -31.0099  -44.8927 C.ar      10 UNK        -0.0894 
     13 C13        18.2532  -30.4269  -45.9944 C.ar      10 UNK        -0.0745 
     14 C14        17.0026  -29.8261  -45.8276 C.ar      10 UNK        -0.0972 
     15 C15        18.9238  -30.4235  -47.3621 C.3       10 UNK         0.0209 
     16 S16        19.4738  -28.7561  -47.8546 S.3       10 UNK        -0.2568 
     17 C17        20.7366  -28.4222  -46.5846 C.3       10 UNK        -0.0983 
     18 CA         21.3053  -26.9825  -46.6393 C.3       3 UNK         0.0876 
     19 N          20.2477  -25.9704  -46.5547 N.am      3 UNK        -0.4424 
     20 C          20.4204  -24.6502  -46.7049 C.2       2 UNK         0.4918 
     21 O          21.4925  -24.1327  -47.0190 O.2       2 UNK        -0.4875 
     22 CA         19.1994  -23.7436  -46.4478 C.3       2 UNK         0.0481 
     23 CB         18.5929  -23.2807  -47.7823 C.3       2 UNK        -0.1831 
     24 N          18.1384  -24.3330  -45.6176 N.am      2 UNK        -0.4498 
     25 C          18.2805  -24.7798  -44.3603 C.2       1 UNK         0.5027 
     26 O          19.3641  -24.8314  -43.7702 O.2       1 UNK        -0.4969 
     27 C          22.3645  -26.8309  -45.5271 C.2       3 UNK         0.5005 
     28 O          23.5253  -27.1782  -45.7546 O.2       3 UNK        -0.5279 
     29 N          21.9386  -26.3666  -44.3393 N.am      4 UNK        -0.4463 
     30 CA         22.6663  -26.2921  -43.0645 C.3       4 UNK         0.0283 
     31 CB         23.8866  -25.3546  -43.1497 C.3       4 UNK        -0.1875 
     32 C          23.0470  -27.6712  -42.4943 C.2       4 UNK         0.4949 
     33 O          22.6520  -27.9884  -41.3723 O.2       4 UNK        -0.5039 
     34 N          23.8034  -28.4581  -43.2748 N.am      5 UNK        -0.4663 
     35 CA         24.2241  -29.8482  -43.0412 C.3       5 UNK         0.0242 
     36 CB         23.0374  -30.7943  -43.2995 C.3       5 UNK        -0.1982 
     37 C          24.8767  -30.0831  -41.6641 C.2       5 UNK         0.5017 
     38 O          24.6044  -31.0969  -41.0138 O.2       5 UNK        -0.5012 
     39 N          25.6719  -29.0950  -41.2218 N.am      6 UNK        -0.4439 
     40 CA         26.3462  -28.9886  -39.9188 C.3       6 UNK         0.0297 
     41 CB         27.4663  -30.0457  -39.8158 C.3       6 UNK        -0.2006 
     42 C          25.3976  -29.0384  -38.6991 C.2       6 UNK         0.4892 
     43 O          25.8606  -29.3172  -37.5924 O.2       6 UNK        -0.5089 
     44 N          24.0912  -28.8150  -38.9251 N.am      7 UNK        -0.4243 
     45 CA         22.9673  -29.0545  -38.0093 C.3       7 UNK         0.0196 
     46 CB         23.0337  -28.1142  -36.7871 C.3       7 UNK        -0.2007 
     47 C          22.7965  -30.5376  -37.6063 C.2       7 UNK         0.5020 
     48 O          22.0701  -30.8230  -36.6533 O.2       7 UNK        -0.5147 
     49 N          23.4539  -31.4551  -38.3291 N.am      8 UNK        -0.4734 
     50 CA         23.4514  -32.8949  -38.0714 C.3       8 UNK         0.0238 
     51 CB         24.8871  -33.4281  -38.2096 C.3       8 UNK        -0.1912 
     52 C          22.5127  -33.6405  -39.0282 C.2       8 UNK         0.5038 
     53 O          21.9012  -34.6261  -38.6147 O.2       8 UNK        -0.5046 
     54 N          22.4098  -33.1617  -40.2774 N.am      9 UNK        -0.4200 
     55 CA         21.5925  -33.7553  -41.3504 C.3       9 UNK         0.0839 
     56 C          22.1138  -35.1310  -41.8722 C.2       9 UNK         0.5513 
     57 N          23.3844  -35.4640  -41.6761 N.am      9 UNK        -0.7519 
     58 O          21.3741  -35.8999  -42.4804 O.2       9 UNK        -0.4960 
     59 C59        20.0700  -33.7376  -41.0149 C.3       10 UNK        -0.0876 
     60 S60        19.0299  -33.3994  -42.4756 S.3       10 UNK        -0.2414 
     61 C61        18.9988  -31.5830  -42.4291 C.3       10 UNK         0.0169 
     62 H62        16.2860  -23.6766  -39.5584 H         1 UNK         0.0903 
     63 H63        17.3369  -25.0885  -39.6852 H         1 UNK         0.0903 
     64 H64        18.0297  -23.4665  -39.7425 H         1 UNK         0.0903 
     65 H65        17.2647  -26.0398  -41.7136 H         1 UNK         0.3096 
     66 H66        16.1579  -24.7266  -44.0214 H         1 UNK         0.1121 
     67 H67        17.6399  -27.4054  -43.8338 H         1 UNK         0.0849 
     68 H68        16.6815  -26.8626  -45.1915 H         1 UNK         0.0849 
     69 H69        14.3524  -29.7066  -43.8989 H         1 UNK         0.0865 
     70 H70        14.6485  -28.7666  -45.3399 H         1 UNK         0.0865 
     71 H71        16.5584  -30.3645  -42.5059 H         1 UNK         0.1346 
     72 H72        19.8624  -31.4654  -45.0088 H         1 UNK         0.1412 
     73 H73        16.5230  -29.3547  -46.6749 H         1 UNK         0.1426 
     74 H74        18.2203  -30.7977  -48.1072 H         1 UNK         0.0716 
     75 H75        19.7776  -31.1028  -47.3791 H         1 UNK         0.0716 
     76 H76        21.5367  -29.1552  -46.7089 H         1 UNK         0.0695 
     77 H77        20.2970  -28.6110  -45.6033 H         1 UNK         0.0695 
     78 H78        21.8158  -26.8470  -47.5953 H         1 UNK         0.0983 
     79 H79        19.3226  -26.3130  -46.3452 H         1 UNK         0.3095 
     80 H80        19.5660  -22.8615  -45.9190 H         1 UNK         0.0454 
     81 H81        19.3474  -22.8066  -48.4118 H         1 UNK         0.0851 
     82 H82        17.8002  -22.5485  -47.6278 H         1 UNK         0.0851 
     83 H83        18.1762  -24.1153  -48.3477 H         1 UNK         0.0851 
     84 H84        17.2168  -24.3502  -46.0315 H         1 UNK         0.2976 
     85 H85        20.9696  -26.0697  -44.2777 H         1 UNK         0.3116 
     86 H86        21.9651  -25.8447  -42.3577 H         1 UNK         0.0646 
     87 H87        24.6475  -25.7233  -43.8377 H         1 UNK         0.0847 
     88 H88        23.5942  -24.3581  -43.4807 H         1 UNK         0.0847 
     89 H89        24.3600  -25.2448  -42.1732 H         1 UNK         0.0847 
     90 H90        24.0277  -28.0787  -44.1933 H         1 UNK         0.3040 
     91 H91        24.9931  -30.0695  -43.7831 H         1 UNK         0.1015 
     92 H92        23.3650  -31.8343  -43.2961 H         1 UNK         0.0786 
     93 H93        22.5775  -30.6042  -44.2694 H         1 UNK         0.0786 
     94 H94        22.2695  -30.6800  -42.5348 H         1 UNK         0.0786 
     95 H95        25.7883  -28.2996  -41.8349 H         1 UNK         0.3172 
     96 H96        26.8139  -28.0033  -39.8969 H         1 UNK         0.0595 
     97 H97        27.0628  -31.0576  -39.7633 H         1 UNK         0.0839 
     98 H98        28.0729  -29.8920  -38.9225 H         1 UNK         0.0839 
     99 H99        28.1393  -29.9970  -40.6718 H         1 UNK         0.0839 
    100 H100       23.8088  -28.5756  -39.8721 H         1 UNK         0.2998 
    101 H101       22.0695  -28.7967  -38.5733 H         1 UNK         0.0822 
    102 H102       22.1189  -28.1754  -36.1964 H         1 UNK         0.0787 
    103 H103       23.1507  -27.0745  -37.0926 H         1 UNK         0.0787 
    104 H104       23.8624  -28.3658  -36.1249 H         1 UNK         0.0787 
    105 H105       24.0002  -31.1415  -39.1257 H         1 UNK         0.3055 
    106 H106       23.1116  -33.0941  -37.0523 H         1 UNK         0.1106 
    107 H107       25.5555  -32.9484  -37.4942 H         1 UNK         0.0828 
    108 H108       24.9260  -34.5017  -38.0199 H         1 UNK         0.0828 
    109 H109       25.2909  -33.2561  -39.2083 H         1 UNK         0.0828 
    110 H110       22.9932  -32.3770  -40.5434 H         1 UNK         0.2931 
    111 H111       21.7440  -33.0820  -42.1917 H         1 UNK         0.0412 
    112 H112       24.0096  -34.8391  -41.1932 H         1 UNK         0.3472 
    113 H113       23.7208  -36.3499  -42.0199 H         1 UNK         0.3472 
    114 H114       19.7576  -34.6808  -40.5628 H         1 UNK         0.0970 
    115 H115       19.8496  -32.9755  -40.2658 H         1 UNK         0.0970 
    116 H116       18.5246  -31.2572  -41.5019 H         1 UNK         0.0612 
    117 H117       20.0192  -31.2020  -42.4026 H         1 UNK         0.0612 
@<TRIPOS>BOND
     1    1    2 1    
     2    1   62 1    
     3    1   63 1    
     4    1   64 1    
     5    2    3 2    
     6    2    4 am   BACKBONE|DICT|INTERRES
     7    4    5 1    
     8    4   65 1    
     9    5    6 1    
    10    5   25 1    
    11    5   66 1    
    12    6    7 1    
    13    6   67 1    
    14    6   68 1    
    15    7    8 1    
    16    8    9 1    
    17    8   69 1    
    18    8   70 1    
    19    9   10 ar   
    20    9   14 ar   
    21   10   11 ar   
    22   10   71 1    
    23   11   12 ar   
    24   11   61 1    
    25   12   13 ar   
    26   12   72 1    
    27   13   14 ar   
    28   13   15 1    
    29   14   73 1    
    30   15   16 1    
    31   15   74 1    
    32   15   75 1    
    33   16   17 1    
    34   17   18 1    
    35   17   76 1    
    36   17   77 1    
    37   18   19 1    
    38   18   27 1    
    39   18   78 1    
    40   19   20 am   BACKBONE|DICT|INTERRES
    41   19   79 1    
    42   20   21 2    
    43   20   22 1    
    44   22   23 1    
    45   22   24 1    
    46   22   80 1    
    47   23   81 1    
    48   23   82 1    
    49   23   83 1    
    50   24   25 am   BACKBONE|DICT|INTERRES
    51   24   84 1    
    52   25   26 2    
    53   27   28 2    
    54   27   29 am   BACKBONE|DICT|INTERRES
    55   29   30 1    
    56   29   85 1    
    57   30   31 1    
    58   30   32 1    
    59   30   86 1    
    60   31   87 1    
    61   31   88 1    
    62   31   89 1    
    63   32   33 2    
    64   32   34 am   BACKBONE|DICT|INTERRES
    65   34   35 1    
    66   34   90 1    
    67   35   36 1    
    68   35   37 1    
    69   35   91 1    
    70   36   92 1    
    71   36   93 1    
    72   36   94 1    
    73   37   38 2    
    74   37   39 am   BACKBONE|DICT|INTERRES
    75   39   40 1    
    76   39   95 1    
    77   40   41 1    
    78   40   42 1    
    79   40   96 1    
    80   41   97 1    
    81   41   98 1    
    82   41   99 1    
    83   42   43 2    
    84   42   44 am   BACKBONE|DICT|INTERRES
    85   44   45 1    
    86   44  100 1    
    87   45   46 1    
    88   45   47 1    
    89   45  101 1    
    90   46  102 1    
    91   46  103 1    
    92   46  104 1    
    93   47   48 2    
    94   47   49 am   BACKBONE|DICT|INTERRES
    95   49   50 1    
    96   49  105 1    
    97   50   51 1    
    98   50   52 1    
    99   50  106 1    
   100   51  107 1    
   101   51  108 1    
   102   51  109 1    
   103   52   53 2    
   104   52   54 am   BACKBONE|DICT|INTERRES
   105   54   55 1    
   106   54  110 1    
   107   55   56 1    
   108   55   59 1    
   109   55  111 1    
   110   56   57 am   BACKBONE|DICT|INTERRES
   111   56   58 2    
   112   57  112 1    
   113   57  113 1    
   114   59   60 1    
   115   59  114 1    
   116   59  115 1    
   117   60   61 1    
   118   61  116 1    
   119   61  117 1    
@<TRIPOS>SUBSTRUCTURE
     1 UNK         1 GROUP             0       ****    0 ROOT    
