@<TRIPOS>MOLECULE
3R8
117   119    1
SMALL
USER_CHARGES


@<TRIPOS>ATOM
      1 CA         16.4968  -24.2281  -48.4416 C.3       0 UNK        -0.2013 
      2 C          17.8620  -24.3876  -47.7892 C.2       0 UNK         0.4866 
      3 O          18.5571  -23.3943  -47.5713 O.2       0 UNK        -0.5176 
      4 N          18.2558  -25.6297  -47.4843 N.am      1 UNK        -0.4884 
      5 CA         19.4969  -25.9677  -46.7808 C.3       1 UNK         0.0853 
      6 C6         19.8940  -27.4482  -47.0198 C.3       10 UNK        -0.0849 
      7 S7         18.6319  -28.6617  -46.4881 S.3       10 UNK        -0.2776 
      8 C8         19.4882  -29.4130  -45.0738 C.3       10 UNK         0.0316 
      9 C9         18.5458  -30.2471  -44.2229 C.ar      10 UNK        -0.0863 
     10 C10        18.4268  -31.6242  -44.4377 C.ar      10 UNK        -0.1009 
     11 C11        17.5768  -32.3920  -43.6362 C.ar      10 UNK        -0.0712 
     12 C12        16.8573  -31.7751  -42.6081 C.ar      10 UNK        -0.0894 
     13 C13        16.9583  -30.3974  -42.3917 C.ar      10 UNK        -0.0745 
     14 C14        17.8023  -29.6379  -43.2076 C.ar      10 UNK        -0.0972 
     15 C15        16.1172  -29.7349  -41.3074 C.3       10 UNK         0.0209 
     16 S16        17.1127  -29.1924  -39.8797 S.3       10 UNK        -0.2568 
     17 C17        17.5783  -27.4945  -40.3614 C.3       10 UNK        -0.0983 
     18 CA         19.0980  -27.3569  -40.6267 C.3       3 UNK         0.0876 
     19 N          19.3676  -26.3217  -41.6251 N.am      3 UNK        -0.4424 
     20 C          20.4738  -26.2600  -42.3728 C.2       2 UNK         0.4918 
     21 O          21.3351  -27.1398  -42.4079 O.2       2 UNK        -0.4875 
     22 CA         20.6450  -24.9963  -43.2308 C.3       2 UNK         0.0481 
     23 CB         21.9875  -24.3038  -42.9414 C.3       2 UNK        -0.1831 
     24 N          20.5471  -25.3132  -44.6560 N.am      2 UNK        -0.4498 
     25 C          19.3995  -25.6172  -45.2784 C.2       1 UNK         0.5027 
     26 O          18.3032  -25.6348  -44.7103 O.2       1 UNK        -0.4969 
     27 C          19.8773  -27.0401  -39.3332 C.2       3 UNK         0.5005 
     28 O          20.0979  -25.8626  -39.0342 O.2       3 UNK        -0.5279 
     29 N          20.2636  -28.0890  -38.5890 N.am      4 UNK        -0.4463 
     30 CA         21.0783  -28.0425  -37.3631 C.3       4 UNK         0.0283 
     31 CB         20.2817  -27.4162  -36.1986 C.3       4 UNK        -0.1875 
     32 C          22.4496  -27.3679  -37.5865 C.2       4 UNK         0.4949 
     33 O          22.8999  -26.5707  -36.7620 O.2       4 UNK        -0.5039 
     34 N          23.0753  -27.6978  -38.7195 N.am      5 UNK        -0.4663 
     35 CA         24.3452  -27.1684  -39.2037 C.3       5 UNK         0.0242 
     36 CB         24.0815  -25.8755  -40.0001 C.3       5 UNK        -0.1982 
     37 C          25.0075  -28.2415  -40.0778 C.2       5 UNK         0.5017 
     38 O          24.4046  -29.2898  -40.3188 O.2       5 UNK        -0.5012 
     39 N          26.2191  -27.9572  -40.5735 N.am      6 UNK        -0.4439 
     40 CA         27.0157  -28.8558  -41.4224 C.3       6 UNK         0.0297 
     41 CB         28.3858  -28.2112  -41.6899 C.3       6 UNK        -0.2006 
     42 C          26.3475  -29.2648  -42.7525 C.2       6 UNK         0.4892 
     43 O          26.7200  -30.2940  -43.3167 O.2       6 UNK        -0.5089 
     44 N          25.3818  -28.4652  -43.2256 N.am      7 UNK        -0.4243 
     45 CA         24.5787  -28.7415  -44.4176 C.3       7 UNK         0.0196 
     46 CB         24.0271  -27.4144  -44.9646 C.3       7 UNK        -0.2007 
     47 C          23.4244  -29.7317  -44.1700 C.2       7 UNK         0.5020 
     48 O          22.8537  -30.2165  -45.1473 O.2       7 UNK        -0.5147 
     49 N          23.0700  -29.9984  -42.9034 N.am      8 UNK        -0.4734 
     50 CA         21.9612  -30.8802  -42.5269 C.3       8 UNK         0.0238 
     51 CB         21.6190  -30.6738  -41.0434 C.3       8 UNK        -0.1912 
     52 C          22.2653  -32.3593  -42.8137 C.2       8 UNK         0.5038 
     53 O          23.4313  -32.7636  -42.8082 O.2       8 UNK        -0.5046 
     54 N          21.2026  -33.1391  -43.0415 N.am      9 UNK        -0.4200 
     55 CA         21.2678  -34.5867  -43.2747 C.3       9 UNK         0.0839 
     56 C          21.7092  -35.4020  -42.0247 C.2       9 UNK         0.5513 
     57 N          22.2280  -36.6060  -42.2270 N.am      9 UNK        -0.7519 
     58 O          21.5651  -34.9720  -40.8816 O.2       9 UNK        -0.4960 
     59 C59        19.9516  -35.1173  -43.9007 C.3       10 UNK        -0.0876 
     60 S60        18.4681  -34.9024  -42.8518 S.3       10 UNK        -0.2414 
     61 C61        17.3890  -33.8787  -43.8998 C.3       10 UNK         0.0169 
     62 H62        16.5995  -23.7503  -49.4156 H         1 UNK         0.0903 
     63 H63        15.9991  -25.1871  -48.5852 H         1 UNK         0.0903 
     64 H64        15.8555  -23.6031  -47.8207 H         1 UNK         0.0903 
     65 H65        17.6320  -26.4087  -47.6441 H         1 UNK         0.3096 
     66 H66        20.2887  -25.3452  -47.2047 H         1 UNK         0.1121 
     67 H67        20.8508  -27.6693  -46.5422 H         1 UNK         0.0849 
     68 H68        20.0681  -27.6041  -48.0857 H         1 UNK         0.0849 
     69 H69        20.3022  -30.0325  -45.4500 H         1 UNK         0.0865 
     70 H70        19.9472  -28.6370  -44.4586 H         1 UNK         0.0865 
     71 H71        18.9850  -32.0947  -45.2359 H         1 UNK         0.1346 
     72 H72        16.1978  -32.3697  -41.9904 H         1 UNK         0.1412 
     73 H73        17.8788  -28.5696  -43.0598 H         1 UNK         0.1426 
     74 H74        15.3630  -30.4335  -40.9417 H         1 UNK         0.0716 
     75 H75        15.5590  -28.8980  -41.7290 H         1 UNK         0.0716 
     76 H76        17.2379  -26.8013  -39.5892 H         1 UNK         0.0695 
     77 H77        17.0143  -27.2208  -41.2540 H         1 UNK         0.0695 
     78 H78        19.4703  -28.3003  -41.0323 H         1 UNK         0.0983 
     79 H79        18.7261  -25.5426  -41.6427 H         1 UNK         0.3095 
     80 H80        19.8524  -24.2873  -42.9808 H         1 UNK         0.0454 
     81 H81        22.8396  -24.9383  -43.1833 H         1 UNK         0.0851 
     82 H82        22.0682  -24.0440  -41.8850 H         1 UNK         0.0851 
     83 H83        22.0872  -23.3784  -43.5087 H         1 UNK         0.0851 
     84 H84        21.4140  -25.3389  -45.1726 H         1 UNK         0.2976 
     85 H85        19.9900  -29.0135  -38.8933 H         1 UNK         0.3116 
     86 H86        21.2905  -29.0785  -37.0949 H         1 UNK         0.0646 
     87 H87        20.0760  -26.3591  -36.3697 H         1 UNK         0.0847 
     88 H88        20.8358  -27.4905  -35.2621 H         1 UNK         0.0847 
     89 H89        19.3286  -27.9237  -36.0510 H         1 UNK         0.0847 
     90 H90        22.6860  -28.4231  -39.3079 H         1 UNK         0.3040 
     91 H91        25.0040  -26.9615  -38.3574 H         1 UNK         0.1015 
     92 H92        23.4660  -26.0685  -40.8795 H         1 UNK         0.0786 
     93 H93        25.0096  -25.4158  -40.3407 H         1 UNK         0.0786 
     94 H94        23.5627  -25.1346  -39.3912 H         1 UNK         0.0786 
     95 H95        26.6435  -27.0719  -40.3349 H         1 UNK         0.3172 
     96 H96        27.1787  -29.7745  -40.8549 H         1 UNK         0.0595 
     97 H97        29.0157  -28.8676  -42.2923 H         1 UNK         0.0839 
     98 H98        28.9232  -28.0161  -40.7617 H         1 UNK         0.0839 
     99 H99        28.2901  -27.2682  -42.2297 H         1 UNK         0.0839 
    100 H100       25.1415  -27.6410  -42.6953 H         1 UNK         0.2998 
    101 H101       25.2256  -29.1801  -45.1806 H         1 UNK         0.0822 
    102 H102       23.4885  -27.5726  -45.8999 H         1 UNK         0.0787 
    103 H103       23.3313  -26.9551  -44.2635 H         1 UNK         0.0787 
    104 H104       24.8263  -26.7014  -45.1680 H         1 UNK         0.0787 
    105 H105       23.6196  -29.6159  -42.1415 H         1 UNK         0.3055 
    106 H106       21.0950  -30.5851  -43.1177 H         1 UNK         0.1106 
    107 H107       20.6961  -31.1920  -40.7795 H         1 UNK         0.0828 
    108 H108       22.4056  -31.0576  -40.3924 H         1 UNK         0.0828 
    109 H109       21.4799  -29.6179  -40.8174 H         1 UNK         0.0828 
    110 H110       20.2731  -32.7511  -42.9702 H         1 UNK         0.2931 
    111 H111       22.0488  -34.7348  -44.0238 H         1 UNK         0.0412 
    112 H112       22.5113  -37.1567  -41.4312 H         1 UNK         0.3472 
    113 H113       22.3503  -36.9735  -43.1580 H         1 UNK         0.3472 
    114 H114       20.0469  -36.1792  -44.1339 H         1 UNK         0.0970 
    115 H115       19.7948  -34.6301  -44.8638 H         1 UNK         0.0970 
    116 H116       16.3534  -34.1522  -43.6917 H         1 UNK         0.0612 
    117 H117       17.5473  -34.1093  -44.9542 H         1 UNK         0.0612 
@<TRIPOS>BOND
     1    1    2 1    
     2    1   62 1    
     3    1   63 1    
     4    1   64 1    
     5    2    3 2    
     6    2    4 am   BACKBONE|DICT|INTERRES
     7    4    5 1    
     8    4   65 1    
     9    5    6 1    
    10    5   25 1    
    11    5   66 1    
    12    6    7 1    
    13    6   67 1    
    14    6   68 1    
    15    7    8 1    
    16    8    9 1    
    17    8   69 1    
    18    8   70 1    
    19    9   10 ar   
    20    9   14 ar   
    21   10   11 ar   
    22   10   71 1    
    23   11   12 ar   
    24   11   61 1    
    25   12   13 ar   
    26   12   72 1    
    27   13   14 ar   
    28   13   15 1    
    29   14   73 1    
    30   15   16 1    
    31   15   74 1    
    32   15   75 1    
    33   16   17 1    
    34   17   18 1    
    35   17   76 1    
    36   17   77 1    
    37   18   19 1    
    38   18   27 1    
    39   18   78 1    
    40   19   20 am   BACKBONE|DICT|INTERRES
    41   19   79 1    
    42   20   21 2    
    43   20   22 1    
    44   22   23 1    
    45   22   24 1    
    46   22   80 1    
    47   23   81 1    
    48   23   82 1    
    49   23   83 1    
    50   24   25 am   BACKBONE|DICT|INTERRES
    51   24   84 1    
    52   25   26 2    
    53   27   28 2    
    54   27   29 am   BACKBONE|DICT|INTERRES
    55   29   30 1    
    56   29   85 1    
    57   30   31 1    
    58   30   32 1    
    59   30   86 1    
    60   31   87 1    
    61   31   88 1    
    62   31   89 1    
    63   32   33 2    
    64   32   34 am   BACKBONE|DICT|INTERRES
    65   34   35 1    
    66   34   90 1    
    67   35   36 1    
    68   35   37 1    
    69   35   91 1    
    70   36   92 1    
    71   36   93 1    
    72   36   94 1    
    73   37   38 2    
    74   37   39 am   BACKBONE|DICT|INTERRES
    75   39   40 1    
    76   39   95 1    
    77   40   41 1    
    78   40   42 1    
    79   40   96 1    
    80   41   97 1    
    81   41   98 1    
    82   41   99 1    
    83   42   43 2    
    84   42   44 am   BACKBONE|DICT|INTERRES
    85   44   45 1    
    86   44  100 1    
    87   45   46 1    
    88   45   47 1    
    89   45  101 1    
    90   46  102 1    
    91   46  103 1    
    92   46  104 1    
    93   47   48 2    
    94   47   49 am   BACKBONE|DICT|INTERRES
    95   49   50 1    
    96   49  105 1    
    97   50   51 1    
    98   50   52 1    
    99   50  106 1    
   100   51  107 1    
   101   51  108 1    
   102   51  109 1    
   103   52   53 2    
   104   52   54 am   BACKBONE|DICT|INTERRES
   105   54   55 1    
   106   54  110 1    
   107   55   56 1    
   108   55   59 1    
   109   55  111 1    
   110   56   57 am   BACKBONE|DICT|INTERRES
   111   56   58 2    
   112   57  112 1    
   113   57  113 1    
   114   59   60 1    
   115   59  114 1    
   116   59  115 1    
   117   60   61 1    
   118   61  116 1    
   119   61  117 1    
@<TRIPOS>SUBSTRUCTURE
     1 UNK         1 GROUP             0       ****    0 ROOT    
