@<TRIPOS>MOLECULE
3R8
117   119    1
SMALL
USER_CHARGES


@<TRIPOS>ATOM
      1 CA         14.4031  -25.1390  -48.1868 C.3       0 UNK        -0.2013 
      2 C          15.4489  -25.4485  -47.1269 C.2       0 UNK         0.4866 
      3 O          16.6190  -25.1080  -47.3011 O.2       0 UNK        -0.5176 
      4 N          15.0372  -26.0718  -46.0157 N.am      1 UNK        -0.4884 
      5 CA         15.8827  -26.5180  -44.8958 C.3       1 UNK         0.0853 
      6 C6         15.2036  -27.6749  -44.1134 C.3       10 UNK        -0.0849 
      7 S7         14.9998  -29.1572  -45.1661 S.3       10 UNK        -0.2776 
      8 C8         16.0844  -30.3924  -44.3675 C.3       10 UNK         0.0316 
      9 C9         17.4829  -29.8636  -44.0704 C.ar      10 UNK        -0.0863 
     10 C10        17.9361  -29.7976  -42.7485 C.ar      10 UNK        -0.1009 
     11 C11        19.1999  -29.2784  -42.4563 C.ar      10 UNK        -0.0712 
     12 C12        20.0120  -28.8291  -43.4995 C.ar      10 UNK        -0.0894 
     13 C13        19.5731  -28.8831  -44.8225 C.ar      10 UNK        -0.0745 
     14 C14        18.3128  -29.4192  -45.1055 C.ar      10 UNK        -0.0972 
     15 C15        20.4476  -28.3380  -45.9404 C.3       10 UNK         0.0209 
     16 S16        19.9306  -26.6540  -46.4050 S.3       10 UNK        -0.2568 
     17 C17        21.2527  -25.5727  -45.7353 C.3       10 UNK        -0.0983 
     18 CA         20.8810  -24.7440  -44.4674 C.3       3 UNK         0.0876 
     19 N          19.5009  -24.2631  -44.5326 N.am      3 UNK        -0.4424 
     20 C          18.9419  -23.3053  -43.7830 C.2       2 UNK         0.4918 
     21 O          19.5693  -22.5915  -42.9995 O.2       2 UNK        -0.4875 
     22 CA         17.4228  -23.1019  -43.9454 C.3       2 UNK         0.0481 
     23 CB         17.1362  -21.8377  -44.7713 C.3       2 UNK        -0.1831 
     24 N          16.7828  -24.2488  -44.5968 N.am      2 UNK        -0.4498 
     25 C          16.3345  -25.3510  -43.9814 C.2       1 UNK         0.5027 
     26 O          16.2744  -25.4615  -42.7557 O.2       1 UNK        -0.4969 
     27 C          21.1727  -25.5092  -43.1571 C.2       3 UNK         0.5005 
     28 O          20.2535  -25.8453  -42.4069 O.2       3 UNK        -0.5279 
     29 N          22.4592  -25.7915  -42.9198 N.am      4 UNK        -0.4463 
     30 CA         22.9536  -26.6596  -41.8557 C.3       4 UNK         0.0283 
     31 CB         23.6657  -25.8210  -40.7807 C.3       4 UNK        -0.1875 
     32 C          23.9059  -27.6572  -42.5175 C.2       4 UNK         0.4949 
     33 O          24.9612  -27.2527  -43.0082 O.2       4 UNK        -0.5039 
     34 N          23.5168  -28.9361  -42.5536 N.am      5 UNK        -0.4663 
     35 CA         24.2393  -30.0097  -43.2414 C.3       5 UNK         0.0242 
     36 CB         23.2233  -31.0697  -43.7068 C.3       5 UNK        -0.1982 
     37 C          25.3425  -30.5997  -42.3462 C.2       5 UNK         0.5017 
     38 O          25.3305  -31.7983  -42.0664 O.2       5 UNK        -0.5012 
     39 N          26.2438  -29.7317  -41.8612 N.am      6 UNK        -0.4439 
     40 CA         27.3618  -30.0242  -40.9486 C.3       6 UNK         0.0297 
     41 CB         28.4573  -30.8222  -41.6871 C.3       6 UNK        -0.2006 
     42 C          26.9256  -30.7034  -39.6303 C.2       6 UNK         0.4892 
     43 O          27.6677  -31.5228  -39.0867 O.2       6 UNK        -0.5089 
     44 N          25.7111  -30.3657  -39.1672 N.am      7 UNK        -0.4243 
     45 CA         24.9823  -30.9501  -38.0325 C.3       7 UNK         0.0196 
     46 CB         25.7325  -30.7136  -36.7039 C.3       7 UNK        -0.2007 
     47 C          24.5787  -32.4292  -38.2269 C.2       7 UNK         0.5020 
     48 O          24.1874  -33.0760  -37.2548 O.2       7 UNK        -0.5147 
     49 N          24.6330  -32.9354  -39.4666 N.am      8 UNK        -0.4734 
     50 CA         24.2349  -34.2904  -39.8575 C.3       8 UNK         0.0238 
     51 CB         25.4162  -34.9675  -40.5780 C.3       8 UNK        -0.1912 
     52 C          22.9611  -34.2512  -40.7228 C.2       8 UNK         0.5038 
     53 O          22.8282  -35.0404  -41.6601 O.2       8 UNK        -0.5046 
     54 N          22.0552  -33.3200  -40.3971 N.am      9 UNK        -0.4200 
     55 CA         20.7479  -33.1117  -41.0358 C.3       9 UNK         0.0839 
     56 C          19.8275  -34.3608  -40.9567 C.2       9 UNK         0.5513 
     57 N          19.0500  -34.6249  -41.9977 N.am      9 UNK        -0.7519 
     58 O          19.7778  -35.0581  -39.9451 O.2       9 UNK        -0.4960 
     59 C59        20.0283  -31.8805  -40.4291 C.3       10 UNK        -0.0876 
     60 S60        20.9871  -30.3356  -40.6049 S.3       10 UNK        -0.2414 
     61 C61        19.6700  -29.1480  -41.0144 C.3       10 UNK         0.0169 
     62 H62        14.6733  -25.6153  -49.1289 H         1 UNK         0.0903 
     63 H63        13.4133  -25.4934  -47.8995 H         1 UNK         0.0903 
     64 H64        14.3441  -24.0637  -48.3530 H         1 UNK         0.0903 
     65 H65        14.0588  -26.3077  -45.9263 H         1 UNK         0.3096 
     66 H66        16.8083  -26.9168  -45.3183 H         1 UNK         0.1121 
     67 H67        14.2229  -27.3657  -43.7478 H         1 UNK         0.0849 
     68 H68        15.7780  -27.9427  -43.2255 H         1 UNK         0.0849 
     69 H69        15.5999  -30.7384  -43.4530 H         1 UNK         0.0865 
     70 H70        16.1644  -31.2653  -45.0168 H         1 UNK         0.0865 
     71 H71        17.2961  -30.1298  -41.9426 H         1 UNK         0.1346 
     72 H72        20.9780  -28.4061  -43.2784 H         1 UNK         0.1412 
     73 H73        17.9617  -29.4560  -46.1280 H         1 UNK         0.1426 
     74 H74        20.3615  -28.9843  -46.8150 H         1 UNK         0.0716 
     75 H75        21.5000  -28.3562  -45.6539 H         1 UNK         0.0716 
     76 H76        21.4884  -24.8698  -46.5358 H         1 UNK         0.0695 
     77 H77        22.1710  -26.1459  -45.5996 H         1 UNK         0.0695 
     78 H78        21.5234  -23.8607  -44.4461 H         1 UNK         0.0983 
     79 H79        18.8991  -24.8062  -45.1339 H         1 UNK         0.3095 
     80 H80        16.9958  -22.9646  -42.9499 H         1 UNK         0.0454 
     81 H81        17.5797  -20.9572  -44.3043 H         1 UNK         0.0851 
     82 H82        16.0651  -21.6534  -44.8551 H         1 UNK         0.0851 
     83 H83        17.5441  -21.9123  -45.7802 H         1 UNK         0.0851 
     84 H84        16.7838  -24.2644  -45.6142 H         1 UNK         0.2976 
     85 H85        23.1606  -25.5041  -43.5905 H         1 UNK         0.3116 
     86 H86        22.1366  -27.2067  -41.3827 H         1 UNK         0.0646 
     87 H87        24.4980  -25.2493  -41.1933 H         1 UNK         0.0847 
     88 H88        22.9778  -25.1166  -40.3128 H         1 UNK         0.0847 
     89 H89        24.0655  -26.4577  -39.9906 H         1 UNK         0.0847 
     90 H90        22.6685  -29.2100  -42.0749 H         1 UNK         0.3040 
     91 H91        24.7281  -29.6076  -44.1320 H         1 UNK         0.1015 
     92 H92        23.7159  -31.8630  -44.2706 H         1 UNK         0.0786 
     93 H93        22.4620  -30.6364  -44.3557 H         1 UNK         0.0786 
     94 H94        22.7175  -31.5382  -42.8630 H         1 UNK         0.0786 
     95 H95        26.1393  -28.7622  -42.1456 H         1 UNK         0.3172 
     96 H96        27.7870  -29.0602  -40.6659 H         1 UNK         0.0595 
     97 H97        28.1167  -31.8238  -41.9522 H         1 UNK         0.0839 
     98 H98        29.3474  -30.9352  -41.0668 H         1 UNK         0.0839 
     99 H99        28.7662  -30.3193  -42.6034 H         1 UNK         0.0839 
    100 H100       25.1950  -29.6822  -39.7027 H         1 UNK         0.2998 
    101 H101       24.0420  -30.3995  -37.9741 H         1 UNK         0.0822 
    102 H102       25.1140  -30.9922  -35.8498 H         1 UNK         0.0787 
    103 H103       25.9986  -29.6640  -36.5791 H         1 UNK         0.0787 
    104 H104       26.6482  -31.3023  -36.6437 H         1 UNK         0.0787 
    105 H105       24.9469  -32.3452  -40.2331 H         1 UNK         0.3055 
    106 H106       23.9930  -34.8882  -38.9761 H         1 UNK         0.1106 
    107 H107       26.3094  -34.9736  -39.9533 H         1 UNK         0.0828 
    108 H108       25.1857  -36.0052  -40.8223 H         1 UNK         0.0828 
    109 H109       25.6640  -34.4587  -41.5103 H         1 UNK         0.0828 
    110 H110       22.2592  -32.7188  -39.6139 H         1 UNK         0.2931 
    111 H111       20.9403  -32.9074  -42.0906 H         1 UNK         0.0412 
    112 H112       19.0763  -34.0512  -42.8266 H         1 UNK         0.3472 
    113 H113       18.4327  -35.4212  -41.9594 H         1 UNK         0.3472 
    114 H114       19.0550  -31.7503  -40.9049 H         1 UNK         0.0970 
    115 H115       19.8239  -32.0380  -39.3683 H         1 UNK         0.0970 
    116 H116       18.8388  -29.2764  -40.3192 H         1 UNK         0.0612 
    117 H117       20.0410  -28.1363  -40.8503 H         1 UNK         0.0612 
@<TRIPOS>BOND
     1    1    2 1    
     2    1   62 1    
     3    1   63 1    
     4    1   64 1    
     5    2    3 2    
     6    2    4 am   BACKBONE|DICT|INTERRES
     7    4    5 1    
     8    4   65 1    
     9    5    6 1    
    10    5   25 1    
    11    5   66 1    
    12    6    7 1    
    13    6   67 1    
    14    6   68 1    
    15    7    8 1    
    16    8    9 1    
    17    8   69 1    
    18    8   70 1    
    19    9   10 ar   
    20    9   14 ar   
    21   10   11 ar   
    22   10   71 1    
    23   11   12 ar   
    24   11   61 1    
    25   12   13 ar   
    26   12   72 1    
    27   13   14 ar   
    28   13   15 1    
    29   14   73 1    
    30   15   16 1    
    31   15   74 1    
    32   15   75 1    
    33   16   17 1    
    34   17   18 1    
    35   17   76 1    
    36   17   77 1    
    37   18   19 1    
    38   18   27 1    
    39   18   78 1    
    40   19   20 am   BACKBONE|DICT|INTERRES
    41   19   79 1    
    42   20   21 2    
    43   20   22 1    
    44   22   23 1    
    45   22   24 1    
    46   22   80 1    
    47   23   81 1    
    48   23   82 1    
    49   23   83 1    
    50   24   25 am   BACKBONE|DICT|INTERRES
    51   24   84 1    
    52   25   26 2    
    53   27   28 2    
    54   27   29 am   BACKBONE|DICT|INTERRES
    55   29   30 1    
    56   29   85 1    
    57   30   31 1    
    58   30   32 1    
    59   30   86 1    
    60   31   87 1    
    61   31   88 1    
    62   31   89 1    
    63   32   33 2    
    64   32   34 am   BACKBONE|DICT|INTERRES
    65   34   35 1    
    66   34   90 1    
    67   35   36 1    
    68   35   37 1    
    69   35   91 1    
    70   36   92 1    
    71   36   93 1    
    72   36   94 1    
    73   37   38 2    
    74   37   39 am   BACKBONE|DICT|INTERRES
    75   39   40 1    
    76   39   95 1    
    77   40   41 1    
    78   40   42 1    
    79   40   96 1    
    80   41   97 1    
    81   41   98 1    
    82   41   99 1    
    83   42   43 2    
    84   42   44 am   BACKBONE|DICT|INTERRES
    85   44   45 1    
    86   44  100 1    
    87   45   46 1    
    88   45   47 1    
    89   45  101 1    
    90   46  102 1    
    91   46  103 1    
    92   46  104 1    
    93   47   48 2    
    94   47   49 am   BACKBONE|DICT|INTERRES
    95   49   50 1    
    96   49  105 1    
    97   50   51 1    
    98   50   52 1    
    99   50  106 1    
   100   51  107 1    
   101   51  108 1    
   102   51  109 1    
   103   52   53 2    
   104   52   54 am   BACKBONE|DICT|INTERRES
   105   54   55 1    
   106   54  110 1    
   107   55   56 1    
   108   55   59 1    
   109   55  111 1    
   110   56   57 am   BACKBONE|DICT|INTERRES
   111   56   58 2    
   112   57  112 1    
   113   57  113 1    
   114   59   60 1    
   115   59  114 1    
   116   59  115 1    
   117   60   61 1    
   118   61  116 1    
   119   61  117 1    
@<TRIPOS>SUBSTRUCTURE
     1 UNK         1 GROUP             0       ****    0 ROOT    
