@<TRIPOS>MOLECULE
3R8
117   119    1
SMALL
USER_CHARGES


@<TRIPOS>ATOM
      1 CA         11.8739  -26.3017  -42.7344 C.3       0 UNK        -0.2013 
      2 C          13.3316  -25.9857  -43.0346 C.2       0 UNK         0.4866 
      3 O          13.9147  -25.1124  -42.3910 O.2       0 UNK        -0.5176 
      4 N          13.9214  -26.6812  -44.0138 N.am      1 UNK        -0.4884 
      5 CA         15.3357  -26.5753  -44.3851 C.3       1 UNK         0.0853 
      6 C6         15.6025  -27.1286  -45.8108 C.3       10 UNK        -0.0849 
      7 S7         14.9560  -28.8150  -46.0970 S.3       10 UNK        -0.2776 
      8 C8         16.1617  -29.4815  -47.2881 C.3       10 UNK         0.0316 
      9 C9         17.4664  -29.9138  -46.6304 C.ar      10 UNK        -0.0863 
     10 C10        17.4770  -30.9903  -45.7381 C.ar      10 UNK        -0.1009 
     11 C11        18.6757  -31.4406  -45.1746 C.ar      10 UNK        -0.0712 
     12 C12        19.8741  -30.8078  -45.5229 C.ar      10 UNK        -0.0894 
     13 C13        19.8822  -29.7466  -46.4333 C.ar      10 UNK        -0.0745 
     14 C14        18.6726  -29.2921  -46.9693 C.ar      10 UNK        -0.0972 
     15 C15        21.1995  -29.1508  -46.9139 C.3       10 UNK         0.0209 
     16 S16        21.6270  -27.5998  -46.0674 S.3       10 UNK        -0.2568 
     17 C17        22.5505  -28.1990  -44.6126 C.3       10 UNK        -0.0983 
     18 CA         22.2225  -27.3660  -43.3498 C.3       3 UNK         0.0876 
     19 N          20.8669  -27.6110  -42.8737 N.am      3 UNK        -0.4424 
     20 C          19.8589  -26.7405  -42.9278 C.2       2 UNK         0.4918 
     21 O          19.9451  -25.6013  -43.3934 O.2       2 UNK        -0.4875 
     22 CA         18.5281  -27.2088  -42.3407 C.3       2 UNK         0.0481 
     23 CB         18.3539  -26.7145  -40.8945 C.3       2 UNK        -0.1831 
     24 N          17.4630  -26.6956  -43.1919 N.am      2 UNK        -0.4498 
     25 C          16.2484  -27.2354  -43.3298 C.2       1 UNK         0.5027 
     26 O          15.8518  -28.2113  -42.6870 O.2       1 UNK        -0.4969 
     27 C          23.1550  -27.6626  -42.1668 C.2       3 UNK         0.5005 
     28 O          23.8940  -28.6505  -42.1768 O.2       3 UNK        -0.5279 
     29 N          23.0818  -26.7999  -41.1418 N.am      4 UNK        -0.4463 
     30 CA         23.8257  -26.9033  -39.8810 C.3       4 UNK         0.0283 
     31 CB         23.3874  -25.7743  -38.9355 C.3       4 UNK        -0.1875 
     32 C          25.3557  -26.9040  -40.0456 C.2       4 UNK         0.4949 
     33 O          26.0436  -27.5153  -39.2300 O.2       4 UNK        -0.5039 
     34 N          25.8588  -26.2812  -41.1213 N.am      5 UNK        -0.4663 
     35 CA         27.2693  -26.3116  -41.5247 C.3       5 UNK         0.0242 
     36 CB         27.4875  -25.3109  -42.6709 C.3       5 UNK        -0.1982 
     37 C          27.7635  -27.7137  -41.9331 C.2       5 UNK         0.5017 
     38 O          28.9522  -27.9967  -41.7834 O.2       5 UNK        -0.5012 
     39 N          26.8470  -28.5640  -42.4169 N.am      6 UNK        -0.4439 
     40 CA         27.0816  -29.9767  -42.7258 C.3       6 UNK         0.0297 
     41 CB         26.3689  -30.3110  -44.0488 C.3       6 UNK        -0.2006 
     42 C          26.5814  -30.9029  -41.5994 C.2       6 UNK         0.4892 
     43 O          26.7364  -32.1188  -41.7188 O.2       6 UNK        -0.5089 
     44 N          25.9713  -30.3227  -40.5521 N.am      7 UNK        -0.4243 
     45 CA         25.2620  -30.9717  -39.4434 C.3       7 UNK         0.0196 
     46 CB         26.2480  -31.7385  -38.5368 C.3       7 UNK        -0.2007 
     47 C          24.0761  -31.8378  -39.9164 C.2       7 UNK         0.5020 
     48 O          23.7958  -32.8738  -39.3108 O.2       7 UNK        -0.5147 
     49 N          23.4074  -31.4101  -40.9955 N.am      8 UNK        -0.4734 
     50 CA         22.3353  -32.1499  -41.6559 C.3       8 UNK         0.0238 
     51 CB         22.7112  -32.3238  -43.1367 C.3       8 UNK        -0.1912 
     52 C          21.0194  -31.3804  -41.4975 C.2       8 UNK         0.5038 
     53 O          20.9559  -30.2095  -41.8746 O.2       8 UNK        -0.5046 
     54 N          19.9967  -32.0444  -40.9431 N.am      9 UNK        -0.4200 
     55 CA         18.6491  -31.5006  -40.6796 C.3       9 UNK         0.0839 
     56 C          18.5879  -30.3474  -39.6285 C.2       9 UNK         0.5513 
     57 N          19.6624  -30.0316  -38.9158 N.am      9 UNK        -0.7519 
     58 O          17.5319  -29.7586  -39.4161 O.2       9 UNK        -0.4960 
     59 C59        17.8717  -31.1605  -41.9852 C.3       10 UNK        -0.0876 
     60 S60        17.4255  -32.6419  -42.9488 S.3       10 UNK        -0.2414 
     61 C61        18.7007  -32.6564  -44.2519 C.3       10 UNK         0.0169 
     62 H62        11.2613  -25.4103  -42.8670 H         1 UNK         0.0903 
     63 H63        11.4831  -27.0819  -43.3874 H         1 UNK         0.0903 
     64 H64        11.7682  -26.6382  -41.7034 H         1 UNK         0.0903 
     65 H65        13.4140  -27.4162  -44.4872 H         1 UNK         0.3096 
     66 H66        15.5832  -25.5110  -44.3999 H         1 UNK         0.1121 
     67 H67        15.1340  -26.4707  -46.5444 H         1 UNK         0.0849 
     68 H68        16.6703  -27.1011  -46.0370 H         1 UNK         0.0849 
     69 H69        15.7185  -30.3470  -47.7826 H         1 UNK         0.0865 
     70 H70        16.3398  -28.7452  -48.0737 H         1 UNK         0.0865 
     71 H71        16.5485  -31.4882  -45.4939 H         1 UNK         0.1346 
     72 H72        20.8087  -31.1672  -45.1173 H         1 UNK         0.1412 
     73 H73        18.6791  -28.4789  -47.6825 H         1 UNK         0.1426 
     74 H74        22.0137  -29.8689  -46.8034 H         1 UNK         0.0716 
     75 H75        21.1287  -28.9478  -47.9835 H         1 UNK         0.0716 
     76 H76        23.6141  -28.1416  -44.8512 H         1 UNK         0.0695 
     77 H77        22.3271  -29.2518  -44.4399 H         1 UNK         0.0695 
     78 H78        22.3621  -26.3109  -43.5960 H         1 UNK         0.0983 
     79 H79        20.7322  -28.5311  -42.4524 H         1 UNK         0.3095 
     80 H80        18.5054  -28.2972  -42.3530 H         1 UNK         0.0454 
     81 H81        18.3652  -25.6256  -40.8353 H         1 UNK         0.0851 
     82 H82        19.1560  -27.0882  -40.2567 H         1 UNK         0.0851 
     83 H83        17.4143  -27.0647  -40.4668 H         1 UNK         0.0851 
     84 H84        17.7397  -25.9085  -43.7661 H         1 UNK         0.2976 
     85 H85        22.4321  -26.0297  -41.2161 H         1 UNK         0.3116 
     86 H86        23.5509  -27.8559  -39.4230 H         1 UNK         0.0646 
     87 H87        23.6042  -24.7899  -39.3522 H         1 UNK         0.0847 
     88 H88        23.9066  -25.8435  -37.9783 H         1 UNK         0.0847 
     89 H89        22.3190  -25.8237  -38.7245 H         1 UNK         0.0847 
     90 H90        25.2197  -25.7922  -41.7313 H         1 UNK         0.3040 
     91 H91        27.8698  -25.9930  -40.6695 H         1 UNK         0.1015 
     92 H92        26.8969  -25.5684  -43.5511 H         1 UNK         0.0786 
     93 H93        28.5348  -25.2902  -42.9763 H         1 UNK         0.0786 
     94 H94        27.2205  -24.2975  -42.3702 H         1 UNK         0.0786 
     95 H95        25.8795  -28.2621  -42.4730 H         1 UNK         0.3172 
     96 H96        28.1494  -30.1638  -42.8554 H         1 UNK         0.0595 
     97 H97        26.5580  -31.3434  -44.3459 H         1 UNK         0.0839 
     98 H98        26.7181  -29.6728  -44.8605 H         1 UNK         0.0839 
     99 H99        25.2878  -30.1901  -43.9678 H         1 UNK         0.0839 
    100 H100       25.9319  -29.3122  -40.5443 H         1 UNK         0.2998 
    101 H101       24.8274  -30.1666  -38.8493 H         1 UNK         0.0822 
    102 H102       25.7494  -32.1071  -37.6395 H         1 UNK         0.0787 
    103 H103       26.6798  -32.6006  -39.0460 H         1 UNK         0.0787 
    104 H104       27.0661  -31.0964  -38.2103 H         1 UNK         0.0787 
    105 H105       23.6425  -30.5086  -41.4036 H         1 UNK         0.3055 
    106 H106       22.2237  -33.1449  -41.2192 H         1 UNK         0.1106 
    107 H107       21.9666  -32.9140  -43.6693 H         1 UNK         0.0828 
    108 H108       22.8060  -31.3652  -43.6455 H         1 UNK         0.0828 
    109 H109       23.6638  -32.8442  -43.2395 H         1 UNK         0.0828 
    110 H110       20.1398  -32.9973  -40.6415 H         1 UNK         0.2931 
    111 H111       18.1122  -32.3155  -40.1925 H         1 UNK         0.0412 
    112 H112       20.5349  -30.5098  -39.0681 H         1 UNK         0.3472 
    113 H113       19.5974  -29.3024  -38.2236 H         1 UNK         0.3472 
    114 H114       16.9351  -30.6460  -41.7625 H         1 UNK         0.0970 
    115 H115       18.4394  -30.4765  -42.6130 H         1 UNK         0.0970 
    116 H116       18.5613  -33.5513  -44.8594 H         1 UNK         0.0612 
    117 H117       19.6737  -32.7605  -43.7755 H         1 UNK         0.0612 
@<TRIPOS>BOND
     1    1    2 1    
     2    1   62 1    
     3    1   63 1    
     4    1   64 1    
     5    2    3 2    
     6    2    4 am   BACKBONE|DICT|INTERRES
     7    4    5 1    
     8    4   65 1    
     9    5    6 1    
    10    5   25 1    
    11    5   66 1    
    12    6    7 1    
    13    6   67 1    
    14    6   68 1    
    15    7    8 1    
    16    8    9 1    
    17    8   69 1    
    18    8   70 1    
    19    9   10 ar   
    20    9   14 ar   
    21   10   11 ar   
    22   10   71 1    
    23   11   12 ar   
    24   11   61 1    
    25   12   13 ar   
    26   12   72 1    
    27   13   14 ar   
    28   13   15 1    
    29   14   73 1    
    30   15   16 1    
    31   15   74 1    
    32   15   75 1    
    33   16   17 1    
    34   17   18 1    
    35   17   76 1    
    36   17   77 1    
    37   18   19 1    
    38   18   27 1    
    39   18   78 1    
    40   19   20 am   BACKBONE|DICT|INTERRES
    41   19   79 1    
    42   20   21 2    
    43   20   22 1    
    44   22   23 1    
    45   22   24 1    
    46   22   80 1    
    47   23   81 1    
    48   23   82 1    
    49   23   83 1    
    50   24   25 am   BACKBONE|DICT|INTERRES
    51   24   84 1    
    52   25   26 2    
    53   27   28 2    
    54   27   29 am   BACKBONE|DICT|INTERRES
    55   29   30 1    
    56   29   85 1    
    57   30   31 1    
    58   30   32 1    
    59   30   86 1    
    60   31   87 1    
    61   31   88 1    
    62   31   89 1    
    63   32   33 2    
    64   32   34 am   BACKBONE|DICT|INTERRES
    65   34   35 1    
    66   34   90 1    
    67   35   36 1    
    68   35   37 1    
    69   35   91 1    
    70   36   92 1    
    71   36   93 1    
    72   36   94 1    
    73   37   38 2    
    74   37   39 am   BACKBONE|DICT|INTERRES
    75   39   40 1    
    76   39   95 1    
    77   40   41 1    
    78   40   42 1    
    79   40   96 1    
    80   41   97 1    
    81   41   98 1    
    82   41   99 1    
    83   42   43 2    
    84   42   44 am   BACKBONE|DICT|INTERRES
    85   44   45 1    
    86   44  100 1    
    87   45   46 1    
    88   45   47 1    
    89   45  101 1    
    90   46  102 1    
    91   46  103 1    
    92   46  104 1    
    93   47   48 2    
    94   47   49 am   BACKBONE|DICT|INTERRES
    95   49   50 1    
    96   49  105 1    
    97   50   51 1    
    98   50   52 1    
    99   50  106 1    
   100   51  107 1    
   101   51  108 1    
   102   51  109 1    
   103   52   53 2    
   104   52   54 am   BACKBONE|DICT|INTERRES
   105   54   55 1    
   106   54  110 1    
   107   55   56 1    
   108   55   59 1    
   109   55  111 1    
   110   56   57 am   BACKBONE|DICT|INTERRES
   111   56   58 2    
   112   57  112 1    
   113   57  113 1    
   114   59   60 1    
   115   59  114 1    
   116   59  115 1    
   117   60   61 1    
   118   61  116 1    
   119   61  117 1    
@<TRIPOS>SUBSTRUCTURE
     1 UNK         1 GROUP             0       ****    0 ROOT    
