@<TRIPOS>MOLECULE
3R8
117   119    1
SMALL
USER_CHARGES


@<TRIPOS>ATOM
      1 CA         20.6126  -26.1669  -38.8993 C.3       0 UNK        -0.2013 
      2 C          19.9437  -25.7893  -40.2116 C.2       0 UNK         0.4866 
      3 O          19.8681  -24.6058  -40.5439 O.2       0 UNK        -0.5176 
      4 N          19.4441  -26.7850  -40.9541 N.am      1 UNK        -0.4884 
      5 CA         18.8201  -26.6069  -42.2694 C.3       1 UNK         0.0853 
      6 C6         18.0788  -27.8774  -42.7425 C.3       10 UNK        -0.0849 
      7 S7         16.7720  -28.4422  -41.6021 S.3       10 UNK        -0.2776 
      8 C8         15.6017  -29.2453  -42.7525 C.3       10 UNK         0.0316 
      9 C9         16.3064  -30.1546  -43.7526 C.ar      10 UNK        -0.0863 
     10 C10        16.9659  -31.3067  -43.3148 C.ar      10 UNK        -0.1009 
     11 C11        17.6698  -32.1073  -44.2191 C.ar      10 UNK        -0.0712 
     12 C12        17.6954  -31.7593  -45.5725 C.ar      10 UNK        -0.0894 
     13 C13        17.0473  -30.6053  -46.0210 C.ar      10 UNK        -0.0745 
     14 C14        16.3410  -29.8152  -45.1096 C.ar      10 UNK        -0.0972 
     15 C15        17.1445  -30.1934  -47.4833 C.3       10 UNK         0.0209 
     16 S16        18.2115  -28.7325  -47.7147 S.3       10 UNK        -0.2568 
     17 C17        19.8105  -29.3258  -47.0606 C.3       10 UNK        -0.0983 
     18 CA         20.8988  -28.2231  -47.0284 C.3       3 UNK         0.0876 
     19 N          20.4440  -27.0392  -46.2945 N.am      3 UNK        -0.4424 
     20 C          21.0798  -25.8633  -46.2194 C.2       2 UNK         0.4918 
     21 O          22.1101  -25.6016  -46.8398 O.2       2 UNK        -0.4875 
     22 CA         20.4818  -24.8018  -45.2713 C.3       2 UNK         0.0481 
     23 CB         19.7484  -23.7211  -46.0812 C.3       2 UNK        -0.1831 
     24 N          19.5797  -25.3128  -44.2256 N.am      2 UNK        -0.4498 
     25 C          19.8910  -26.2445  -43.3127 C.2       1 UNK         0.5027 
     26 O          20.9533  -26.8685  -43.3143 O.2       1 UNK        -0.4969 
     27 C          22.2204  -28.8060  -46.4738 C.2       3 UNK         0.5005 
     28 O          22.9698  -29.4104  -47.2433 O.2       3 UNK        -0.5279 
     29 N          22.4792  -28.6307  -45.1680 N.am      4 UNK        -0.4463 
     30 CA         23.6655  -29.1411  -44.4694 C.3       4 UNK         0.0283 
     31 CB         23.2635  -30.3532  -43.6135 C.3       4 UNK        -0.1875 
     32 C          24.3785  -28.0692  -43.6247 C.2       4 UNK         0.4949 
     33 O          25.5672  -28.2278  -43.3453 O.2       4 UNK        -0.5039 
     34 N          23.6661  -27.0010  -43.2394 N.am      5 UNK        -0.4663 
     35 CA         24.0893  -25.7847  -42.5318 C.3       5 UNK         0.0242 
     36 CB         25.1614  -25.0158  -43.3270 C.3       5 UNK        -0.1982 
     37 C          24.5167  -25.9895  -41.0691 C.2       5 UNK         0.5017 
     38 O          24.1026  -25.2099  -40.2110 O.2       5 UNK        -0.5012 
     39 N          25.3333  -27.0153  -40.8050 N.am      6 UNK        -0.4439 
     40 CA         25.8653  -27.3486  -39.4803 C.3       6 UNK         0.0297 
     41 CB         27.0307  -28.3376  -39.6421 C.3       6 UNK        -0.2006 
     42 C          24.8103  -27.9205  -38.5164 C.2       6 UNK         0.4892 
     43 O          24.9499  -27.7562  -37.3040 O.2       6 UNK        -0.5089 
     44 N          23.7899  -28.5849  -39.0678 N.am      7 UNK        -0.4243 
     45 CA         22.6975  -29.2566  -38.3711 C.3       7 UNK         0.0196 
     46 CB         23.2188  -30.5236  -37.6598 C.3       7 UNK        -0.2007 
     47 C          21.6328  -29.6157  -39.4141 C.2       7 UNK         0.5020 
     48 O          21.8567  -29.4220  -40.6109 O.2       7 UNK        -0.5147 
     49 N          20.5063  -30.1822  -38.9668 N.am      8 UNK        -0.4734 
     50 CA         19.4686  -30.7667  -39.8268 C.3       8 UNK         0.0238 
     51 CB         18.1329  -30.7825  -39.0609 C.3       8 UNK        -0.1912 
     52 C          19.8868  -32.1653  -40.3291 C.2       8 UNK         0.5038 
     53 O          19.2107  -33.1546  -40.0440 O.2       8 UNK        -0.5046 
     54 N          21.0260  -32.2120  -41.0307 N.am      9 UNK        -0.4200 
     55 CA         21.7059  -33.4070  -41.5639 C.3       9 UNK         0.0839 
     56 C          22.3298  -34.3440  -40.4852 C.2       9 UNK         0.5513 
     57 N          22.4132  -33.9438  -39.2222 N.am      9 UNK        -0.7519 
     58 O          22.7788  -35.4424  -40.8030 O.2       9 UNK        -0.4960 
     59 C59        20.8667  -34.1936  -42.6120 C.3       10 UNK        -0.0876 
     60 S60        20.2225  -33.1228  -43.9423 S.3       10 UNK        -0.2414 
     61 C61        18.4254  -33.3315  -43.7296 C.3       10 UNK         0.0169 
     62 H62        20.4637  -25.3824  -38.1572 H         1 UNK         0.0903 
     63 H63        20.2009  -27.0906  -38.4940 H         1 UNK         0.0903 
     64 H64        21.6849  -26.2944  -39.0486 H         1 UNK         0.0903 
     65 H65        19.5654  -27.7419  -40.6566 H         1 UNK         0.3096 
     66 H66        18.1024  -25.7866  -42.1973 H         1 UNK         0.1121 
     67 H67        18.7764  -28.7059  -42.8880 H         1 UNK         0.0849 
     68 H68        17.6241  -27.6873  -43.7165 H         1 UNK         0.0849 
     69 H69        14.8790  -29.8273  -42.1789 H         1 UNK         0.0865 
     70 H70        15.0301  -28.4728  -43.2691 H         1 UNK         0.0865 
     71 H71        16.9537  -31.5608  -42.2636 H         1 UNK         0.1346 
     72 H72        18.2532  -32.3708  -46.2687 H         1 UNK         0.1412 
     73 H73        15.8500  -28.9158  -45.4561 H         1 UNK         0.1426 
     74 H74        16.1467  -29.9672  -47.8619 H         1 UNK         0.0716 
     75 H75        17.5254  -31.0135  -48.0942 H         1 UNK         0.0716 
     76 H76        20.1356  -30.1683  -47.6741 H         1 UNK         0.0695 
     77 H77        19.6526  -29.7189  -46.0544 H         1 UNK         0.0695 
     78 H78        21.0963  -27.9091  -48.0557 H         1 UNK         0.0983 
     79 H79        19.5814  -27.1465  -45.7835 H         1 UNK         0.3095 
     80 H80        21.3229  -24.3290  -44.7604 H         1 UNK         0.0454 
     81 H81        18.8710  -24.1233  -46.5887 H         1 UNK         0.0851 
     82 H82        20.3993  -23.2954  -46.8463 H         1 UNK         0.0851 
     83 H83        19.4228  -22.8980  -45.4451 H         1 UNK         0.0851 
     84 H84        18.6743  -24.8682  -44.1701 H         1 UNK         0.2976 
     85 H85        21.8134  -28.1051  -44.6107 H         1 UNK         0.3116 
     86 H86        24.4076  -29.4790  -45.1956 H         1 UNK         0.0646 
     87 H87        22.4121  -30.1235  -42.9756 H         1 UNK         0.0847 
     88 H88        24.0824  -30.6813  -42.9720 H         1 UNK         0.0847 
     89 H89        22.9825  -31.1995  -44.2405 H         1 UNK         0.0847 
     90 H90        22.6609  -27.0235  -43.4049 H         1 UNK         0.3040 
     91 H91        23.1988  -25.1538  -42.4986 H         1 UNK         0.1015 
     92 H92        26.0928  -25.5769  -43.4076 H         1 UNK         0.0786 
     93 H93        25.3964  -24.0661  -42.8447 H         1 UNK         0.0786 
     94 H94        24.8175  -24.7902  -44.3365 H         1 UNK         0.0786 
     95 H95        25.6179  -27.5926  -41.5939 H         1 UNK         0.3172 
     96 H96        26.2566  -26.4323  -39.0332 H         1 UNK         0.0595 
     97 H97        26.7076  -29.2702  -40.1067 H         1 UNK         0.0839 
     98 H98        27.4669  -28.5892  -38.6743 H         1 UNK         0.0839 
     99 H99        27.8275  -27.9158  -40.2550 H         1 UNK         0.0839 
    100 H100       23.7138  -28.6316  -40.0773 H         1 UNK         0.2998 
    101 H101       22.2597  -28.5698  -37.6444 H         1 UNK         0.0822 
    102 H102       23.9731  -30.2814  -36.9113 H         1 UNK         0.0787 
    103 H103       22.4188  -31.0495  -37.1379 H         1 UNK         0.0787 
    104 H104       23.6676  -31.2235  -38.3659 H         1 UNK         0.0787 
    105 H105       20.3971  -30.3292  -37.9728 H         1 UNK         0.3055 
    106 H106       19.3345  -30.1399  -40.7115 H         1 UNK         0.1106 
    107 H107       18.1863  -31.3985  -38.1624 H         1 UNK         0.0828 
    108 H108       17.3314  -31.1816  -39.6839 H         1 UNK         0.0828 
    109 H109       17.8352  -29.7769  -38.7632 H         1 UNK         0.0828 
    110 H110       21.5098  -31.3325  -41.1744 H         1 UNK         0.2931 
    111 H111       22.5692  -33.0066  -42.0964 H         1 UNK         0.0412 
    112 H112       22.8297  -34.5559  -38.5380 H         1 UNK         0.3472 
    113 H113       22.0382  -33.0528  -38.9439 H         1 UNK         0.3472 
    114 H114       20.0512  -34.7285  -42.1231 H         1 UNK         0.0970 
    115 H115       21.4802  -34.9621  -43.0856 H         1 UNK         0.0970 
    116 H116       18.0966  -34.2140  -44.2798 H         1 UNK         0.0612 
    117 H117       18.1939  -33.5147  -42.6795 H         1 UNK         0.0612 
@<TRIPOS>BOND
     1    1    2 1    
     2    1   62 1    
     3    1   63 1    
     4    1   64 1    
     5    2    3 2    
     6    2    4 am   BACKBONE|DICT|INTERRES
     7    4    5 1    
     8    4   65 1    
     9    5    6 1    
    10    5   25 1    
    11    5   66 1    
    12    6    7 1    
    13    6   67 1    
    14    6   68 1    
    15    7    8 1    
    16    8    9 1    
    17    8   69 1    
    18    8   70 1    
    19    9   10 ar   
    20    9   14 ar   
    21   10   11 ar   
    22   10   71 1    
    23   11   12 ar   
    24   11   61 1    
    25   12   13 ar   
    26   12   72 1    
    27   13   14 ar   
    28   13   15 1    
    29   14   73 1    
    30   15   16 1    
    31   15   74 1    
    32   15   75 1    
    33   16   17 1    
    34   17   18 1    
    35   17   76 1    
    36   17   77 1    
    37   18   19 1    
    38   18   27 1    
    39   18   78 1    
    40   19   20 am   BACKBONE|DICT|INTERRES
    41   19   79 1    
    42   20   21 2    
    43   20   22 1    
    44   22   23 1    
    45   22   24 1    
    46   22   80 1    
    47   23   81 1    
    48   23   82 1    
    49   23   83 1    
    50   24   25 am   BACKBONE|DICT|INTERRES
    51   24   84 1    
    52   25   26 2    
    53   27   28 2    
    54   27   29 am   BACKBONE|DICT|INTERRES
    55   29   30 1    
    56   29   85 1    
    57   30   31 1    
    58   30   32 1    
    59   30   86 1    
    60   31   87 1    
    61   31   88 1    
    62   31   89 1    
    63   32   33 2    
    64   32   34 am   BACKBONE|DICT|INTERRES
    65   34   35 1    
    66   34   90 1    
    67   35   36 1    
    68   35   37 1    
    69   35   91 1    
    70   36   92 1    
    71   36   93 1    
    72   36   94 1    
    73   37   38 2    
    74   37   39 am   BACKBONE|DICT|INTERRES
    75   39   40 1    
    76   39   95 1    
    77   40   41 1    
    78   40   42 1    
    79   40   96 1    
    80   41   97 1    
    81   41   98 1    
    82   41   99 1    
    83   42   43 2    
    84   42   44 am   BACKBONE|DICT|INTERRES
    85   44   45 1    
    86   44  100 1    
    87   45   46 1    
    88   45   47 1    
    89   45  101 1    
    90   46  102 1    
    91   46  103 1    
    92   46  104 1    
    93   47   48 2    
    94   47   49 am   BACKBONE|DICT|INTERRES
    95   49   50 1    
    96   49  105 1    
    97   50   51 1    
    98   50   52 1    
    99   50  106 1    
   100   51  107 1    
   101   51  108 1    
   102   51  109 1    
   103   52   53 2    
   104   52   54 am   BACKBONE|DICT|INTERRES
   105   54   55 1    
   106   54  110 1    
   107   55   56 1    
   108   55   59 1    
   109   55  111 1    
   110   56   57 am   BACKBONE|DICT|INTERRES
   111   56   58 2    
   112   57  112 1    
   113   57  113 1    
   114   59   60 1    
   115   59  114 1    
   116   59  115 1    
   117   60   61 1    
   118   61  116 1    
   119   61  117 1    
@<TRIPOS>SUBSTRUCTURE
     1 UNK         1 GROUP             0       ****    0 ROOT    
