@<TRIPOS>MOLECULE
3R8
117   119    1
SMALL
USER_CHARGES


@<TRIPOS>ATOM
      1 CA         23.3831  -24.1840  -49.2320 C.3       0 UNK        -0.2013 
      2 C          22.6684  -25.2496  -48.4145 C.2       0 UNK         0.4866 
      3 O          23.1047  -26.4007  -48.3917 O.2       0 UNK        -0.5176 
      4 N          21.5755  -24.8776  -47.7420 N.am      1 UNK        -0.4884 
      5 CA         20.7710  -25.7490  -46.8901 C.3       1 UNK         0.0853 
      6 C6         19.8119  -26.6450  -47.7312 C.3       10 UNK        -0.0849 
      7 S7         18.4461  -27.4416  -46.8135 S.3       10 UNK        -0.2776 
      8 C8         19.1499  -29.0685  -46.3749 C.3       10 UNK         0.0316 
      9 C9         18.5987  -29.6219  -45.0600 C.ar      10 UNK        -0.0863 
     10 C10        19.4479  -30.3190  -44.1944 C.ar      10 UNK        -0.1009 
     11 C11        18.9789  -30.8052  -42.9697 C.ar      10 UNK        -0.0712 
     12 C12        17.6408  -30.6075  -42.6156 C.ar      10 UNK        -0.0894 
     13 C13        16.7811  -29.9062  -43.4658 C.ar      10 UNK        -0.0745 
     14 C14        17.2591  -29.4405  -44.6936 C.ar      10 UNK        -0.0972 
     15 C15        15.3474  -29.6079  -43.0492 C.3       10 UNK         0.0209 
     16 S16        15.0987  -27.8270  -42.7297 S.3       10 UNK        -0.2568 
     17 C17        15.9211  -27.5932  -41.1162 C.3       10 UNK        -0.0983 
     18 CA         17.4409  -27.3203  -41.2324 C.3       3 UNK         0.0876 
     19 N          17.7690  -26.1735  -42.0854 N.am      3 UNK        -0.4424 
     20 C          19.0102  -25.9064  -42.5092 C.2       2 UNK         0.4918 
     21 O          20.0072  -26.5449  -42.1611 O.2       2 UNK        -0.4875 
     22 CA         19.1815  -24.7739  -43.5235 C.3       2 UNK         0.0481 
     23 CB         19.9321  -23.5774  -42.9120 C.3       2 UNK        -0.1831 
     24 N          19.9286  -25.3480  -44.6346 N.am      2 UNK        -0.4498 
     25 C          20.0630  -24.8431  -45.8641 C.2       1 UNK         0.5027 
     26 O          19.6488  -23.7326  -46.2098 O.2       1 UNK        -0.4969 
     27 C          18.0987  -27.2099  -39.8448 C.2       3 UNK         0.5005 
     28 O          18.1503  -26.1166  -39.2765 O.2       3 UNK        -0.5279 
     29 N          18.6308  -28.3404  -39.3567 N.am      4 UNK        -0.4463 
     30 CA         19.4303  -28.5358  -38.1364 C.3       4 UNK         0.0283 
     31 CB         18.6543  -28.1191  -36.8714 C.3       4 UNK        -0.1875 
     32 C          20.8281  -27.8849  -38.1700 C.2       4 UNK         0.4949 
     33 O          21.7589  -28.4474  -37.5937 O.2       4 UNK        -0.5039 
     34 N          20.9624  -26.7308  -38.8344 N.am      5 UNK        -0.4663 
     35 CA         22.2186  -26.0045  -39.0191 C.3       5 UNK         0.0242 
     36 CB         21.9107  -24.5692  -39.4730 C.3       5 UNK        -0.1982 
     37 C          23.1706  -26.6972  -40.0083 C.2       5 UNK         0.5017 
     38 O          24.3788  -26.7070  -39.7681 O.2       5 UNK        -0.5012 
     39 N          22.6212  -27.2522  -41.0986 N.am      6 UNK        -0.4439 
     40 CA         23.3659  -27.9906  -42.1193 C.3       6 UNK         0.0297 
     41 CB         22.4627  -28.2376  -43.3377 C.3       6 UNK        -0.2006 
     42 C          23.9184  -29.3191  -41.5782 C.2       6 UNK         0.4892 
     43 O          23.1719  -30.1010  -40.9860 O.2       6 UNK        -0.5089 
     44 N          25.2079  -29.5650  -41.8415 N.am      7 UNK        -0.4243 
     45 CA         25.9514  -30.7560  -41.4150 C.3       7 UNK         0.0196 
     46 CB         27.4561  -30.4364  -41.4595 C.3       7 UNK        -0.2007 
     47 C          25.6386  -32.0270  -42.2303 C.2       7 UNK         0.5020 
     48 O          26.1911  -33.0838  -41.9247 O.2       7 UNK        -0.5147 
     49 N          24.7818  -31.9148  -43.2557 N.am      8 UNK        -0.4734 
     50 CA         24.3426  -33.0175  -44.1172 C.3       8 UNK         0.0238 
     51 CB         23.5309  -32.4446  -45.2912 C.3       8 UNK        -0.1912 
     52 C          23.5264  -34.0950  -43.3796 C.2       8 UNK         0.5038 
     53 O          23.5690  -35.2586  -43.7819 O.2       8 UNK        -0.5046 
     54 N          22.8042  -33.6917  -42.3276 N.am      9 UNK        -0.4200 
     55 CA         22.0450  -34.5855  -41.4462 C.3       9 UNK         0.0839 
     56 C          22.9774  -35.2253  -40.3865 C.2       9 UNK         0.5513 
     57 N          22.9119  -36.5373  -40.2079 N.am      9 UNK        -0.7519 
     58 O          23.7239  -34.5354  -39.6957 O.2       9 UNK        -0.4960 
     59 C59        20.8635  -33.8471  -40.7701 C.3       10 UNK        -0.0876 
     60 S60        19.6164  -33.3023  -41.9847 S.3       10 UNK        -0.2414 
     61 C61        19.9237  -31.5127  -42.0116 C.3       10 UNK         0.0169 
     62 H62        22.8868  -23.2161  -49.1634 H         1 UNK         0.0903 
     63 H63        24.4077  -24.0656  -48.8804 H         1 UNK         0.0903 
     64 H64        23.4144  -24.4750  -50.2817 H         1 UNK         0.0903 
     65 H65        21.2584  -23.9149  -47.7550 H         1 UNK         0.3096 
     66 H66        21.4491  -26.4009  -46.3341 H         1 UNK         0.1121 
     67 H67        20.3838  -27.4086  -48.2608 H         1 UNK         0.0849 
     68 H68        19.3452  -26.0402  -48.5109 H         1 UNK         0.0849 
     69 H69        18.9447  -29.7773  -47.1780 H         1 UNK         0.0865 
     70 H70        20.2352  -28.9769  -46.3088 H         1 UNK         0.0865 
     71 H71        20.4827  -30.4727  -44.4674 H         1 UNK         0.1346 
     72 H72        17.2786  -30.9770  -41.6659 H         1 UNK         0.1412 
     73 H73        16.5863  -28.9020  -45.3467 H         1 UNK         0.1426 
     74 H74        15.0624  -30.1844  -42.1678 H         1 UNK         0.0716 
     75 H75        14.6738  -29.9187  -43.8491 H         1 UNK         0.0716 
     76 H76        15.7334  -28.4758  -40.5016 H         1 UNK         0.0695 
     77 H77        15.4283  -26.7620  -40.6082 H         1 UNK         0.0695 
     78 H78        17.9001  -28.1756  -41.7227 H         1 UNK         0.0983 
     79 H79        16.9935  -25.6121  -42.4041 H         1 UNK         0.3095 
     80 H80        18.2006  -24.4510  -43.8784 H         1 UNK         0.0454 
     81 H81        20.9553  -23.8412  -42.6434 H         1 UNK         0.0851 
     82 H82        19.4343  -23.2223  -42.0088 H         1 UNK         0.0851 
     83 H83        19.9773  -22.7392  -43.6070 H         1 UNK         0.0851 
     84 H84        20.2839  -26.2747  -44.4380 H         1 UNK         0.2976 
     85 H85        18.5457  -29.1703  -39.9262 H         1 UNK         0.3116 
     86 H86        19.5979  -29.6123  -38.0723 H         1 UNK         0.0646 
     87 H87        18.4804  -27.0436  -36.8320 H         1 UNK         0.0847 
     88 H88        19.2097  -28.3867  -35.9716 H         1 UNK         0.0847 
     89 H89        17.6872  -28.6185  -36.8152 H         1 UNK         0.0847 
     90 H90        20.1226  -26.3209  -39.2312 H         1 UNK         0.3040 
     91 H91        22.7283  -25.9550  -38.0541 H         1 UNK         0.1015 
     92 H92        21.3516  -24.5569  -40.4083 H         1 UNK         0.0786 
     93 H93        22.8289  -24.0017  -39.6309 H         1 UNK         0.0786 
     94 H94        21.3235  -24.0350  -38.7258 H         1 UNK         0.0786 
     95 H95        21.6199  -27.1589  -41.2441 H         1 UNK         0.3172 
     96 H96        24.2010  -27.3641  -42.4401 H         1 UNK         0.0595 
     97 H97        21.5553  -28.7713  -43.0551 H         1 UNK         0.0839 
     98 H98        22.9723  -28.8289  -44.0995 H         1 UNK         0.0839 
     99 H99        22.1676  -27.2977  -43.8027 H         1 UNK         0.0839 
    100 H100       25.7364  -28.8698  -42.3498 H         1 UNK         0.2998 
    101 H101       25.6805  -30.9724  -40.3791 H         1 UNK         0.0822 
    102 H102       28.0478  -31.2766  -41.0932 H         1 UNK         0.0787 
    103 H103       27.7926  -30.2193  -42.4741 H         1 UNK         0.0787 
    104 H104       27.6986  -29.5779  -40.8327 H         1 UNK         0.0787 
    105 H105       24.3905  -31.0040  -43.4427 H         1 UNK         0.3055 
    106 H106       25.2346  -33.5048  -44.5174 H         1 UNK         0.1106 
    107 H107       22.6320  -31.9301  -44.9491 H         1 UNK         0.0828 
    108 H108       23.2125  -33.2384  -45.9685 H         1 UNK         0.0828 
    109 H109       24.1209  -31.7399  -45.8775 H         1 UNK         0.0828 
    110 H110       22.8740  -32.7279  -42.0362 H         1 UNK         0.2931 
    111 H111       21.6213  -35.3870  -42.0558 H         1 UNK         0.0412 
    112 H112       23.4994  -36.9680  -39.5106 H         1 UNK         0.3472 
    113 H113       22.2956  -37.1085  -40.7659 H         1 UNK         0.3472 
    114 H114       20.3583  -34.5093  -40.0642 H         1 UNK         0.0970 
    115 H115       21.2189  -32.9975  -40.1833 H         1 UNK         0.0970 
    116 H116       19.7982  -31.1055  -41.0074 H         1 UNK         0.0612 
    117 H117       20.9620  -31.3295  -42.2921 H         1 UNK         0.0612 
@<TRIPOS>BOND
     1    1    2 1    
     2    1   62 1    
     3    1   63 1    
     4    1   64 1    
     5    2    3 2    
     6    2    4 am   BACKBONE|DICT|INTERRES
     7    4    5 1    
     8    4   65 1    
     9    5    6 1    
    10    5   25 1    
    11    5   66 1    
    12    6    7 1    
    13    6   67 1    
    14    6   68 1    
    15    7    8 1    
    16    8    9 1    
    17    8   69 1    
    18    8   70 1    
    19    9   10 ar   
    20    9   14 ar   
    21   10   11 ar   
    22   10   71 1    
    23   11   12 ar   
    24   11   61 1    
    25   12   13 ar   
    26   12   72 1    
    27   13   14 ar   
    28   13   15 1    
    29   14   73 1    
    30   15   16 1    
    31   15   74 1    
    32   15   75 1    
    33   16   17 1    
    34   17   18 1    
    35   17   76 1    
    36   17   77 1    
    37   18   19 1    
    38   18   27 1    
    39   18   78 1    
    40   19   20 am   BACKBONE|DICT|INTERRES
    41   19   79 1    
    42   20   21 2    
    43   20   22 1    
    44   22   23 1    
    45   22   24 1    
    46   22   80 1    
    47   23   81 1    
    48   23   82 1    
    49   23   83 1    
    50   24   25 am   BACKBONE|DICT|INTERRES
    51   24   84 1    
    52   25   26 2    
    53   27   28 2    
    54   27   29 am   BACKBONE|DICT|INTERRES
    55   29   30 1    
    56   29   85 1    
    57   30   31 1    
    58   30   32 1    
    59   30   86 1    
    60   31   87 1    
    61   31   88 1    
    62   31   89 1    
    63   32   33 2    
    64   32   34 am   BACKBONE|DICT|INTERRES
    65   34   35 1    
    66   34   90 1    
    67   35   36 1    
    68   35   37 1    
    69   35   91 1    
    70   36   92 1    
    71   36   93 1    
    72   36   94 1    
    73   37   38 2    
    74   37   39 am   BACKBONE|DICT|INTERRES
    75   39   40 1    
    76   39   95 1    
    77   40   41 1    
    78   40   42 1    
    79   40   96 1    
    80   41   97 1    
    81   41   98 1    
    82   41   99 1    
    83   42   43 2    
    84   42   44 am   BACKBONE|DICT|INTERRES
    85   44   45 1    
    86   44  100 1    
    87   45   46 1    
    88   45   47 1    
    89   45  101 1    
    90   46  102 1    
    91   46  103 1    
    92   46  104 1    
    93   47   48 2    
    94   47   49 am   BACKBONE|DICT|INTERRES
    95   49   50 1    
    96   49  105 1    
    97   50   51 1    
    98   50   52 1    
    99   50  106 1    
   100   51  107 1    
   101   51  108 1    
   102   51  109 1    
   103   52   53 2    
   104   52   54 am   BACKBONE|DICT|INTERRES
   105   54   55 1    
   106   54  110 1    
   107   55   56 1    
   108   55   59 1    
   109   55  111 1    
   110   56   57 am   BACKBONE|DICT|INTERRES
   111   56   58 2    
   112   57  112 1    
   113   57  113 1    
   114   59   60 1    
   115   59  114 1    
   116   59  115 1    
   117   60   61 1    
   118   61  116 1    
   119   61  117 1    
@<TRIPOS>SUBSTRUCTURE
     1 UNK         1 GROUP             0       ****    0 ROOT    
