@<TRIPOS>MOLECULE
3R8
117   119    1
SMALL
USER_CHARGES


@<TRIPOS>ATOM
      1 CA         16.6395  -24.1756  -48.5236 C.3       0 UNK        -0.2013 
      2 C          17.3073  -25.2796  -47.7175 C.2       0 UNK         0.4866 
      3 O          18.1049  -26.0414  -48.2655 O.2       0 UNK        -0.5176 
      4 N          16.9810  -25.3792  -46.4233 N.am      1 UNK        -0.4884 
      5 CA         17.5616  -26.3480  -45.4887 C.3       1 UNK         0.0853 
      6 C6         16.7483  -26.4348  -44.1751 C.3       10 UNK        -0.0849 
      7 S7         15.0661  -27.1063  -44.3923 S.3       10 UNK        -0.2776 
      8 C8         15.3670  -28.8048  -45.0058 C.3       10 UNK         0.0316 
      9 C9         16.4154  -29.5969  -44.2243 C.ar      10 UNK        -0.0863 
     10 C10        17.3346  -30.3961  -44.9158 C.ar      10 UNK        -0.1009 
     11 C11        18.2766  -31.1639  -44.2229 C.ar      10 UNK        -0.0712 
     12 C12        18.3008  -31.1181  -42.8271 C.ar      10 UNK        -0.0894 
     13 C13        17.4099  -30.3052  -42.1237 C.ar      10 UNK        -0.0745 
     14 C14        16.4543  -29.5654  -42.8246 C.ar      10 UNK        -0.0972 
     15 C15        17.4778  -30.2494  -40.6061 C.3       10 UNK         0.0209 
     16 S16        19.0771  -29.6004  -40.0253 S.3       10 UNK        -0.2568 
     17 C17        18.8765  -27.8044  -40.2308 C.3       10 UNK        -0.0983 
     18 CA         20.1552  -27.1257  -40.7907 C.3       3 UNK         0.0876 
     19 N          20.2762  -27.2829  -42.2434 N.am      3 UNK        -0.4424 
     20 C          21.3399  -26.8928  -42.9638 C.2       2 UNK         0.4918 
     21 O          22.3876  -26.4894  -42.4573 O.2       2 UNK        -0.4875 
     22 CA         21.2272  -26.9411  -44.4996 C.3       2 UNK         0.0481 
     23 CB         22.0407  -28.1096  -45.0668 C.3       2 UNK        -0.1831 
     24 N          19.8411  -27.0546  -44.9591 N.am      2 UNK        -0.4498 
     25 C          19.0272  -26.0090  -45.1588 C.2       1 UNK         0.5027 
     26 O          19.3732  -24.8306  -45.0410 O.2       1 UNK        -0.4969 
     27 C          20.1540  -25.6250  -40.4044 C.2       3 UNK         0.5005 
     28 O          19.5567  -24.8256  -41.1264 O.2       3 UNK        -0.5279 
     29 N          20.7532  -25.2209  -39.2743 N.am      4 UNK        -0.4463 
     30 CA         21.5247  -26.0316  -38.3231 C.3       4 UNK         0.0283 
     31 CB         21.3787  -25.4090  -36.9249 C.3       4 UNK        -0.1875 
     32 C          23.0183  -26.1388  -38.6917 C.2       4 UNK         0.4949 
     33 O          23.7178  -26.9591  -38.0990 O.2       4 UNK        -0.5039 
     34 N          23.4852  -25.2983  -39.6273 N.am      5 UNK        -0.4663 
     35 CA         24.8969  -25.1094  -39.9829 C.3       5 UNK         0.0242 
     36 CB         25.0123  -23.9556  -40.9924 C.3       5 UNK        -0.1982 
     37 C          25.6034  -26.3642  -40.5229 C.2       5 UNK         0.5017 
     38 O          26.7637  -26.5948  -40.1800 O.2       5 UNK        -0.5012 
     39 N          24.8976  -27.1457  -41.3457 N.am      6 UNK        -0.4439 
     40 CA         25.3707  -28.3954  -41.9344 C.3       6 UNK         0.0297 
     41 CB         25.9027  -28.1357  -43.3559 C.3       6 UNK        -0.2006 
     42 C          24.2394  -29.4283  -41.8726 C.2       6 UNK         0.4892 
     43 O          23.8093  -29.9522  -42.8992 O.2       6 UNK        -0.5089 
     44 N          23.7810  -29.7024  -40.6447 N.am      7 UNK        -0.4243 
     45 CA         22.6817  -30.6145  -40.3071 C.3       7 UNK         0.0196 
     46 CB         22.3101  -30.3814  -38.8316 C.3       7 UNK        -0.2007 
     47 C          22.9512  -32.1138  -40.5660 C.2       7 UNK         0.5020 
     48 O          22.0845  -32.9362  -40.2711 O.2       7 UNK        -0.5147 
     49 N          24.1379  -32.4606  -41.0820 N.am      8 UNK        -0.4734 
     50 CA         24.5776  -33.8299  -41.3694 C.3       8 UNK         0.0238 
     51 CB         26.0996  -33.8203  -41.5926 C.3       8 UNK        -0.1912 
     52 C          23.8633  -34.5013  -42.5598 C.2       8 UNK         0.5038 
     53 O          23.9879  -35.7179  -42.7114 O.2       8 UNK        -0.5046 
     54 N          23.1587  -33.7194  -43.3889 N.am      9 UNK        -0.4200 
     55 CA         22.3475  -34.1971  -44.5196 C.3       9 UNK         0.0839 
     56 C          21.1691  -35.1267  -44.1077 C.2       9 UNK         0.5513 
     57 N          20.7123  -35.9777  -45.0169 N.am      9 UNK        -0.7519 
     58 O          20.6441  -35.0648  -42.9982 O.2       9 UNK        -0.4960 
     59 C59        21.8751  -33.0247  -45.4217 C.3       10 UNK        -0.0876 
     60 S60        20.9778  -31.7116  -44.5263 S.3       10 UNK        -0.2414 
     61 C61        19.2487  -32.0682  -44.9699 C.3       10 UNK         0.0169 
     62 H62        15.9484  -23.5892  -47.9183 H         1 UNK         0.0903 
     63 H63        17.3921  -23.4999  -48.9292 H         1 UNK         0.0903 
     64 H64        16.0814  -24.6036  -49.3560 H         1 UNK         0.0903 
     65 H65        16.3276  -24.7223  -46.0209 H         1 UNK         0.3096 
     66 H66        17.5547  -27.3234  -45.9785 H         1 UNK         0.1121 
     67 H67        17.2633  -27.0439  -43.4316 H         1 UNK         0.0849 
     68 H68        16.6591  -25.4458  -43.7207 H         1 UNK         0.0849 
     69 H69        14.4256  -29.3547  -44.9724 H         1 UNK         0.0865 
     70 H70        15.6397  -28.7451  -46.0605 H         1 UNK         0.0865 
     71 H71        17.3042  -30.4383  -45.9963 H         1 UNK         0.1346 
     72 H72        19.0281  -31.7078  -42.2847 H         1 UNK         0.1412 
     73 H73        15.7449  -28.9561  -42.2813 H         1 UNK         0.1426 
     74 H74        17.3461  -31.2580  -40.2120 H         1 UNK         0.0716 
     75 H75        16.6668  -29.6487  -40.1914 H         1 UNK         0.0716 
     76 H76        18.0139  -27.5879  -40.8638 H         1 UNK         0.0695 
     77 H77        18.6246  -27.4181  -39.2407 H         1 UNK         0.0695 
     78 H78        21.0367  -27.6101  -40.3710 H         1 UNK         0.0983 
     79 H79        19.4570  -27.6135  -42.7268 H         1 UNK         0.3095 
     80 H80        21.6600  -26.0177  -44.8903 H         1 UNK         0.0454 
     81 H81        23.1022  -27.9768  -44.8660 H         1 UNK         0.0851 
     82 H82        21.7478  -29.0527  -44.6120 H         1 UNK         0.0851 
     83 H83        21.9247  -28.1995  -46.1468 H         1 UNK         0.0851 
     84 H84        19.4865  -27.9923  -45.0882 H         1 UNK         0.2976 
     85 H85        20.6925  -24.2381  -39.0485 H         1 UNK         0.3116 
     86 H86        21.1136  -27.0399  -38.2615 H         1 UNK         0.0646 
     87 H87        21.9074  -26.0005  -36.1758 H         1 UNK         0.0847 
     88 H88        20.3339  -25.3633  -36.6170 H         1 UNK         0.0847 
     89 H89        21.7855  -24.3976  -36.8852 H         1 UNK         0.0847 
     90 H90        22.8235  -24.6884  -40.0854 H         1 UNK         0.3040 
     91 H91        25.4223  -24.8165  -39.0712 H         1 UNK         0.1015 
     92 H92        24.6263  -23.0241  -40.5780 H         1 UNK         0.0786 
     93 H93        24.4638  -24.1685  -41.9113 H         1 UNK         0.0786 
     94 H94        26.0532  -23.7786  -41.2673 H         1 UNK         0.0786 
     95 H95        23.9489  -26.8664  -41.5976 H         1 UNK         0.3172 
     96 H96        26.1891  -28.8062  -41.3393 H         1 UNK         0.0595 
     97 H97        26.7874  -27.4996  -43.3324 H         1 UNK         0.0839 
     98 H98        25.1596  -27.6432  -43.9812 H         1 UNK         0.0839 
     99 H99        26.1866  -29.0667  -43.8483 H         1 UNK         0.0839 
    100 H100       24.2062  -29.2160  -39.8670 H         1 UNK         0.2998 
    101 H101       21.8271  -30.3415  -40.9295 H         1 UNK         0.0822 
    102 H102       22.0335  -29.3435  -38.6494 H         1 UNK         0.0787 
    103 H103       21.4568  -30.9940  -38.5372 H         1 UNK         0.0787 
    104 H104       23.1357  -30.6311  -38.1641 H         1 UNK         0.0787 
    105 H105       24.7805  -31.7187  -41.3175 H         1 UNK         0.3055 
    106 H106       24.3641  -34.4419  -40.4901 H         1 UNK         0.1106 
    107 H107       26.3772  -33.2126  -42.4548 H         1 UNK         0.0828 
    108 H108       26.6274  -33.4314  -40.7215 H         1 UNK         0.0828 
    109 H109       26.4760  -34.8287  -41.7709 H         1 UNK         0.0828 
    110 H110       23.0860  -32.7340  -43.1781 H         1 UNK         0.2931 
    111 H111       23.0193  -34.8087  -45.1255 H         1 UNK         0.0412 
    112 H112       19.9417  -36.5823  -44.7773 H         1 UNK         0.3472 
    113 H113       21.1301  -36.0402  -45.9326 H         1 UNK         0.3472 
    114 H114       22.7465  -32.5600  -45.8853 H         1 UNK         0.0970 
    115 H115       21.2694  -33.3886  -46.2539 H         1 UNK         0.0970 
    116 H116       19.0174  -33.1064  -44.7289 H         1 UNK         0.0612 
    117 H117       19.1305  -31.9598  -46.0491 H         1 UNK         0.0612 
@<TRIPOS>BOND
     1    1    2 1    
     2    1   62 1    
     3    1   63 1    
     4    1   64 1    
     5    2    3 2    
     6    2    4 am   BACKBONE|DICT|INTERRES
     7    4    5 1    
     8    4   65 1    
     9    5    6 1    
    10    5   25 1    
    11    5   66 1    
    12    6    7 1    
    13    6   67 1    
    14    6   68 1    
    15    7    8 1    
    16    8    9 1    
    17    8   69 1    
    18    8   70 1    
    19    9   10 ar   
    20    9   14 ar   
    21   10   11 ar   
    22   10   71 1    
    23   11   12 ar   
    24   11   61 1    
    25   12   13 ar   
    26   12   72 1    
    27   13   14 ar   
    28   13   15 1    
    29   14   73 1    
    30   15   16 1    
    31   15   74 1    
    32   15   75 1    
    33   16   17 1    
    34   17   18 1    
    35   17   76 1    
    36   17   77 1    
    37   18   19 1    
    38   18   27 1    
    39   18   78 1    
    40   19   20 am   BACKBONE|DICT|INTERRES
    41   19   79 1    
    42   20   21 2    
    43   20   22 1    
    44   22   23 1    
    45   22   24 1    
    46   22   80 1    
    47   23   81 1    
    48   23   82 1    
    49   23   83 1    
    50   24   25 am   BACKBONE|DICT|INTERRES
    51   24   84 1    
    52   25   26 2    
    53   27   28 2    
    54   27   29 am   BACKBONE|DICT|INTERRES
    55   29   30 1    
    56   29   85 1    
    57   30   31 1    
    58   30   32 1    
    59   30   86 1    
    60   31   87 1    
    61   31   88 1    
    62   31   89 1    
    63   32   33 2    
    64   32   34 am   BACKBONE|DICT|INTERRES
    65   34   35 1    
    66   34   90 1    
    67   35   36 1    
    68   35   37 1    
    69   35   91 1    
    70   36   92 1    
    71   36   93 1    
    72   36   94 1    
    73   37   38 2    
    74   37   39 am   BACKBONE|DICT|INTERRES
    75   39   40 1    
    76   39   95 1    
    77   40   41 1    
    78   40   42 1    
    79   40   96 1    
    80   41   97 1    
    81   41   98 1    
    82   41   99 1    
    83   42   43 2    
    84   42   44 am   BACKBONE|DICT|INTERRES
    85   44   45 1    
    86   44  100 1    
    87   45   46 1    
    88   45   47 1    
    89   45  101 1    
    90   46  102 1    
    91   46  103 1    
    92   46  104 1    
    93   47   48 2    
    94   47   49 am   BACKBONE|DICT|INTERRES
    95   49   50 1    
    96   49  105 1    
    97   50   51 1    
    98   50   52 1    
    99   50  106 1    
   100   51  107 1    
   101   51  108 1    
   102   51  109 1    
   103   52   53 2    
   104   52   54 am   BACKBONE|DICT|INTERRES
   105   54   55 1    
   106   54  110 1    
   107   55   56 1    
   108   55   59 1    
   109   55  111 1    
   110   56   57 am   BACKBONE|DICT|INTERRES
   111   56   58 2    
   112   57  112 1    
   113   57  113 1    
   114   59   60 1    
   115   59  114 1    
   116   59  115 1    
   117   60   61 1    
   118   61  116 1    
   119   61  117 1    
@<TRIPOS>SUBSTRUCTURE
     1 UNK         1 GROUP             0       ****    0 ROOT    
