@<TRIPOS>MOLECULE
3R8
117   119    1
SMALL
USER_CHARGES


@<TRIPOS>ATOM
      1 CA         17.0295  -23.6180  -48.7003 C.3       0 UNK        -0.2013 
      2 C          17.8426  -24.8375  -48.2919 C.2       0 UNK         0.4866 
      3 O          18.0548  -25.7331  -49.1101 O.2       0 UNK        -0.5176 
      4 N          18.3022  -24.8757  -47.0373 N.am      1 UNK        -0.4884 
      5 CA         19.1075  -25.9636  -46.4759 C.3       1 UNK         0.0853 
      6 C6         18.3093  -27.2646  -46.1825 C.3       10 UNK        -0.0849 
      7 S7         16.7954  -27.0172  -45.1873 S.3       10 UNK        -0.2776 
      8 C8         16.0426  -28.6697  -45.2882 C.3       10 UNK         0.0316 
      9 C9         16.7863  -29.6797  -44.4271 C.ar      10 UNK        -0.0863 
     10 C10        17.6304  -30.6299  -45.0114 C.ar      10 UNK        -0.1009 
     11 C11        18.2851  -31.5771  -44.2178 C.ar      10 UNK        -0.0712 
     12 C12        18.1028  -31.5599  -42.8318 C.ar      10 UNK        -0.0894 
     13 C13        17.2656  -30.6118  -42.2370 C.ar      10 UNK        -0.0745 
     14 C14        16.6063  -29.6775  -43.0408 C.ar      10 UNK        -0.0972 
     15 C15        17.0466  -30.6234  -40.7311 C.3       10 UNK         0.0209 
     16 S16        18.4546  -29.9140  -39.8211 S.3       10 UNK        -0.2568 
     17 C17        18.3016  -28.1306  -40.1829 C.3       10 UNK        -0.0983 
     18 CA         19.6165  -27.5064  -40.7210 C.3       3 UNK         0.0876 
     19 N          19.3280  -26.3111  -41.5344 N.am      3 UNK        -0.4424 
     20 C          20.2169  -25.5038  -42.1310 C.2       2 UNK         0.4918 
     21 O          21.4373  -25.6257  -42.0254 O.2       2 UNK        -0.4875 
     22 CA         19.6281  -24.3712  -42.9897 C.3       2 UNK         0.0481 
     23 CB         20.6090  -23.1921  -43.1666 C.3       2 UNK        -0.1831 
     24 N          19.1562  -24.8751  -44.2844 N.am      2 UNK        -0.4498 
     25 C          19.8851  -25.4565  -45.2524 C.2       1 UNK         0.5027 
     26 O          21.1098  -25.5715  -45.2317 O.2       1 UNK        -0.4969 
     27 C          20.6300  -27.2793  -39.5704 C.2       3 UNK         0.5005 
     28 O          21.3412  -28.2103  -39.1930 O.2       3 UNK        -0.5279 
     29 N          20.7033  -26.0454  -39.0468 N.am      4 UNK        -0.4463 
     30 CA         21.6868  -25.6181  -38.0456 C.3       4 UNK         0.0283 
     31 CB         21.3383  -24.2003  -37.5651 C.3       4 UNK        -0.1875 
     32 C          23.1443  -25.6711  -38.5467 C.2       4 UNK         0.4949 
     33 O          24.0474  -25.8830  -37.7371 O.2       4 UNK        -0.5039 
     34 N          23.3449  -25.4853  -39.8581 N.am      5 UNK        -0.4663 
     35 CA         24.6307  -25.6350  -40.5380 C.3       5 UNK         0.0242 
     36 CB         24.8184  -24.4822  -41.5391 C.3       5 UNK        -0.1982 
     37 C          24.6957  -26.9939  -41.2482 C.2       5 UNK         0.5017 
     38 O          25.6574  -27.7386  -41.0540 O.2       5 UNK        -0.5012 
     39 N          23.6585  -27.3124  -42.0342 N.am      6 UNK        -0.4439 
     40 CA         23.5003  -28.5589  -42.7841 C.3       6 UNK         0.0297 
     41 CB         22.5817  -28.3032  -43.9931 C.3       6 UNK        -0.2006 
     42 C          22.9853  -29.7004  -41.8894 C.2       6 UNK         0.4892 
     43 O          21.9376  -30.2807  -42.1686 O.2       6 UNK        -0.5089 
     44 N          23.7347  -30.0076  -40.8251 N.am      7 UNK        -0.4243 
     45 CA         23.4357  -31.1040  -39.9014 C.3       7 UNK         0.0196 
     46 CB         24.1706  -30.8557  -38.5747 C.3       7 UNK        -0.2007 
     47 C          23.8112  -32.4802  -40.4788 C.2       7 UNK         0.5020 
     48 O          23.2294  -33.4868  -40.0739 O.2       7 UNK        -0.5147 
     49 N          24.7796  -32.5035  -41.4071 N.am      8 UNK        -0.4734 
     50 CA         25.3679  -33.7098  -41.9990 C.3       8 UNK         0.0238 
     51 CB         26.5635  -33.3072  -42.8777 C.3       8 UNK        -0.1912 
     52 C          24.3865  -34.5837  -42.7989 C.2       8 UNK         0.5038 
     53 O          24.5930  -35.7963  -42.8664 O.2       8 UNK        -0.5046 
     54 N          23.3486  -33.9689  -43.3813 N.am      9 UNK        -0.4200 
     55 CA         22.2631  -34.6690  -44.0848 C.3       9 UNK         0.0839 
     56 C          21.1717  -35.2701  -43.1494 C.2       9 UNK         0.5513 
     57 N          21.2155  -35.0580  -41.8383 N.am      9 UNK        -0.7519 
     58 O          20.2755  -35.9631  -43.6239 O.2       9 UNK        -0.4960 
     59 C59        21.6757  -33.8184  -45.2436 C.3       10 UNK        -0.0876 
     60 S60        20.9259  -32.2397  -44.7162 S.3       10 UNK        -0.2414 
     61 C61        19.1594  -32.6466  -44.8522 C.3       10 UNK         0.0169 
     62 H62        16.9165  -22.9086  -47.8808 H         1 UNK         0.0903 
     63 H63        17.5144  -23.1039  -49.5297 H         1 UNK         0.0903 
     64 H64        16.0344  -23.9228  -49.0233 H         1 UNK         0.0903 
     65 H65        18.1385  -24.0916  -46.4206 H         1 UNK         0.3096 
     66 H66        19.8680  -26.2160  -47.2193 H         1 UNK         0.1121 
     67 H67        18.0180  -27.7240  -47.1282 H         1 UNK         0.0849 
     68 H68        18.9453  -27.9993  -45.6840 H         1 UNK         0.0849 
     69 H69        15.0061  -28.6052  -44.9537 H         1 UNK         0.0865 
     70 H70        16.0036  -28.9950  -46.3291 H         1 UNK         0.0865 
     71 H71        17.7678  -30.6416  -46.0841 H         1 UNK         0.1346 
     72 H72        18.6120  -32.2887  -42.2154 H         1 UNK         0.1412 
     73 H73        15.9479  -28.9472  -42.5904 H         1 UNK         0.1426 
     74 H74        16.9001  -31.6523  -40.3990 H         1 UNK         0.0716 
     75 H75        16.1343  -30.0875  -40.4647 H         1 UNK         0.0716 
     76 H76        17.9553  -27.6152  -39.2848 H         1 UNK         0.0695 
     77 H77        17.5037  -28.0020  -40.9143 H         1 UNK         0.0695 
     78 H78        20.0799  -28.2205  -41.4061 H         1 UNK         0.0983 
     79 H79        18.3487  -26.1235  -41.6923 H         1 UNK         0.3095 
     80 H80        18.7515  -23.9876  -42.4654 H         1 UNK         0.0454 
     81 H81        20.8943  -22.7779  -42.1990 H         1 UNK         0.0851 
     82 H82        21.5291  -23.4906  -43.6697 H         1 UNK         0.0851 
     83 H83        20.1589  -22.3855  -43.7447 H         1 UNK         0.0851 
     84 H84        18.1512  -24.9020  -44.3961 H         1 UNK         0.2976 
     85 H85        20.0757  -25.3387  -39.4014 H         1 UNK         0.3116 
     86 H86        21.6088  -26.2970  -37.1937 H         1 UNK         0.0646 
     87 H87        22.0387  -23.8663  -36.7982 H         1 UNK         0.0847 
     88 H88        20.3407  -24.1616  -37.1274 H         1 UNK         0.0847 
     89 H89        21.3787  -23.4755  -38.3792 H         1 UNK         0.0847 
     90 H90        22.5350  -25.3635  -40.4581 H         1 UNK         0.3040 
     91 H91        25.4506  -25.5944  -39.8171 H         1 UNK         0.1015 
     92 H92        24.8312  -23.5182  -41.0303 H         1 UNK         0.0786 
     93 H93        24.0231  -24.4535  -42.2854 H         1 UNK         0.0786 
     94 H94        25.7647  -24.5794  -42.0728 H         1 UNK         0.0786 
     95 H95        22.8832  -26.6544  -42.0998 H         1 UNK         0.3172 
     96 H96        24.4751  -28.8642  -43.1699 H         1 UNK         0.0595 
     97 H97        22.9860  -27.5256  -44.6411 H         1 UNK         0.0839 
     98 H98        21.5827  -27.9939  -43.6831 H         1 UNK         0.0839 
     99 H99        22.4693  -29.2037  -44.5986 H         1 UNK         0.0839 
    100 H100       24.5641  -29.4511  -40.6487 H         1 UNK         0.2998 
    101 H101       22.3615  -31.1082  -39.7006 H         1 UNK         0.0822 
    102 H102       25.2526  -30.8280  -38.7094 H         1 UNK         0.0787 
    103 H103       23.9499  -31.6436  -37.8533 H         1 UNK         0.0787 
    104 H104       23.8624  -29.9106  -38.1261 H         1 UNK         0.0787 
    105 H105       25.1893  -31.6214  -41.6777 H         1 UNK         0.3055 
    106 H106       25.7402  -34.3258  -41.1773 H         1 UNK         0.1106 
    107 H107       26.2600  -32.6605  -43.7019 H         1 UNK         0.0828 
    108 H108       27.3243  -32.7824  -42.2996 H         1 UNK         0.0828 
    109 H109       27.0418  -34.1860  -43.3132 H         1 UNK         0.0828 
    110 H110       23.2277  -32.9747  -43.2518 H         1 UNK         0.2931 
    111 H111       22.7100  -35.5394  -44.5694 H         1 UNK         0.0412 
    112 H112       20.5043  -35.4653  -41.2525 H         1 UNK         0.3472 
    113 H113       21.9531  -34.5046  -41.4195 H         1 UNK         0.3472 
    114 H114       20.9500  -34.4007  -45.8145 H         1 UNK         0.0970 
    115 H115       22.4705  -33.5826  -45.9526 H         1 UNK         0.0970 
    116 H116       18.9639  -33.6023  -44.3646 H         1 UNK         0.0612 
    117 H117       18.9022  -32.7790  -45.9043 H         1 UNK         0.0612 
@<TRIPOS>BOND
     1    1    2 1    
     2    1   62 1    
     3    1   63 1    
     4    1   64 1    
     5    2    3 2    
     6    2    4 am   BACKBONE|DICT|INTERRES
     7    4    5 1    
     8    4   65 1    
     9    5    6 1    
    10    5   25 1    
    11    5   66 1    
    12    6    7 1    
    13    6   67 1    
    14    6   68 1    
    15    7    8 1    
    16    8    9 1    
    17    8   69 1    
    18    8   70 1    
    19    9   10 ar   
    20    9   14 ar   
    21   10   11 ar   
    22   10   71 1    
    23   11   12 ar   
    24   11   61 1    
    25   12   13 ar   
    26   12   72 1    
    27   13   14 ar   
    28   13   15 1    
    29   14   73 1    
    30   15   16 1    
    31   15   74 1    
    32   15   75 1    
    33   16   17 1    
    34   17   18 1    
    35   17   76 1    
    36   17   77 1    
    37   18   19 1    
    38   18   27 1    
    39   18   78 1    
    40   19   20 am   BACKBONE|DICT|INTERRES
    41   19   79 1    
    42   20   21 2    
    43   20   22 1    
    44   22   23 1    
    45   22   24 1    
    46   22   80 1    
    47   23   81 1    
    48   23   82 1    
    49   23   83 1    
    50   24   25 am   BACKBONE|DICT|INTERRES
    51   24   84 1    
    52   25   26 2    
    53   27   28 2    
    54   27   29 am   BACKBONE|DICT|INTERRES
    55   29   30 1    
    56   29   85 1    
    57   30   31 1    
    58   30   32 1    
    59   30   86 1    
    60   31   87 1    
    61   31   88 1    
    62   31   89 1    
    63   32   33 2    
    64   32   34 am   BACKBONE|DICT|INTERRES
    65   34   35 1    
    66   34   90 1    
    67   35   36 1    
    68   35   37 1    
    69   35   91 1    
    70   36   92 1    
    71   36   93 1    
    72   36   94 1    
    73   37   38 2    
    74   37   39 am   BACKBONE|DICT|INTERRES
    75   39   40 1    
    76   39   95 1    
    77   40   41 1    
    78   40   42 1    
    79   40   96 1    
    80   41   97 1    
    81   41   98 1    
    82   41   99 1    
    83   42   43 2    
    84   42   44 am   BACKBONE|DICT|INTERRES
    85   44   45 1    
    86   44  100 1    
    87   45   46 1    
    88   45   47 1    
    89   45  101 1    
    90   46  102 1    
    91   46  103 1    
    92   46  104 1    
    93   47   48 2    
    94   47   49 am   BACKBONE|DICT|INTERRES
    95   49   50 1    
    96   49  105 1    
    97   50   51 1    
    98   50   52 1    
    99   50  106 1    
   100   51  107 1    
   101   51  108 1    
   102   51  109 1    
   103   52   53 2    
   104   52   54 am   BACKBONE|DICT|INTERRES
   105   54   55 1    
   106   54  110 1    
   107   55   56 1    
   108   55   59 1    
   109   55  111 1    
   110   56   57 am   BACKBONE|DICT|INTERRES
   111   56   58 2    
   112   57  112 1    
   113   57  113 1    
   114   59   60 1    
   115   59  114 1    
   116   59  115 1    
   117   60   61 1    
   118   61  116 1    
   119   61  117 1    
@<TRIPOS>SUBSTRUCTURE
     1 UNK         1 GROUP             0       ****    0 ROOT    
