@<TRIPOS>MOLECULE
3R8
117   119    1
SMALL
USER_CHARGES


@<TRIPOS>ATOM
      1 CA         14.6496  -23.4078  -41.4395 C.3       0 UNK        -0.2013 
      2 C          15.5061  -24.4329  -42.1687 C.2       0 UNK         0.4866 
      3 O          16.0265  -25.3448  -41.5270 O.2       0 UNK        -0.5176 
      4 N          15.6436  -24.2715  -43.4942 N.am      1 UNK        -0.4884 
      5 CA         16.4096  -25.0896  -44.4477 C.3       1 UNK         0.0853 
      6 C6         15.6102  -26.2870  -45.0441 C.3       10 UNK        -0.0849 
      7 S7         15.0843  -27.5964  -43.8800 S.3       10 UNK        -0.2776 
      8 C8         15.2348  -29.0934  -44.9065 C.3       10 UNK         0.0316 
      9 C9         16.6790  -29.5517  -45.0668 C.ar      10 UNK        -0.0863 
     10 C10        17.2845  -30.3227  -44.0702 C.ar      10 UNK        -0.1009 
     11 C11        18.5857  -30.8084  -44.2368 C.ar      10 UNK        -0.0712 
     12 C12        19.2940  -30.4948  -45.4022 C.ar      10 UNK        -0.0894 
     13 C13        18.6980  -29.7269  -46.4089 C.ar      10 UNK        -0.0745 
     14 C14        17.3906  -29.2616  -46.2348 C.ar      10 UNK        -0.0972 
     15 C15        19.4244  -29.4666  -47.7225 C.3       10 UNK         0.0209 
     16 S16        19.7909  -27.7024  -47.9928 S.3       10 UNK        -0.2568 
     17 C17        21.4360  -27.5246  -47.2233 C.3       10 UNK        -0.0983 
     18 CA         21.5116  -26.2964  -46.2750 C.3       3 UNK         0.0876 
     19 N          20.5490  -26.3866  -45.1663 N.am      3 UNK        -0.4424 
     20 C          20.5734  -27.2551  -44.1461 C.2       2 UNK         0.4918 
     21 O          21.5045  -28.0335  -43.9456 O.2       2 UNK        -0.4875 
     22 CA         19.3860  -27.2567  -43.1660 C.3       2 UNK         0.0481 
     23 CB         19.7873  -26.6344  -41.8159 C.3       2 UNK        -0.1831 
     24 N          18.1344  -26.6773  -43.6735 N.am      2 UNK        -0.4498 
     25 C          17.8475  -25.4045  -43.9749 C.2       1 UNK         0.5027 
     26 O          18.6734  -24.4909  -43.9309 O.2       1 UNK        -0.4969 
     27 C          22.9570  -26.0022  -45.8016 C.2       3 UNK         0.5005 
     28 O          23.9155  -26.3982  -46.4677 O.2       3 UNK        -0.5279 
     29 N          23.0839  -25.3329  -44.6428 N.am      4 UNK        -0.4463 
     30 CA         24.3188  -25.0724  -43.8885 C.3       4 UNK         0.0283 
     31 CB         25.2630  -24.1362  -44.6729 C.3       4 UNK        -0.1875 
     32 C          25.0310  -26.3520  -43.3932 C.2       4 UNK         0.4949 
     33 O          26.2218  -26.3003  -43.0833 O.2       4 UNK        -0.5039 
     34 N          24.2952  -27.4679  -43.3014 N.am      5 UNK        -0.4663 
     35 CA         24.7770  -28.7835  -42.8819 C.3       5 UNK         0.0242 
     36 CB         24.7086  -29.7429  -44.0851 C.3       5 UNK        -0.1982 
     37 C          23.9588  -29.2932  -41.6848 C.2       5 UNK         0.5017 
     38 O          23.7120  -30.4943  -41.5788 O.2       5 UNK        -0.5012 
     39 N          23.5670  -28.3769  -40.7860 N.am      6 UNK        -0.4439 
     40 CA         22.7126  -28.6223  -39.6156 C.3       6 UNK         0.0297 
     41 CB         22.5056  -27.3017  -38.8560 C.3       6 UNK        -0.2006 
     42 C          23.2140  -29.7163  -38.6527 C.2       6 UNK         0.4892 
     43 O          22.3946  -30.3516  -37.9903 O.2       6 UNK        -0.5089 
     44 N          24.5362  -29.9304  -38.6058 N.am      7 UNK        -0.4243 
     45 CA         25.1795  -31.0060  -37.8481 C.3       7 UNK         0.0196 
     46 CB         26.6803  -30.6993  -37.7174 C.3       7 UNK        -0.2007 
     47 C          24.9695  -32.4024  -38.4654 C.2       7 UNK         0.5020 
     48 O          25.0306  -33.3906  -37.7334 O.2       7 UNK        -0.5147 
     49 N          24.7423  -32.4716  -39.7850 N.am      8 UNK        -0.4734 
     50 CA         24.4666  -33.7126  -40.5136 C.3       8 UNK         0.0238 
     51 CB         25.0369  -33.6095  -41.9381 C.3       8 UNK        -0.1912 
     52 C          22.9637  -34.0312  -40.5575 C.2       8 UNK         0.5038 
     53 O          22.6097  -35.2076  -40.6499 O.2       8 UNK        -0.5046 
     54 N          22.1138  -32.9960  -40.4936 N.am      9 UNK        -0.4200 
     55 CA         20.6499  -33.1067  -40.4085 C.3       9 UNK         0.0839 
     56 C          20.1714  -33.8790  -39.1471 C.2       9 UNK         0.5513 
     57 N          19.0879  -34.6355  -39.2602 N.am      9 UNK        -0.7519 
     58 O          20.7410  -33.7649  -38.0639 O.2       9 UNK        -0.4960 
     59 C59        19.9602  -31.7191  -40.4747 C.3       10 UNK        -0.0876 
     60 S60        20.2728  -30.8170  -42.0283 S.3       10 UNK        -0.2414 
     61 C61        19.1959  -31.7208  -43.1820 C.3       10 UNK         0.0169 
     62 H62        14.2436  -22.6558  -42.1159 H         1 UNK         0.0903 
     63 H63        15.2415  -22.8966  -40.6807 H         1 UNK         0.0903 
     64 H64        13.8148  -23.9027  -40.9438 H         1 UNK         0.0903 
     65 H65        15.1917  -23.4709  -43.9143 H         1 UNK         0.3096 
     66 H66        16.5701  -24.4150  -45.2910 H         1 UNK         0.1121 
     67 H67        14.7055  -25.9042  -45.5189 H         1 UNK         0.0849 
     68 H68        16.1845  -26.7310  -45.8576 H         1 UNK         0.0849 
     69 H69        14.6543  -29.8923  -44.4424 H         1 UNK         0.0865 
     70 H70        14.7733  -28.9180  -45.8797 H         1 UNK         0.0865 
     71 H71        16.7313  -30.5668  -43.1733 H         1 UNK         0.1346 
     72 H72        20.2985  -30.8733  -45.5337 H         1 UNK         0.1412 
     73 H73        16.9223  -28.6909  -47.0253 H         1 UNK         0.1426 
     74 H74        20.3429  -30.0516  -47.7900 H         1 UNK         0.0716 
     75 H75        18.7908  -29.8127  -48.5404 H         1 UNK         0.0716 
     76 H76        22.1552  -27.4326  -48.0391 H         1 UNK         0.0695 
     77 H77        21.7003  -28.4368  -46.6855 H         1 UNK         0.0695 
     78 H78        21.2221  -25.4177  -46.8536 H         1 UNK         0.0983 
     79 H79        19.7816  -25.7273  -45.1895 H         1 UNK         0.3095 
     80 H80        19.1508  -28.3029  -42.9798 H         1 UNK         0.0454 
     81 H81        18.9728  -26.6964  -41.0942 H         1 UNK         0.0851 
     82 H82        20.0712  -25.5866  -41.9142 H         1 UNK         0.0851 
     83 H83        20.6390  -27.1644  -41.3896 H         1 UNK         0.0851 
     84 H84        17.3710  -27.3382  -43.7640 H         1 UNK         0.2976 
     85 H85        22.2287  -25.0475  -44.1855 H         1 UNK         0.3116 
     86 H86        24.0095  -24.5405  -42.9877 H         1 UNK         0.0646 
     87 H87        24.7449  -23.2378  -45.0077 H         1 UNK         0.0847 
     88 H88        26.0987  -23.8124  -44.0515 H         1 UNK         0.0847 
     89 H89        25.6854  -24.6272  -45.5500 H         1 UNK         0.0847 
     90 H90        23.3139  -27.4421  -43.5693 H         1 UNK         0.3040 
     91 H91        25.8152  -28.7258  -42.5487 H         1 UNK         0.1015 
     92 H92        23.6794  -29.9004  -44.4116 H         1 UNK         0.0786 
     93 H93        25.1278  -30.7183  -43.8361 H         1 UNK         0.0786 
     94 H94        25.2727  -29.3549  -44.9333 H         1 UNK         0.0786 
     95 H95        23.8340  -27.4186  -40.9579 H         1 UNK         0.3172 
     96 H96        21.7437  -28.9519  -39.9949 H         1 UNK         0.0595 
     97 H97        23.4458  -26.9086  -38.4671 H         1 UNK         0.0839 
     98 H98        21.8362  -27.4423  -38.0059 H         1 UNK         0.0839 
     99 H99        22.0594  -26.5366  -39.4910 H         1 UNK         0.0839 
    100 H100       25.1338  -29.3514  -39.1773 H         1 UNK         0.2998 
    101 H101       24.7459  -31.0235  -36.8457 H         1 UNK         0.0822 
    102 H102       26.8491  -29.7471  -37.2139 H         1 UNK         0.0787 
    103 H103       27.1855  -31.4679  -37.1306 H         1 UNK         0.0787 
    104 H104       27.1709  -30.6580  -38.6908 H         1 UNK         0.0787 
    105 H105       24.6396  -31.6128  -40.3179 H         1 UNK         0.3055 
    106 H106       24.9645  -34.5460  -40.0123 H         1 UNK         0.1106 
    107 H107       26.1046  -33.3903  -41.9245 H         1 UNK         0.0828 
    108 H108       24.9057  -34.5489  -42.4767 H         1 UNK         0.0828 
    109 H109       24.5410  -32.8322  -42.5198 H         1 UNK         0.0828 
    110 H110       22.4945  -32.0596  -40.4754 H         1 UNK         0.2931 
    111 H111       20.3346  -33.6811  -41.2818 H         1 UNK         0.0412 
    112 H112       18.7509  -35.1325  -38.4502 H         1 UNK         0.3472 
    113 H113       18.6072  -34.7321  -40.1414 H         1 UNK         0.3472 
    114 H114       18.8798  -31.8143  -40.3497 H         1 UNK         0.0970 
    115 H115       20.2967  -31.0932  -39.6463 H         1 UNK         0.0970 
    116 H116       19.7783  -32.5084  -43.6621 H         1 UNK         0.0612 
    117 H117       18.4004  -32.2265  -42.6330 H         1 UNK         0.0612 
@<TRIPOS>BOND
     1    1    2 1    
     2    1   62 1    
     3    1   63 1    
     4    1   64 1    
     5    2    3 2    
     6    2    4 am   BACKBONE|DICT|INTERRES
     7    4    5 1    
     8    4   65 1    
     9    5    6 1    
    10    5   25 1    
    11    5   66 1    
    12    6    7 1    
    13    6   67 1    
    14    6   68 1    
    15    7    8 1    
    16    8    9 1    
    17    8   69 1    
    18    8   70 1    
    19    9   10 ar   
    20    9   14 ar   
    21   10   11 ar   
    22   10   71 1    
    23   11   12 ar   
    24   11   61 1    
    25   12   13 ar   
    26   12   72 1    
    27   13   14 ar   
    28   13   15 1    
    29   14   73 1    
    30   15   16 1    
    31   15   74 1    
    32   15   75 1    
    33   16   17 1    
    34   17   18 1    
    35   17   76 1    
    36   17   77 1    
    37   18   19 1    
    38   18   27 1    
    39   18   78 1    
    40   19   20 am   BACKBONE|DICT|INTERRES
    41   19   79 1    
    42   20   21 2    
    43   20   22 1    
    44   22   23 1    
    45   22   24 1    
    46   22   80 1    
    47   23   81 1    
    48   23   82 1    
    49   23   83 1    
    50   24   25 am   BACKBONE|DICT|INTERRES
    51   24   84 1    
    52   25   26 2    
    53   27   28 2    
    54   27   29 am   BACKBONE|DICT|INTERRES
    55   29   30 1    
    56   29   85 1    
    57   30   31 1    
    58   30   32 1    
    59   30   86 1    
    60   31   87 1    
    61   31   88 1    
    62   31   89 1    
    63   32   33 2    
    64   32   34 am   BACKBONE|DICT|INTERRES
    65   34   35 1    
    66   34   90 1    
    67   35   36 1    
    68   35   37 1    
    69   35   91 1    
    70   36   92 1    
    71   36   93 1    
    72   36   94 1    
    73   37   38 2    
    74   37   39 am   BACKBONE|DICT|INTERRES
    75   39   40 1    
    76   39   95 1    
    77   40   41 1    
    78   40   42 1    
    79   40   96 1    
    80   41   97 1    
    81   41   98 1    
    82   41   99 1    
    83   42   43 2    
    84   42   44 am   BACKBONE|DICT|INTERRES
    85   44   45 1    
    86   44  100 1    
    87   45   46 1    
    88   45   47 1    
    89   45  101 1    
    90   46  102 1    
    91   46  103 1    
    92   46  104 1    
    93   47   48 2    
    94   47   49 am   BACKBONE|DICT|INTERRES
    95   49   50 1    
    96   49  105 1    
    97   50   51 1    
    98   50   52 1    
    99   50  106 1    
   100   51  107 1    
   101   51  108 1    
   102   51  109 1    
   103   52   53 2    
   104   52   54 am   BACKBONE|DICT|INTERRES
   105   54   55 1    
   106   54  110 1    
   107   55   56 1    
   108   55   59 1    
   109   55  111 1    
   110   56   57 am   BACKBONE|DICT|INTERRES
   111   56   58 2    
   112   57  112 1    
   113   57  113 1    
   114   59   60 1    
   115   59  114 1    
   116   59  115 1    
   117   60   61 1    
   118   61  116 1    
   119   61  117 1    
@<TRIPOS>SUBSTRUCTURE
     1 UNK         1 GROUP             0       ****    0 ROOT    
