@<TRIPOS>MOLECULE
3R8
117   119    1
SMALL
USER_CHARGES


@<TRIPOS>ATOM
      1 CA         16.7016  -21.8232  -46.6680 C.3       0 UNK        -0.2013 
      2 C          17.0273  -23.2740  -46.3452 C.2       0 UNK         0.4866 
      3 O          16.1115  -24.0710  -46.1429 O.2       0 UNK        -0.5176 
      4 N          18.3238  -23.6141  -46.3031 N.am      1 UNK        -0.4884 
      5 CA         18.8725  -24.9393  -45.9832 C.3       1 UNK         0.0853 
      6 C6         18.4865  -26.0289  -47.0274 C.3       10 UNK        -0.0849 
      7 S7         19.8533  -27.2011  -47.3323 S.3       10 UNK        -0.2776 
      8 C8         18.9927  -28.8040  -47.4471 C.3       10 UNK         0.0316 
      9 C9         19.0796  -29.5911  -46.1474 C.ar      10 UNK        -0.0863 
     10 C10        20.2713  -30.2410  -45.8084 C.ar      10 UNK        -0.1009 
     11 C11        20.3704  -30.9721  -44.6215 C.ar      10 UNK        -0.0712 
     12 C12        19.2582  -31.0689  -43.7838 C.ar      10 UNK        -0.0894 
     13 C13        18.0582  -30.4346  -44.1132 C.ar      10 UNK        -0.0745 
     14 C14        17.9750  -29.6896  -45.2943 C.ar      10 UNK        -0.0972 
     15 C15        16.8579  -30.5596  -43.1859 C.3       10 UNK         0.0209 
     16 S16        16.7582  -29.1816  -42.0005 S.3       10 UNK        -0.2568 
     17 C17        18.2657  -29.4156  -40.9937 C.3       10 UNK        -0.0983 
     18 CA         19.4225  -28.4865  -41.4426 C.3       3 UNK         0.0876 
     19 N          19.0077  -27.0808  -41.4512 N.am      3 UNK        -0.4424 
     20 C          19.7665  -26.0272  -41.7675 C.2       2 UNK         0.4918 
     21 O          20.9943  -26.0469  -41.8440 O.2       2 UNK        -0.4875 
     22 CA         19.0106  -24.7408  -42.1345 C.3       2 UNK         0.0481 
     23 CB         19.5885  -23.5231  -41.3944 C.3       2 UNK        -0.1831 
     24 N          19.0768  -24.5108  -43.5807 N.am      2 UNK        -0.4498 
     25 C          18.5691  -25.3276  -44.5190 C.2       1 UNK         0.5027 
     26 O          17.8714  -26.3096  -44.2613 O.2       1 UNK        -0.4969 
     27 C          20.7040  -28.7761  -40.6404 C.2       3 UNK         0.5005 
     28 O          21.6239  -29.4104  -41.1657 O.2       3 UNK        -0.5279 
     29 N          20.7490  -28.2837  -39.3950 N.am      4 UNK        -0.4463 
     30 CA         21.8727  -28.4596  -38.4711 C.3       4 UNK         0.0283 
     31 CB         21.4434  -28.0397  -37.0567 C.3       4 UNK        -0.1875 
     32 C          23.1433  -27.7038  -38.8941 C.2       4 UNK         0.4949 
     33 O          24.2438  -28.1749  -38.6087 O.2       4 UNK        -0.5039 
     34 N          22.9738  -26.5565  -39.5650 N.am      5 UNK        -0.4663 
     35 CA         24.0721  -25.7626  -40.1187 C.3       5 UNK         0.0242 
     36 CB         23.6176  -24.3050  -40.2969 C.3       5 UNK        -0.1982 
     37 C          24.5768  -26.3434  -41.4485 C.2       5 UNK         0.5017 
     38 O          25.7785  -26.2851  -41.7097 O.2       5 UNK        -0.5012 
     39 N          23.6532  -26.8894  -42.2541 N.am      6 UNK        -0.4439 
     40 CA         23.9163  -27.5328  -43.5402 C.3       6 UNK         0.0297 
     41 CB         22.5894  -27.8602  -44.2475 C.3       6 UNK        -0.2006 
     42 C          24.8094  -28.7760  -43.4040 C.2       6 UNK         0.4892 
     43 O          25.8578  -28.8207  -44.0491 O.2       6 UNK        -0.5089 
     44 N          24.4030  -29.7302  -42.5514 N.am      7 UNK        -0.4243 
     45 CA         25.1811  -30.9360  -42.2216 C.3       7 UNK         0.0196 
     46 CB         25.3923  -31.8384  -43.4616 C.3       7 UNK        -0.2007 
     47 C          24.5953  -31.7814  -41.0758 C.2       7 UNK         0.5020 
     48 O          25.2620  -32.7333  -40.6685 O.2       7 UNK        -0.5147 
     49 N          23.3785  -31.4770  -40.5927 N.am      8 UNK        -0.4734 
     50 CA         22.5864  -32.2874  -39.6534 C.3       8 UNK         0.0238 
     51 CB         23.2716  -32.3953  -38.2728 C.3       8 UNK        -0.1912 
     52 C          22.2037  -33.6529  -40.2609 C.2       8 UNK         0.5038 
     53 O          22.3952  -34.6928  -39.6275 O.2       8 UNK        -0.5046 
     54 N          21.6929  -33.6027  -41.4995 N.am      9 UNK        -0.4200 
     55 CA         21.2402  -34.7359  -42.3202 C.3       9 UNK         0.0839 
     56 C          20.1782  -35.6181  -41.6068 C.2       9 UNK         0.5513 
     57 N          20.2722  -36.9339  -41.7395 N.am      9 UNK        -0.7519 
     58 O          19.2465  -35.1153  -40.9819 O.2       9 UNK        -0.4960 
     59 C59        20.6853  -34.2571  -43.6909 C.3       10 UNK        -0.0876 
     60 S60        21.8839  -33.3376  -44.7219 S.3       10 UNK        -0.2414 
     61 C61        21.6950  -31.5953  -44.2096 C.3       10 UNK         0.0169 
     62 H62        16.0960  -21.7671  -47.5722 H         1 UNK         0.0903 
     63 H63        16.1362  -21.3752  -45.8512 H         1 UNK         0.0903 
     64 H64        17.6001  -21.2265  -46.8249 H         1 UNK         0.0903 
     65 H65        19.0156  -22.8988  -46.4832 H         1 UNK         0.3096 
     66 H66        19.9550  -24.8066  -46.0323 H         1 UNK         0.1121 
     67 H67        18.2685  -25.5618  -47.9891 H         1 UNK         0.0849 
     68 H68        17.5701  -26.5542  -46.7525 H         1 UNK         0.0849 
     69 H69        17.9547  -28.6600  -47.7504 H         1 UNK         0.0865 
     70 H70        19.4550  -29.3877  -48.2446 H         1 UNK         0.0865 
     71 H71        21.1298  -30.1576  -46.4609 H         1 UNK         0.1346 
     72 H72        19.3315  -31.6198  -42.8578 H         1 UNK         0.1412 
     73 H73        17.0522  -29.1842  -45.5449 H         1 UNK         0.1426 
     74 H74        16.8904  -31.5051  -42.6419 H         1 UNK         0.0716 
     75 H75        15.9404  -30.5815  -43.7756 H         1 UNK         0.0716 
     76 H76        17.9995  -29.2132  -39.9546 H         1 UNK         0.0695 
     77 H77        18.5634  -30.4645  -41.0225 H         1 UNK         0.0695 
     78 H78        19.6622  -28.7170  -42.4814 H         1 UNK         0.0983 
     79 H79        18.0059  -26.9497  -41.4631 H         1 UNK         0.3095 
     80 H80        17.9613  -24.8460  -41.8510 H         1 UNK         0.0454 
     81 H81        19.0044  -22.6247  -41.5938 H         1 UNK         0.0851 
     82 H82        19.5794  -23.6814  -40.3153 H         1 UNK         0.0851 
     83 H83        20.6201  -23.3223  -41.6852 H         1 UNK         0.0851 
     84 H84        19.6245  -23.7180  -43.8814 H         1 UNK         0.2976 
     85 H85        19.9547  -27.7580  -39.0581 H         1 UNK         0.3116 
     86 H86        22.1198  -29.5218  -38.4457 H         1 UNK         0.0646 
     87 H87        21.1616  -26.9869  -37.0142 H         1 UNK         0.0847 
     88 H88        22.2555  -28.1878  -36.3434 H         1 UNK         0.0847 
     89 H89        20.5967  -28.6301  -36.7060 H         1 UNK         0.0847 
     90 H90        22.0356  -26.2691  -39.8091 H         1 UNK         0.3040 
     91 H91        24.9063  -25.7730  -39.4131 H         1 UNK         0.1015 
     92 H92        23.2807  -23.8754  -39.3533 H         1 UNK         0.0786 
     93 H93        22.8030  -24.2186  -41.0159 H         1 UNK         0.0786 
     94 H94        24.4380  -23.6849  -40.6607 H         1 UNK         0.0786 
     95 H95        22.6770  -26.8021  -41.9814 H         1 UNK         0.3172 
     96 H96        24.4504  -26.8092  -44.1595 H         1 UNK         0.0595 
     97 H97        22.0043  -26.9589  -44.4318 H         1 UNK         0.0839 
     98 H98        21.9698  -28.5403  -43.6643 H         1 UNK         0.0839 
     99 H99        22.7677  -28.3308  -45.2152 H         1 UNK         0.0839 
    100 H100       23.5415  -29.5707  -42.0430 H         1 UNK         0.2998 
    101 H101       26.1605  -30.5989  -41.8756 H         1 UNK         0.0822 
    102 H102       24.4470  -32.1785  -43.8774 H         1 UNK         0.0787 
    103 H103       25.9455  -31.3392  -44.2554 H         1 UNK         0.0787 
    104 H104       25.9665  -32.7303  -43.2071 H         1 UNK         0.0787 
    105 H105       22.8784  -30.6631  -40.9426 H         1 UNK         0.3055 
    106 H106       21.6462  -31.7538  -39.5043 H         1 UNK         0.1106 
    107 H107       23.5498  -31.4149  -37.8868 H         1 UNK         0.0828 
    108 H108       22.6025  -32.8542  -37.5441 H         1 UNK         0.0828 
    109 H109       24.1733  -33.0069  -38.3090 H         1 UNK         0.0828 
    110 H110       21.5996  -32.6975  -41.9292 H         1 UNK         0.2931 
    111 H111       22.1230  -35.3504  -42.5074 H         1 UNK         0.0412 
    112 H112       21.0272  -37.3532  -42.2605 H         1 UNK         0.3472 
    113 H113       19.5817  -37.5220  -41.2986 H         1 UNK         0.3472 
    114 H114       19.7705  -33.6815  -43.5664 H         1 UNK         0.0970 
    115 H115       20.3874  -35.1263  -44.2808 H         1 UNK         0.0970 
    116 H116       22.5092  -31.0247  -44.6587 H         1 UNK         0.0612 
    117 H117       21.8335  -31.4955  -43.1348 H         1 UNK         0.0612 
@<TRIPOS>BOND
     1    1    2 1    
     2    1   62 1    
     3    1   63 1    
     4    1   64 1    
     5    2    3 2    
     6    2    4 am   BACKBONE|DICT|INTERRES
     7    4    5 1    
     8    4   65 1    
     9    5    6 1    
    10    5   25 1    
    11    5   66 1    
    12    6    7 1    
    13    6   67 1    
    14    6   68 1    
    15    7    8 1    
    16    8    9 1    
    17    8   69 1    
    18    8   70 1    
    19    9   10 ar   
    20    9   14 ar   
    21   10   11 ar   
    22   10   71 1    
    23   11   12 ar   
    24   11   61 1    
    25   12   13 ar   
    26   12   72 1    
    27   13   14 ar   
    28   13   15 1    
    29   14   73 1    
    30   15   16 1    
    31   15   74 1    
    32   15   75 1    
    33   16   17 1    
    34   17   18 1    
    35   17   76 1    
    36   17   77 1    
    37   18   19 1    
    38   18   27 1    
    39   18   78 1    
    40   19   20 am   BACKBONE|DICT|INTERRES
    41   19   79 1    
    42   20   21 2    
    43   20   22 1    
    44   22   23 1    
    45   22   24 1    
    46   22   80 1    
    47   23   81 1    
    48   23   82 1    
    49   23   83 1    
    50   24   25 am   BACKBONE|DICT|INTERRES
    51   24   84 1    
    52   25   26 2    
    53   27   28 2    
    54   27   29 am   BACKBONE|DICT|INTERRES
    55   29   30 1    
    56   29   85 1    
    57   30   31 1    
    58   30   32 1    
    59   30   86 1    
    60   31   87 1    
    61   31   88 1    
    62   31   89 1    
    63   32   33 2    
    64   32   34 am   BACKBONE|DICT|INTERRES
    65   34   35 1    
    66   34   90 1    
    67   35   36 1    
    68   35   37 1    
    69   35   91 1    
    70   36   92 1    
    71   36   93 1    
    72   36   94 1    
    73   37   38 2    
    74   37   39 am   BACKBONE|DICT|INTERRES
    75   39   40 1    
    76   39   95 1    
    77   40   41 1    
    78   40   42 1    
    79   40   96 1    
    80   41   97 1    
    81   41   98 1    
    82   41   99 1    
    83   42   43 2    
    84   42   44 am   BACKBONE|DICT|INTERRES
    85   44   45 1    
    86   44  100 1    
    87   45   46 1    
    88   45   47 1    
    89   45  101 1    
    90   46  102 1    
    91   46  103 1    
    92   46  104 1    
    93   47   48 2    
    94   47   49 am   BACKBONE|DICT|INTERRES
    95   49   50 1    
    96   49  105 1    
    97   50   51 1    
    98   50   52 1    
    99   50  106 1    
   100   51  107 1    
   101   51  108 1    
   102   51  109 1    
   103   52   53 2    
   104   52   54 am   BACKBONE|DICT|INTERRES
   105   54   55 1    
   106   54  110 1    
   107   55   56 1    
   108   55   59 1    
   109   55  111 1    
   110   56   57 am   BACKBONE|DICT|INTERRES
   111   56   58 2    
   112   57  112 1    
   113   57  113 1    
   114   59   60 1    
   115   59  114 1    
   116   59  115 1    
   117   60   61 1    
   118   61  116 1    
   119   61  117 1    
@<TRIPOS>SUBSTRUCTURE
     1 UNK         1 GROUP             0       ****    0 ROOT    
