@<TRIPOS>MOLECULE
3R8
117   119    1
SMALL
USER_CHARGES


@<TRIPOS>ATOM
      1 CA         15.1599  -23.5312  -47.1732 C.3       0 UNK        -0.2013 
      2 C          16.5185  -24.2085  -47.0713 C.2       0 UNK         0.4866 
      3 O          17.5299  -23.6110  -47.4416 O.2       0 UNK        -0.5176 
      4 N          16.5502  -25.4537  -46.5796 N.am      1 UNK        -0.4884 
      5 CA         17.7745  -26.2260  -46.3435 C.3       1 UNK         0.0853 
      6 C6         17.4595  -27.7375  -46.2037 C.3       10 UNK        -0.0849 
      7 S7         18.8203  -28.8108  -46.7810 S.3       10 UNK        -0.2776 
      8 C8         19.6433  -29.3392  -45.2422 C.3       10 UNK         0.0316 
      9 C9         18.7328  -30.1514  -44.3324 C.ar      10 UNK        -0.0863 
     10 C10        18.5031  -31.5072  -44.5862 C.ar      10 UNK        -0.1009 
     11 C11        17.6661  -32.2495  -43.7476 C.ar      10 UNK        -0.0712 
     12 C12        17.0751  -31.6319  -42.6411 C.ar      10 UNK        -0.0894 
     13 C13        17.2935  -30.2766  -42.3773 C.ar      10 UNK        -0.0745 
     14 C14        18.1251  -29.5447  -43.2294 C.ar      10 UNK        -0.0972 
     15 C15        16.5771  -29.6034  -41.2110 C.3       10 UNK         0.0209 
     16 S16        17.7161  -28.9591  -39.9406 S.3       10 UNK        -0.2568 
     17 C17        18.0636  -27.2741  -40.5536 C.3       10 UNK        -0.0983 
     18 CA         19.5588  -27.0943  -40.9269 C.3       3 UNK         0.0876 
     19 N          19.7132  -26.2733  -42.1288 N.am      3 UNK        -0.4424 
     20 C          20.8021  -26.2357  -42.9038 C.2       2 UNK         0.4918 
     21 O          21.7844  -26.9603  -42.7407 O.2       2 UNK        -0.4875 
     22 CA         20.7541  -25.2447  -44.0837 C.3       2 UNK         0.0481 
     23 CB         22.1453  -24.9785  -44.6851 C.3       2 UNK        -0.1831 
     24 N          19.8589  -25.7017  -45.1507 N.am      2 UNK        -0.4498 
     25 C          18.5202  -25.6823  -45.1060 C.2       1 UNK         0.5027 
     26 O          17.8757  -25.2766  -44.1338 O.2       1 UNK        -0.4969 
     27 C          20.3761  -26.5272  -39.7456 C.2       3 UNK         0.5005 
     28 O          20.7395  -25.3475  -39.7582 O.2       3 UNK        -0.5279 
     29 N          20.6156  -27.3772  -38.7338 N.am      4 UNK        -0.4463 
     30 CA         21.3801  -27.0999  -37.5069 C.3       4 UNK         0.0283 
     31 CB         20.6386  -26.0826  -36.6132 C.3       4 UNK        -0.1875 
     32 C          22.8422  -26.6982  -37.7923 C.2       4 UNK         0.4949 
     33 O          23.3822  -25.7955  -37.1505 O.2       4 UNK        -0.5039 
     34 N          23.4491  -27.3838  -38.7644 N.am      5 UNK        -0.4663 
     35 CA         24.8044  -27.1822  -39.2620 C.3       5 UNK         0.0242 
     36 CB         24.8117  -26.0123  -40.2664 C.3       5 UNK        -0.1982 
     37 C          25.2609  -28.4859  -39.9277 C.2       5 UNK         0.5017 
     38 O          24.4456  -29.3918  -40.1190 O.2       5 UNK        -0.5012 
     39 N          26.5398  -28.5468  -40.3225 N.am      6 UNK        -0.4439 
     40 CA         27.1515  -29.6850  -41.0256 C.3       6 UNK         0.0297 
     41 CB         28.6613  -29.4325  -41.1715 C.3       6 UNK        -0.2006 
     42 C          26.5247  -30.0072  -42.3996 C.2       6 UNK         0.4892 
     43 O          26.7168  -31.1136  -42.9040 O.2       6 UNK        -0.5089 
     44 N          25.7892  -29.0450  -42.9722 N.am      7 UNK        -0.4243 
     45 CA         25.0121  -29.1882  -44.2024 C.3       7 UNK         0.0196 
     46 CB         24.7444  -27.7871  -44.7741 C.3       7 UNK        -0.2007 
     47 C          23.6897  -29.9605  -44.0187 C.2       7 UNK         0.5020 
     48 O          23.0998  -30.3567  -45.0246 O.2       7 UNK        -0.5147 
     49 N          23.2311  -30.1597  -42.7728 N.am      8 UNK        -0.4734 
     50 CA         22.0268  -30.9334  -42.4533 C.3       8 UNK         0.0238 
     51 CB         21.6374  -30.6894  -40.9866 C.3       8 UNK        -0.1912 
     52 C          22.2319  -32.4363  -42.7109 C.2       8 UNK         0.5038 
     53 O          23.3608  -32.9261  -42.6141 O.2       8 UNK        -0.5046 
     54 N          21.1377  -33.1431  -43.0177 N.am      9 UNK        -0.4200 
     55 CA         21.1364  -34.5935  -43.2531 C.3       9 UNK         0.0839 
     56 C          21.4445  -35.4368  -41.9812 C.2       9 UNK         0.5513 
     57 N          21.9035  -36.6691  -42.1559 N.am      9 UNK        -0.7519 
     58 O          21.2502  -35.0017  -40.8475 O.2       9 UNK        -0.4960 
     59 C59        19.8466  -35.0536  -43.9813 C.3       10 UNK        -0.0876 
     60 S60        18.3081  -34.8465  -43.0159 S.3       10 UNK        -0.2414 
     61 C61        17.3477  -33.7045  -44.0548 C.3       10 UNK         0.0169 
     62 H62        15.1485  -22.6223  -46.5722 H         1 UNK         0.0903 
     63 H63        14.9531  -23.2585  -48.2077 H         1 UNK         0.0903 
     64 H64        14.3542  -24.1775  -46.8256 H         1 UNK         0.0903 
     65 H65        15.6928  -25.8790  -46.2561 H         1 UNK         0.3096 
     66 H66        18.4126  -26.0818  -47.2190 H         1 UNK         0.1121 
     67 H67        16.6074  -27.9930  -46.8360 H         1 UNK         0.0849 
     68 H68        17.1423  -27.9956  -45.1935 H         1 UNK         0.0849 
     69 H69        20.5107  -29.9435  -45.5103 H         1 UNK         0.0865 
     70 H70        20.0399  -28.4721  -44.7151 H         1 UNK         0.0865 
     71 H71        18.9587  -31.9759  -45.4482 H         1 UNK         0.1346 
     72 H72        16.4210  -32.2073  -41.9998 H         1 UNK         0.1412 
     73 H73        18.2861  -28.4933  -43.0487 H         1 UNK         0.1426 
     74 H74        15.9087  -30.3141  -40.7226 H         1 UNK         0.0716 
     75 H75        15.9336  -28.8066  -41.5861 H         1 UNK         0.0716 
     76 H76        17.7406  -26.5521  -39.8004 H         1 UNK         0.0695 
     77 H77        17.4248  -27.0776  -41.4156 H         1 UNK         0.0695 
     78 H78        19.9792  -28.0699  -41.1762 H         1 UNK         0.0983 
     79 H79        18.9404  -25.6648  -42.3719 H         1 UNK         0.3095 
     80 H80        20.3791  -24.2951  -43.6959 H         1 UNK         0.0454 
     81 H81        22.5414  -25.8598  -45.1889 H         1 UNK         0.0851 
     82 H82        22.8600  -24.6919  -43.9123 H         1 UNK         0.0851 
     83 H83        22.1130  -24.1663  -45.4113 H         1 UNK         0.0851 
     84 H84        20.3071  -26.0784  -45.9740 H         1 UNK         0.2976 
     85 H85        20.2341  -28.3114  -38.8041 H         1 UNK         0.3116 
     86 H86        21.4284  -28.0415  -36.9578 H         1 UNK         0.0646 
     87 H87        20.5996  -25.0933  -37.0702 H         1 UNK         0.0847 
     88 H88        21.1369  -25.9739  -35.6492 H         1 UNK         0.0847 
     89 H89        19.6155  -26.4006  -36.4135 H         1 UNK         0.0847 
     90 H90        22.9688  -28.1599  -39.2028 H         1 UNK         0.3040 
     91 H91        25.4724  -26.9669  -38.4250 H         1 UNK         0.1015 
     92 H92        24.1609  -26.2121  -41.1195 H         1 UNK         0.0786 
     93 H93        25.8133  -25.8208  -40.6527 H         1 UNK         0.0786 
     94 H94        24.4681  -25.0885  -39.8004 H         1 UNK         0.0786 
     95 H95        27.1430  -27.7583  -40.1338 H         1 UNK         0.3172 
     96 H96        27.0132  -30.5684  -40.3986 H         1 UNK         0.0595 
     97 H97        29.1531  -30.2752  -41.6599 H         1 UNK         0.0839 
     98 H98        29.1396  -29.3021  -40.2005 H         1 UNK         0.0839 
     99 H99        28.8665  -28.5449  -41.7714 H         1 UNK         0.0839 
    100 H100       25.6973  -28.1683  -42.4816 H         1 UNK         0.2998 
    101 H101       25.6105  -29.7443  -44.9273 H         1 UNK         0.0822 
    102 H102       24.1532  -27.8416  -45.6894 H         1 UNK         0.0787 
    103 H103       24.1958  -27.1677  -44.0642 H         1 UNK         0.0787 
    104 H104       25.6741  -27.2737  -45.0199 H         1 UNK         0.0787 
    105 H105       23.7848  -29.8433  -41.9839 H         1 UNK         0.3055 
    106 H106       21.2208  -30.5714  -43.0923 H         1 UNK         0.1106 
    107 H107       20.6499  -31.0998  -40.7707 H         1 UNK         0.0828 
    108 H108       22.3442  -31.1589  -40.3008 H         1 UNK         0.0828 
    109 H109       21.6105  -29.6264  -40.7540 H         1 UNK         0.0828 
    110 H110       20.2328  -32.6944  -43.0238 H         1 UNK         0.2931 
    111 H111       21.9604  -34.7821  -43.9448 H         1 UNK         0.0412 
    112 H112       22.0999  -37.2375  -41.3465 H         1 UNK         0.3472 
    113 H113       22.0655  -37.0413  -43.0790 H         1 UNK         0.3472 
    114 H114       19.9282  -36.1072  -44.2544 H         1 UNK         0.0970 
    115 H115       19.7613  -34.5221  -44.9299 H         1 UNK         0.0970 
    116 H116       16.2873  -33.8832  -43.8705 H         1 UNK         0.0612 
    117 H117       17.5065  -33.9270  -45.1110 H         1 UNK         0.0612 
@<TRIPOS>BOND
     1    1    2 1    
     2    1   62 1    
     3    1   63 1    
     4    1   64 1    
     5    2    3 2    
     6    2    4 am   BACKBONE|DICT|INTERRES
     7    4    5 1    
     8    4   65 1    
     9    5    6 1    
    10    5   25 1    
    11    5   66 1    
    12    6    7 1    
    13    6   67 1    
    14    6   68 1    
    15    7    8 1    
    16    8    9 1    
    17    8   69 1    
    18    8   70 1    
    19    9   10 ar   
    20    9   14 ar   
    21   10   11 ar   
    22   10   71 1    
    23   11   12 ar   
    24   11   61 1    
    25   12   13 ar   
    26   12   72 1    
    27   13   14 ar   
    28   13   15 1    
    29   14   73 1    
    30   15   16 1    
    31   15   74 1    
    32   15   75 1    
    33   16   17 1    
    34   17   18 1    
    35   17   76 1    
    36   17   77 1    
    37   18   19 1    
    38   18   27 1    
    39   18   78 1    
    40   19   20 am   BACKBONE|DICT|INTERRES
    41   19   79 1    
    42   20   21 2    
    43   20   22 1    
    44   22   23 1    
    45   22   24 1    
    46   22   80 1    
    47   23   81 1    
    48   23   82 1    
    49   23   83 1    
    50   24   25 am   BACKBONE|DICT|INTERRES
    51   24   84 1    
    52   25   26 2    
    53   27   28 2    
    54   27   29 am   BACKBONE|DICT|INTERRES
    55   29   30 1    
    56   29   85 1    
    57   30   31 1    
    58   30   32 1    
    59   30   86 1    
    60   31   87 1    
    61   31   88 1    
    62   31   89 1    
    63   32   33 2    
    64   32   34 am   BACKBONE|DICT|INTERRES
    65   34   35 1    
    66   34   90 1    
    67   35   36 1    
    68   35   37 1    
    69   35   91 1    
    70   36   92 1    
    71   36   93 1    
    72   36   94 1    
    73   37   38 2    
    74   37   39 am   BACKBONE|DICT|INTERRES
    75   39   40 1    
    76   39   95 1    
    77   40   41 1    
    78   40   42 1    
    79   40   96 1    
    80   41   97 1    
    81   41   98 1    
    82   41   99 1    
    83   42   43 2    
    84   42   44 am   BACKBONE|DICT|INTERRES
    85   44   45 1    
    86   44  100 1    
    87   45   46 1    
    88   45   47 1    
    89   45  101 1    
    90   46  102 1    
    91   46  103 1    
    92   46  104 1    
    93   47   48 2    
    94   47   49 am   BACKBONE|DICT|INTERRES
    95   49   50 1    
    96   49  105 1    
    97   50   51 1    
    98   50   52 1    
    99   50  106 1    
   100   51  107 1    
   101   51  108 1    
   102   51  109 1    
   103   52   53 2    
   104   52   54 am   BACKBONE|DICT|INTERRES
   105   54   55 1    
   106   54  110 1    
   107   55   56 1    
   108   55   59 1    
   109   55  111 1    
   110   56   57 am   BACKBONE|DICT|INTERRES
   111   56   58 2    
   112   57  112 1    
   113   57  113 1    
   114   59   60 1    
   115   59  114 1    
   116   59  115 1    
   117   60   61 1    
   118   61  116 1    
   119   61  117 1    
@<TRIPOS>SUBSTRUCTURE
     1 UNK         1 GROUP             0       ****    0 ROOT    
