@<TRIPOS>MOLECULE
3R8
117   119    1
SMALL
USER_CHARGES


@<TRIPOS>ATOM
      1 CA         14.6460  -25.7160  -48.4497 C.3       0 UNK        -0.2013 
      2 C          15.8158  -25.9913  -47.5175 C.2       0 UNK         0.4866 
      3 O          16.9241  -26.2575  -47.9843 O.2       0 UNK        -0.5176 
      4 N          15.5874  -25.9171  -46.2002 N.am      1 UNK        -0.4884 
      5 CA         16.5726  -26.1730  -45.1394 C.3       1 UNK         0.0853 
      6 C6         15.8867  -26.6092  -43.8183 C.3       10 UNK        -0.0849 
      7 S7         14.9896  -28.1870  -44.0228 S.3       10 UNK        -0.2776 
      8 C8         15.6048  -29.1774  -42.6151 C.3       10 UNK         0.0316 
      9 C9         17.1122  -29.4360  -42.6073 C.ar      10 UNK        -0.0863 
     10 C10        17.7786  -29.5130  -41.3795 C.ar      10 UNK        -0.1009 
     11 C11        19.1488  -29.7836  -41.3222 C.ar      10 UNK        -0.0712 
     12 C12        19.8632  -29.9588  -42.5095 C.ar      10 UNK        -0.0894 
     13 C13        19.2154  -29.8772  -43.7467 C.ar      10 UNK        -0.0745 
     14 C14        17.8389  -29.6325  -43.7887 C.ar      10 UNK        -0.0972 
     15 C15        20.0018  -30.0544  -45.0388 C.3       10 UNK         0.0209 
     16 S16        20.3698  -28.4605  -45.8419 S.3       10 UNK        -0.2568 
     17 C17        21.4295  -27.6715  -44.5833 C.3       10 UNK        -0.0983 
     18 CA         21.8619  -26.2220  -44.9297 C.3       3 UNK         0.0876 
     19 N          20.6957  -25.4105  -45.2718 N.am      3 UNK        -0.4424 
     20 C          20.6745  -24.1754  -45.7829 C.2       2 UNK         0.4918 
     21 O          21.6879  -23.5285  -46.0520 O.2       2 UNK        -0.4875 
     22 CA         19.2801  -23.5789  -46.0790 C.3       2 UNK         0.0481 
     23 CB         19.2438  -22.8944  -47.4568 C.3       2 UNK        -0.1831 
     24 N          18.2185  -24.5922  -46.0330 N.am      2 UNK        -0.4498 
     25 C          17.5268  -24.9709  -44.9504 C.2       1 UNK         0.5027 
     26 O          17.6370  -24.4263  -43.8511 O.2       1 UNK        -0.4969 
     27 C          22.6627  -25.6375  -43.7450 C.2       3 UNK         0.5005 
     28 O          22.1844  -24.7504  -43.0308 O.2       3 UNK        -0.5279 
     29 N          23.8461  -26.2202  -43.5101 N.am      4 UNK        -0.4463 
     30 CA         24.5977  -26.1019  -42.2583 C.3       4 UNK         0.0283 
     31 CB         25.9960  -26.7102  -42.4686 C.3       4 UNK        -0.1875 
     32 C          23.8729  -26.8096  -41.0943 C.2       4 UNK         0.4949 
     33 O          22.9498  -27.5933  -41.3229 O.2       4 UNK        -0.5039 
     34 N          24.3351  -26.5525  -39.8628 N.am      5 UNK        -0.4663 
     35 CA         23.7974  -27.1420  -38.6272 C.3       5 UNK         0.0242 
     36 CB         24.4397  -26.4440  -37.4170 C.3       5 UNK        -0.1982 
     37 C          23.9671  -28.6715  -38.5202 C.2       5 UNK         0.5017 
     38 O          23.2280  -29.3035  -37.7651 O.2       5 UNK        -0.5012 
     39 N          24.9301  -29.2242  -39.2687 N.am      6 UNK        -0.4439 
     40 CA         25.1279  -30.6552  -39.4806 C.3       6 UNK         0.0297 
     41 CB         26.6392  -30.9642  -39.4543 C.3       6 UNK        -0.2006 
     42 C          24.4210  -31.0533  -40.7897 C.2       6 UNK         0.4892 
     43 O          23.1929  -30.9859  -40.8496 O.2       6 UNK        -0.5089 
     44 N          25.1902  -31.4496  -41.8160 N.am      7 UNK        -0.4243 
     45 CA         24.7284  -31.9045  -43.1327 C.3       7 UNK         0.0196 
     46 CB         24.0915  -30.7382  -43.9261 C.3       7 UNK        -0.2007 
     47 C          23.8275  -33.1470  -42.9991 C.2       7 UNK         0.5020 
     48 O          24.3430  -34.2307  -42.7229 O.2       7 UNK        -0.5147 
     49 N          22.5117  -32.9735  -43.1764 N.am      8 UNK        -0.4734 
     50 CA         21.5054  -34.0171  -42.9658 C.3       8 UNK         0.0238 
     51 CB         20.2063  -33.6248  -43.6888 C.3       8 UNK        -0.1912 
     52 C          21.2253  -34.2990  -41.4774 C.2       8 UNK         0.5038 
     53 O          20.7826  -35.4037  -41.1585 O.2       8 UNK        -0.5046 
     54 N          21.4675  -33.3137  -40.6031 N.am      9 UNK        -0.4200 
     55 CA         21.3018  -33.4297  -39.1490 C.3       9 UNK         0.0839 
     56 C          22.5487  -34.0697  -38.4843 C.2       9 UNK         0.5513 
     57 N          22.3623  -34.7706  -37.3742 N.am      9 UNK        -0.7519 
     58 O          23.6809  -33.9114  -38.9357 O.2       9 UNK        -0.4960 
     59 C59        20.9629  -32.0636  -38.4984 C.3       10 UNK        -0.0876 
     60 S60        19.3679  -31.3994  -39.0915 S.3       10 UNK        -0.2414 
     61 C61        19.8562  -29.8832  -39.9783 C.3       10 UNK         0.0169 
     62 H62        14.4615  -26.5822  -49.0845 H         1 UNK         0.0903 
     63 H63        13.7301  -25.4963  -47.9014 H         1 UNK         0.0903 
     64 H64        14.8703  -24.8645  -49.0915 H         1 UNK         0.0903 
     65 H65        14.6600  -25.6815  -45.8755 H         1 UNK         0.3096 
     66 H66        17.2061  -27.0047  -45.4587 H         1 UNK         0.1121 
     67 H67        16.6258  -26.7230  -43.0228 H         1 UNK         0.0849 
     68 H68        15.1863  -25.8464  -43.4735 H         1 UNK         0.0849 
     69 H69        15.3033  -28.6768  -41.6934 H         1 UNK         0.0865 
     70 H70        15.0928  -30.1404  -42.6205 H         1 UNK         0.0865 
     71 H71        17.2287  -29.3791  -40.4577 H         1 UNK         0.1346 
     72 H72        20.9271  -30.1475  -42.4653 H         1 UNK         0.1412 
     73 H73        17.3390  -29.5866  -44.7463 H         1 UNK         0.1426 
     74 H74        19.4301  -30.6749  -45.7304 H         1 UNK         0.0716 
     75 H75        20.9354  -30.5871  -44.8539 H         1 UNK         0.0716 
     76 H76        22.3011  -28.3110  -44.4383 H         1 UNK         0.0695 
     77 H77        20.8890  -27.6718  -43.6349 H         1 UNK         0.0695 
     78 H78        22.5169  -26.2417  -45.8033 H         1 UNK         0.0983 
     79 H79        19.8079  -25.8499  -45.0908 H         1 UNK         0.3095 
     80 H80        19.0863  -22.8194  -45.3193 H         1 UNK         0.0454 
     81 H81        19.4700  -23.5956  -48.2609 H         1 UNK         0.0851 
     82 H82        19.9725  -22.0848  -47.5144 H         1 UNK         0.0851 
     83 H83        18.2649  -22.4587  -47.6573 H         1 UNK         0.0851 
     84 H84        18.0345  -25.1016  -46.8945 H         1 UNK         0.2976 
     85 H85        24.1479  -26.9532  -44.1349 H         1 UNK         0.3116 
     86 H86        24.7005  -25.0429  -42.0122 H         1 UNK         0.0646 
     87 H87        25.9445  -27.7786  -42.6837 H         1 UNK         0.0847 
     88 H88        26.6205  -26.5861  -41.5831 H         1 UNK         0.0847 
     89 H89        26.5184  -26.2273  -43.2947 H         1 UNK         0.0847 
     90 H90        25.0964  -25.8966  -39.7556 H         1 UNK         0.3040 
     91 H91        22.7233  -26.9432  -38.6077 H         1 UNK         0.1015 
     92 H92        24.2424  -25.3718  -37.4248 H         1 UNK         0.0786 
     93 H93        25.5206  -26.5886  -37.3941 H         1 UNK         0.0786 
     94 H94        24.0390  -26.8372  -36.4814 H         1 UNK         0.0786 
     95 H95        25.4526  -28.6048  -39.8698 H         1 UNK         0.3172 
     96 H96        24.6563  -31.2243  -38.6768 H         1 UNK         0.0595 
     97 H97        27.1922  -30.4077  -40.2121 H         1 UNK         0.0839 
     98 H98        26.8267  -32.0278  -39.6097 H         1 UNK         0.0839 
     99 H99        27.0686  -30.7084  -38.4853 H         1 UNK         0.0839 
    100 H100       26.1866  -31.5075  -41.6611 H         1 UNK         0.2998 
    101 H101       25.6142  -32.2282  -43.6816 H         1 UNK         0.0822 
    102 H102       23.7459  -31.0694  -44.9064 H         1 UNK         0.0787 
    103 H103       23.2436  -30.2925  -43.4063 H         1 UNK         0.0787 
    104 H104       24.8187  -29.9445  -44.0965 H         1 UNK         0.0787 
    105 H105       22.1775  -32.0425  -43.3721 H         1 UNK         0.3055 
    106 H106       21.8745  -34.9450  -43.4090 H         1 UNK         0.1106 
    107 H107       19.4700  -34.4270  -43.6233 H         1 UNK         0.0828 
    108 H108       19.7516  -32.7364  -43.2507 H         1 UNK         0.0828 
    109 H109       20.3788  -33.4314  -44.7476 H         1 UNK         0.0828 
    110 H110       21.9191  -32.4619  -40.9215 H         1 UNK         0.2931 
    111 H111       20.4566  -34.0951  -38.9592 H         1 UNK         0.0412 
    112 H112       23.1599  -35.1848  -36.9171 H         1 UNK         0.3472 
    113 H113       21.4398  -34.9033  -36.9886 H         1 UNK         0.3472 
    114 H114       20.8835  -32.1693  -37.4149 H         1 UNK         0.0970 
    115 H115       21.7662  -31.3457  -38.6644 H         1 UNK         0.0970 
    116 H116       19.6024  -29.0170  -39.3660 H         1 UNK         0.0612 
    117 H117       20.9365  -29.8457  -40.1189 H         1 UNK         0.0612 
@<TRIPOS>BOND
     1    1    2 1    
     2    1   62 1    
     3    1   63 1    
     4    1   64 1    
     5    2    3 2    
     6    2    4 am   BACKBONE|DICT|INTERRES
     7    4    5 1    
     8    4   65 1    
     9    5    6 1    
    10    5   25 1    
    11    5   66 1    
    12    6    7 1    
    13    6   67 1    
    14    6   68 1    
    15    7    8 1    
    16    8    9 1    
    17    8   69 1    
    18    8   70 1    
    19    9   10 ar   
    20    9   14 ar   
    21   10   11 ar   
    22   10   71 1    
    23   11   12 ar   
    24   11   61 1    
    25   12   13 ar   
    26   12   72 1    
    27   13   14 ar   
    28   13   15 1    
    29   14   73 1    
    30   15   16 1    
    31   15   74 1    
    32   15   75 1    
    33   16   17 1    
    34   17   18 1    
    35   17   76 1    
    36   17   77 1    
    37   18   19 1    
    38   18   27 1    
    39   18   78 1    
    40   19   20 am   BACKBONE|DICT|INTERRES
    41   19   79 1    
    42   20   21 2    
    43   20   22 1    
    44   22   23 1    
    45   22   24 1    
    46   22   80 1    
    47   23   81 1    
    48   23   82 1    
    49   23   83 1    
    50   24   25 am   BACKBONE|DICT|INTERRES
    51   24   84 1    
    52   25   26 2    
    53   27   28 2    
    54   27   29 am   BACKBONE|DICT|INTERRES
    55   29   30 1    
    56   29   85 1    
    57   30   31 1    
    58   30   32 1    
    59   30   86 1    
    60   31   87 1    
    61   31   88 1    
    62   31   89 1    
    63   32   33 2    
    64   32   34 am   BACKBONE|DICT|INTERRES
    65   34   35 1    
    66   34   90 1    
    67   35   36 1    
    68   35   37 1    
    69   35   91 1    
    70   36   92 1    
    71   36   93 1    
    72   36   94 1    
    73   37   38 2    
    74   37   39 am   BACKBONE|DICT|INTERRES
    75   39   40 1    
    76   39   95 1    
    77   40   41 1    
    78   40   42 1    
    79   40   96 1    
    80   41   97 1    
    81   41   98 1    
    82   41   99 1    
    83   42   43 2    
    84   42   44 am   BACKBONE|DICT|INTERRES
    85   44   45 1    
    86   44  100 1    
    87   45   46 1    
    88   45   47 1    
    89   45  101 1    
    90   46  102 1    
    91   46  103 1    
    92   46  104 1    
    93   47   48 2    
    94   47   49 am   BACKBONE|DICT|INTERRES
    95   49   50 1    
    96   49  105 1    
    97   50   51 1    
    98   50   52 1    
    99   50  106 1    
   100   51  107 1    
   101   51  108 1    
   102   51  109 1    
   103   52   53 2    
   104   52   54 am   BACKBONE|DICT|INTERRES
   105   54   55 1    
   106   54  110 1    
   107   55   56 1    
   108   55   59 1    
   109   55  111 1    
   110   56   57 am   BACKBONE|DICT|INTERRES
   111   56   58 2    
   112   57  112 1    
   113   57  113 1    
   114   59   60 1    
   115   59  114 1    
   116   59  115 1    
   117   60   61 1    
   118   61  116 1    
   119   61  117 1    
@<TRIPOS>SUBSTRUCTURE
     1 UNK         1 GROUP             0       ****    0 ROOT    
