@<TRIPOS>MOLECULE
3R8
117   119    1
SMALL
USER_CHARGES


@<TRIPOS>ATOM
      1 CA         22.6492  -23.4702  -49.4714 C.3       0 UNK        -0.2013 
      2 C          22.2661  -24.6049  -48.5331 C.2       0 UNK         0.4866 
      3 O          22.9575  -25.6226  -48.4867 O.2       0 UNK        -0.5176 
      4 N          21.1723  -24.4398  -47.7840 N.am      1 UNK        -0.4884 
      5 CA         20.6601  -25.4042  -46.8142 C.3       1 UNK         0.0853 
      6 C6         19.9001  -26.5785  -47.5119 C.3       10 UNK        -0.0849 
      7 S7         18.6093  -27.4402  -46.5412 S.3       10 UNK        -0.2776 
      8 C8         19.5149  -28.8788  -45.8715 C.3       10 UNK         0.0316 
      9 C9         18.8393  -29.5763  -44.6852 C.ar      10 UNK        -0.0863 
     10 C10        19.5888  -30.4867  -43.9323 C.ar      10 UNK        -0.1009 
     11 C11        19.0265  -31.1496  -42.8367 C.ar      10 UNK        -0.0712 
     12 C12        17.7009  -30.8888  -42.4793 C.ar      10 UNK        -0.0894 
     13 C13        16.9363  -29.9801  -43.2156 C.ar      10 UNK        -0.0745 
     14 C14        17.5039  -29.3446  -44.3243 C.ar      10 UNK        -0.0972 
     15 C15        15.5017  -29.6680  -42.8083 C.3       10 UNK         0.0209 
     16 S16        15.2761  -27.9090  -42.3767 S.3       10 UNK        -0.2568 
     17 C17        16.2510  -27.7562  -40.8404 C.3       10 UNK        -0.0983 
     18 CA         17.7361  -27.3944  -41.0925 C.3       3 UNK         0.0876 
     19 N          17.9040  -26.1935  -41.9186 N.am      3 UNK        -0.4424 
     20 C          19.0791  -25.7856  -42.4108 C.2       2 UNK         0.4918 
     21 O          20.1610  -26.3136  -42.1401 O.2       2 UNK        -0.4875 
     22 CA         19.0586  -24.6264  -43.4095 C.3       2 UNK         0.0481 
     23 CB         19.6093  -23.3299  -42.7924 C.3       2 UNK        -0.1831 
     24 N          19.8854  -25.0585  -44.5274 N.am      2 UNK        -0.4498 
     25 C          19.8348  -24.6093  -45.7839 C.2       1 UNK         0.5027 
     26 O          19.1673  -23.6368  -46.1487 O.2       1 UNK        -0.4969 
     27 C          18.5146  -27.2948  -39.7675 C.2       3 UNK         0.5005 
     28 O          18.5208  -26.2323  -39.1408 O.2       3 UNK        -0.5279 
     29 N          19.1890  -28.3929  -39.3963 N.am      4 UNK        -0.4463 
     30 CA         20.1051  -28.5722  -38.2586 C.3       4 UNK         0.0283 
     31 CB         19.4101  -28.2945  -36.9112 C.3       4 UNK        -0.1875 
     32 C          21.4311  -27.7938  -38.3717 C.2       4 UNK         0.4949 
     33 O          22.4606  -28.3160  -37.9457 O.2       4 UNK        -0.5039 
     34 N          21.4000  -26.5833  -38.9445 N.am      5 UNK        -0.4663 
     35 CA         22.5705  -25.7475  -39.2200 C.3       5 UNK         0.0242 
     36 CB         22.1124  -24.3344  -39.6131 C.3       5 UNK        -0.1982 
     37 C          23.4753  -26.3592  -40.3012 C.2       5 UNK         0.5017 
     38 O          24.6842  -26.4689  -40.0911 O.2       5 UNK        -0.5012 
     39 N          22.8710  -26.7890  -41.4171 N.am      6 UNK        -0.4439 
     40 CA         23.5191  -27.5715  -42.4670 C.3       6 UNK         0.0297 
     41 CB         22.8341  -27.2838  -43.8154 C.3       6 UNK        -0.2006 
     42 C          23.4511  -29.0561  -42.0810 C.2       6 UNK         0.4892 
     43 O          22.6139  -29.7947  -42.6025 O.2       6 UNK        -0.5089 
     44 N          24.3142  -29.4617  -41.1413 N.am      7 UNK        -0.4243 
     45 CA         24.3757  -30.7963  -40.5342 C.3       7 UNK         0.0196 
     46 CB         25.1644  -30.6999  -39.2149 C.3       7 UNK        -0.2007 
     47 C          24.9244  -31.8922  -41.4752 C.2       7 UNK         0.5020 
     48 O          25.8055  -32.6601  -41.0862 O.2       7 UNK        -0.5147 
     49 N          24.3878  -31.9554  -42.6987 N.am      8 UNK        -0.4734 
     50 CA         24.6719  -32.9888  -43.6980 C.3       8 UNK         0.0238 
     51 CB         24.3116  -32.4446  -45.0902 C.3       8 UNK        -0.1912 
     52 C          23.9139  -34.2997  -43.4211 C.2       8 UNK         0.5038 
     53 O          24.3317  -35.3517  -43.9067 O.2       8 UNK        -0.5046 
     54 N          22.8130  -34.2062  -42.6646 N.am      9 UNK        -0.4200 
     55 CA         21.9684  -35.3237  -42.2263 C.3       9 UNK         0.0839 
     56 C          22.7197  -36.2926  -41.2740 C.2       9 UNK         0.5513 
     57 N          22.5048  -37.5932  -41.4152 N.am      9 UNK        -0.7519 
     58 O          23.4535  -35.8724  -40.3818 O.2       9 UNK        -0.4960 
     59 C59        20.6650  -34.8114  -41.5608 C.3       10 UNK        -0.0876 
     60 S60        19.6328  -33.8312  -42.7033 S.3       10 UNK        -0.2414 
     61 C61        19.8488  -32.1510  -42.0411 C.3       10 UNK         0.0169 
     62 H62        21.9491  -22.6370  -49.4109 H         1 UNK         0.0903 
     63 H63        23.6426  -23.0973  -49.2234 H         1 UNK         0.0903 
     64 H64        22.6655  -23.8249  -50.5016 H         1 UNK         0.0903 
     65 H65        20.6405  -23.5776  -47.8203 H         1 UNK         0.3096 
     66 H66        21.5139  -25.8256  -46.2783 H         1 UNK         0.1121 
     67 H67        20.6176  -27.3093  -47.8884 H         1 UNK         0.0849 
     68 H68        19.3911  -26.1976  -48.3992 H         1 UNK         0.0849 
     69 H69        19.6595  -29.6055  -46.6722 H         1 UNK         0.0865 
     70 H70        20.5094  -28.5515  -45.5672 H         1 UNK         0.0865 
     71 H71        20.6183  -30.6842  -44.1997 H         1 UNK         0.1346 
     72 H72        17.2663  -31.3962  -41.6287 H         1 UNK         0.1412 
     73 H73        16.8923  -28.6521  -44.8843 H         1 UNK         0.1426 
     74 H74        15.1850  -30.2888  -41.9688 H         1 UNK         0.0716 
     75 H75        14.8387  -29.9136  -43.6389 H         1 UNK         0.0716 
     76 H76        16.1715  -28.6906  -40.2814 H         1 UNK         0.0695 
     77 H77        15.7766  -26.9920  -40.2216 H         1 UNK         0.0695 
     78 H78        18.1902  -28.2048  -41.6632 H         1 UNK         0.0983 
     79 H79        17.0567  -25.7113  -42.1789 H         1 UNK         0.3095 
     80 H80        18.0353  -24.4651  -43.7554 H         1 UNK         0.0454 
     81 H81        20.6596  -23.4295  -42.5185 H         1 UNK         0.0851 
     82 H82        19.0570  -23.0586  -41.8919 H         1 UNK         0.0851 
     83 H83        19.5262  -22.4951  -43.4882 H         1 UNK         0.0851 
     84 H84        20.4468  -25.8716  -44.3108 H         1 UNK         0.2976 
     85 H85        19.1341  -29.1945  -40.0097 H         1 UNK         0.3116 
     86 H86        20.3720  -29.6304  -38.2708 H         1 UNK         0.0646 
     87 H87        19.1461  -27.2433  -36.7938 H         1 UNK         0.0847 
     88 H88        20.0644  -28.5550  -36.0783 H         1 UNK         0.0847 
     89 H89        18.4997  -28.8840  -36.8042 H         1 UNK         0.0847 
     90 H90        20.4920  -26.2247  -39.2241 H         1 UNK         0.3040 
     91 H91        23.1574  -25.6740  -38.3016 H         1 UNK         0.1015 
     92 H92        21.4691  -24.3505  -40.4923 H         1 UNK         0.0786 
     93 H93        22.9660  -23.6948  -39.8416 H         1 UNK         0.0786 
     94 H94        21.5583  -23.8592  -38.8035 H         1 UNK         0.0786 
     95 H95        21.8637  -26.6670  -41.5086 H         1 UNK         0.3172 
     96 H96        24.5687  -27.2833  -42.5562 H         1 UNK         0.0595 
     97 H97        21.7844  -27.5762  -43.8026 H         1 UNK         0.0839 
     98 H98        23.3158  -27.8382  -44.6217 H         1 UNK         0.0839 
     99 H99        22.8896  -26.2250  -44.0677 H         1 UNK         0.0839 
    100 H100       24.9484  -28.7703  -40.7628 H         1 UNK         0.2998 
    101 H101       23.3547  -31.0906  -40.2816 H         1 UNK         0.0822 
    102 H102       24.7207  -29.9664  -38.5408 H         1 UNK         0.0787 
    103 H103       25.1697  -31.6555  -38.6887 H         1 UNK         0.0787 
    104 H104       26.2029  -30.4140  -39.3865 H         1 UNK         0.0787 
    105 H105       23.6766  -31.2629  -42.9269 H         1 UNK         0.3055 
    106 H106       25.7404  -33.2160  -43.6790 H         1 UNK         0.1106 
    107 H107       24.5290  -33.1805  -45.8657 H         1 UNK         0.0828 
    108 H108       23.2523  -32.1945  -45.1650 H         1 UNK         0.0828 
    109 H109       24.8853  -31.5481  -45.3261 H         1 UNK         0.0828 
    110 H110       22.5651  -33.2972  -42.3090 H         1 UNK         0.2931 
    111 H111       21.6917  -35.8815  -43.1236 H         1 UNK         0.0412 
    112 H112       21.8955  -37.9456  -42.1378 H         1 UNK         0.3472 
    113 H113       22.9700  -38.2380  -40.7948 H         1 UNK         0.3472 
    114 H114       20.0584  -35.6543  -41.2237 H         1 UNK         0.0970 
    115 H115       20.8896  -34.2292  -40.6649 H         1 UNK         0.0970 
    116 H116       19.5494  -32.1310  -40.9921 H         1 UNK         0.0612 
    117 H117       20.9044  -31.8786  -42.0693 H         1 UNK         0.0612 
@<TRIPOS>BOND
     1    1    2 1    
     2    1   62 1    
     3    1   63 1    
     4    1   64 1    
     5    2    3 2    
     6    2    4 am   BACKBONE|DICT|INTERRES
     7    4    5 1    
     8    4   65 1    
     9    5    6 1    
    10    5   25 1    
    11    5   66 1    
    12    6    7 1    
    13    6   67 1    
    14    6   68 1    
    15    7    8 1    
    16    8    9 1    
    17    8   69 1    
    18    8   70 1    
    19    9   10 ar   
    20    9   14 ar   
    21   10   11 ar   
    22   10   71 1    
    23   11   12 ar   
    24   11   61 1    
    25   12   13 ar   
    26   12   72 1    
    27   13   14 ar   
    28   13   15 1    
    29   14   73 1    
    30   15   16 1    
    31   15   74 1    
    32   15   75 1    
    33   16   17 1    
    34   17   18 1    
    35   17   76 1    
    36   17   77 1    
    37   18   19 1    
    38   18   27 1    
    39   18   78 1    
    40   19   20 am   BACKBONE|DICT|INTERRES
    41   19   79 1    
    42   20   21 2    
    43   20   22 1    
    44   22   23 1    
    45   22   24 1    
    46   22   80 1    
    47   23   81 1    
    48   23   82 1    
    49   23   83 1    
    50   24   25 am   BACKBONE|DICT|INTERRES
    51   24   84 1    
    52   25   26 2    
    53   27   28 2    
    54   27   29 am   BACKBONE|DICT|INTERRES
    55   29   30 1    
    56   29   85 1    
    57   30   31 1    
    58   30   32 1    
    59   30   86 1    
    60   31   87 1    
    61   31   88 1    
    62   31   89 1    
    63   32   33 2    
    64   32   34 am   BACKBONE|DICT|INTERRES
    65   34   35 1    
    66   34   90 1    
    67   35   36 1    
    68   35   37 1    
    69   35   91 1    
    70   36   92 1    
    71   36   93 1    
    72   36   94 1    
    73   37   38 2    
    74   37   39 am   BACKBONE|DICT|INTERRES
    75   39   40 1    
    76   39   95 1    
    77   40   41 1    
    78   40   42 1    
    79   40   96 1    
    80   41   97 1    
    81   41   98 1    
    82   41   99 1    
    83   42   43 2    
    84   42   44 am   BACKBONE|DICT|INTERRES
    85   44   45 1    
    86   44  100 1    
    87   45   46 1    
    88   45   47 1    
    89   45  101 1    
    90   46  102 1    
    91   46  103 1    
    92   46  104 1    
    93   47   48 2    
    94   47   49 am   BACKBONE|DICT|INTERRES
    95   49   50 1    
    96   49  105 1    
    97   50   51 1    
    98   50   52 1    
    99   50  106 1    
   100   51  107 1    
   101   51  108 1    
   102   51  109 1    
   103   52   53 2    
   104   52   54 am   BACKBONE|DICT|INTERRES
   105   54   55 1    
   106   54  110 1    
   107   55   56 1    
   108   55   59 1    
   109   55  111 1    
   110   56   57 am   BACKBONE|DICT|INTERRES
   111   56   58 2    
   112   57  112 1    
   113   57  113 1    
   114   59   60 1    
   115   59  114 1    
   116   59  115 1    
   117   60   61 1    
   118   61  116 1    
   119   61  117 1    
@<TRIPOS>SUBSTRUCTURE
     1 UNK         1 GROUP             0       ****    0 ROOT    
