@<TRIPOS>MOLECULE
3R8
117   119    1
SMALL
USER_CHARGES


@<TRIPOS>ATOM
      1 CA         15.9339  -25.8219  -47.8494 C.3       0 UNK        -0.2013 
      2 C          17.4192  -26.0200  -47.5862 C.2       0 UNK         0.4866 
      3 O          18.2469  -25.3542  -48.2097 O.2       0 UNK        -0.5176 
      4 N          17.7629  -26.9356  -46.6729 N.am      1 UNK        -0.4884 
      5 CA         19.1390  -27.2169  -46.2504 C.3       1 UNK         0.0853 
      6 C6         19.2730  -28.5899  -45.5420 C.3       10 UNK        -0.0849 
      7 S7         18.5588  -30.0030  -46.4568 S.3       10 UNK        -0.2776 
      8 C8         16.9175  -30.2230  -45.6801 C.3       10 UNK         0.0316 
      9 C9         17.0023  -30.4225  -44.1726 C.ar      10 UNK        -0.0863 
     10 C10        17.4255  -31.6456  -43.6441 C.ar      10 UNK        -0.1009 
     11 C11        17.5473  -31.8155  -42.2614 C.ar      10 UNK        -0.0712 
     12 C12        17.2509  -30.7501  -41.4066 C.ar      10 UNK        -0.0894 
     13 C13        16.8341  -29.5203  -41.9245 C.ar      10 UNK        -0.0745 
     14 C14        16.6839  -29.3717  -43.3057 C.ar      10 UNK        -0.0972 
     15 C15        16.5974  -28.3365  -40.9962 C.3       10 UNK         0.0209 
     16 S16        17.8342  -27.0158  -41.2394 S.3       10 UNK        -0.2568 
     17 C17        19.3982  -27.9375  -41.0323 C.3       10 UNK        -0.0983 
     18 CA         20.6726  -27.0633  -41.1290 C.3       3 UNK         0.0876 
     19 N          20.7182  -26.2908  -42.3792 N.am      3 UNK        -0.4424 
     20 C          21.7718  -25.6197  -42.8647 C.2       2 UNK         0.4918 
     21 O          22.8132  -25.4579  -42.2284 O.2       2 UNK        -0.4875 
     22 CA         21.6428  -25.0266  -44.2854 C.3       2 UNK         0.0481 
     23 CB         23.0116  -24.6347  -44.8725 C.3       2 UNK        -0.1831 
     24 N          20.9686  -25.9375  -45.2194 N.am      2 UNK        -0.4498 
     25 C          19.6430  -26.1099  -45.3016 C.2       1 UNK         0.5027 
     26 O          18.8413  -25.4951  -44.5933 O.2       1 UNK        -0.4969 
     27 C          20.9193  -26.2459  -39.8425 C.2       3 UNK         0.5005 
     28 O          21.2593  -26.8365  -38.8161 O.2       3 UNK        -0.5279 
     29 N          20.7988  -24.9123  -39.9207 N.am      4 UNK        -0.4463 
     30 CA         21.2265  -23.9734  -38.8797 C.3       4 UNK         0.0283 
     31 CB         20.7333  -22.5619  -39.2354 C.3       4 UNK        -0.1875 
     32 C          22.7532  -23.9710  -38.6582 C.2       4 UNK         0.4949 
     33 O          23.1946  -23.6760  -37.5473 O.2       4 UNK        -0.5039 
     34 N          23.5230  -24.3062  -39.7034 N.am      5 UNK        -0.4663 
     35 CA         24.9668  -24.5182  -39.6498 C.3       5 UNK         0.0242 
     36 CB         25.6341  -23.8722  -40.8779 C.3       5 UNK        -0.1982 
     37 C          25.2585  -26.0231  -39.5689 C.2       5 UNK         0.5017 
     38 O          25.7959  -26.4758  -38.5576 O.2       5 UNK        -0.5012 
     39 N          24.8818  -26.7684  -40.6170 N.am      6 UNK        -0.4439 
     40 CA         25.0468  -28.2157  -40.7532 C.3       6 UNK         0.0297 
     41 CB         26.5385  -28.6037  -40.8266 C.3       6 UNK        -0.2006 
     42 C          24.3287  -28.6809  -42.0249 C.2       6 UNK         0.4892 
     43 O          24.3051  -27.9471  -43.0146 O.2       6 UNK        -0.5089 
     44 N          23.7931  -29.9036  -41.9911 N.am      7 UNK        -0.4243 
     45 CA         23.1531  -30.5727  -43.1199 C.3       7 UNK         0.0196 
     46 CB         21.6455  -30.2644  -43.1227 C.3       7 UNK        -0.2007 
     47 C          23.4187  -32.0770  -43.0057 C.2       7 UNK         0.5020 
     48 O          23.6136  -32.5824  -41.8967 O.2       7 UNK        -0.5147 
     49 N          23.4092  -32.7751  -44.1471 N.am      8 UNK        -0.4734 
     50 CA         23.6631  -34.2164  -44.2594 C.3       8 UNK         0.0238 
     51 CB         24.2121  -34.5160  -45.6677 C.3       8 UNK        -0.1912 
     52 C          22.4132  -35.0527  -43.9189 C.2       8 UNK         0.5038 
     53 O          21.9505  -35.8406  -44.7467 O.2       8 UNK        -0.5046 
     54 N          21.8729  -34.8385  -42.7156 N.am      9 UNK        -0.4200 
     55 CA         20.6883  -35.5191  -42.1768 C.3       9 UNK         0.0839 
     56 C          20.9427  -37.0236  -41.8910 C.2       9 UNK         0.5513 
     57 N          19.9303  -37.8643  -42.0533 N.am      9 UNK        -0.7519 
     58 O          22.0306  -37.4268  -41.4837 O.2       9 UNK        -0.4960 
     59 C59        20.1493  -34.8026  -40.9121 C.3       10 UNK        -0.0876 
     60 S60        19.7763  -33.0441  -41.2194 S.3       10 UNK        -0.2414 
     61 C61        18.0243  -33.1402  -41.6896 C.3       10 UNK         0.0169 
     62 H62        15.7093  -26.0170  -48.8977 H         1 UNK         0.0903 
     63 H63        15.3191  -26.4859  -47.2421 H         1 UNK         0.0903 
     64 H64        15.6474  -24.7948  -47.6247 H         1 UNK         0.0903 
     65 H65        17.0432  -27.4284  -46.1676 H         1 UNK         0.3096 
     66 H66        19.7722  -27.2230  -47.1409 H         1 UNK         0.1121 
     67 H67        20.3309  -28.8186  -45.4056 H         1 UNK         0.0849 
     68 H68        18.8630  -28.5510  -44.5340 H         1 UNK         0.0849 
     69 H69        16.2835  -29.3690  -45.9204 H         1 UNK         0.0865 
     70 H70        16.4311  -31.0896  -46.1303 H         1 UNK         0.0865 
     71 H71        17.6786  -32.4580  -44.3119 H         1 UNK         0.1346 
     72 H72        17.3744  -30.8736  -40.3393 H         1 UNK         0.1412 
     73 H73        16.3702  -28.4163  -43.7038 H         1 UNK         0.1426 
     74 H74        16.6178  -28.6516  -39.9518 H         1 UNK         0.0716 
     75 H75        15.6016  -27.9292  -41.1759 H         1 UNK         0.0716 
     76 H76        19.3685  -28.4865  -40.0890 H         1 UNK         0.0695 
     77 H77        19.4404  -28.6987  -41.8120 H         1 UNK         0.0695 
     78 H78        21.5182  -27.7522  -41.1792 H         1 UNK         0.0983 
     79 H79        19.8666  -26.2901  -42.9285 H         1 UNK         0.3095 
     80 H80        21.0509  -24.1135  -44.1955 H         1 UNK         0.0454 
     81 H81        23.5066  -23.8882  -44.2498 H         1 UNK         0.0851 
     82 H82        22.9105  -24.2039  -45.8686 H         1 UNK         0.0851 
     83 H83        23.6800  -25.4942  -44.9414 H         1 UNK         0.0851 
     84 H84        21.5728  -26.5083  -45.7940 H         1 UNK         0.2976 
     85 H85        20.4925  -24.5172  -40.7979 H         1 UNK         0.3116 
     86 H86        20.7566  -24.2749  -37.9411 H         1 UNK         0.0646 
     87 H87        21.0133  -21.8456  -38.4616 H         1 UNK         0.0847 
     88 H88        21.1604  -22.2084  -40.1748 H         1 UNK         0.0847 
     89 H89        19.6474  -22.5302  -39.3251 H         1 UNK         0.0847 
     90 H90        23.0726  -24.5795  -40.5724 H         1 UNK         0.3040 
     91 H91        25.3863  -24.0488  -38.7568 H         1 UNK         0.1015 
     92 H92        26.7100  -24.0523  -40.8759 H         1 UNK         0.0786 
     93 H93        25.4873  -22.7921  -40.8797 H         1 UNK         0.0786 
     94 H94        25.2396  -24.2601  -41.8177 H         1 UNK         0.0786 
     95 H95        24.3952  -26.3272  -41.3958 H         1 UNK         0.3172 
     96 H96        24.5839  -28.6970  -39.8893 H         1 UNK         0.0595 
     97 H97        27.0474  -28.0829  -41.6388 H         1 UNK         0.0839 
     98 H98        26.6574  -29.6739  -41.0012 H         1 UNK         0.0839 
     99 H99        27.0654  -28.3750  -39.9007 H         1 UNK         0.0839 
    100 H100       23.9106  -30.4901  -41.1735 H         1 UNK         0.2998 
    101 H101       23.5968  -30.2211  -44.0543 H         1 UNK         0.0822 
    102 H102       21.4647  -29.2015  -43.2794 H         1 UNK         0.0787 
    103 H103       21.1292  -30.8040  -43.9179 H         1 UNK         0.0787 
    104 H104       21.1764  -30.5475  -42.1801 H         1 UNK         0.0787 
    105 H105       23.1953  -32.2923  -45.0086 H         1 UNK         0.3055 
    106 H106       24.4354  -34.4973  -43.5391 H         1 UNK         0.1106 
    107 H107       25.1271  -33.9571  -45.8645 H         1 UNK         0.0828 
    108 H108       24.4535  -35.5743  -45.7764 H         1 UNK         0.0828 
    109 H109       23.4904  -34.2646  -46.4459 H         1 UNK         0.0828 
    110 H110       22.3160  -34.1555  -42.1116 H         1 UNK         0.2931 
    111 H111       19.9157  -35.4577  -42.9463 H         1 UNK         0.0412 
    112 H112       20.0700  -38.8437  -41.8577 H         1 UNK         0.3472 
    113 H113       19.0317  -37.5431  -42.3795 H         1 UNK         0.3472 
    114 H114       19.2511  -35.2976  -40.5377 H         1 UNK         0.0970 
    115 H115       20.8815  -34.8563  -40.1040 H         1 UNK         0.0970 
    116 H116       17.8866  -33.9390  -42.4200 H         1 UNK         0.0612 
    117 H117       17.4268  -33.4073  -40.8167 H         1 UNK         0.0612 
@<TRIPOS>BOND
     1    1    2 1    
     2    1   62 1    
     3    1   63 1    
     4    1   64 1    
     5    2    3 2    
     6    2    4 am   BACKBONE|DICT|INTERRES
     7    4    5 1    
     8    4   65 1    
     9    5    6 1    
    10    5   25 1    
    11    5   66 1    
    12    6    7 1    
    13    6   67 1    
    14    6   68 1    
    15    7    8 1    
    16    8    9 1    
    17    8   69 1    
    18    8   70 1    
    19    9   10 ar   
    20    9   14 ar   
    21   10   11 ar   
    22   10   71 1    
    23   11   12 ar   
    24   11   61 1    
    25   12   13 ar   
    26   12   72 1    
    27   13   14 ar   
    28   13   15 1    
    29   14   73 1    
    30   15   16 1    
    31   15   74 1    
    32   15   75 1    
    33   16   17 1    
    34   17   18 1    
    35   17   76 1    
    36   17   77 1    
    37   18   19 1    
    38   18   27 1    
    39   18   78 1    
    40   19   20 am   BACKBONE|DICT|INTERRES
    41   19   79 1    
    42   20   21 2    
    43   20   22 1    
    44   22   23 1    
    45   22   24 1    
    46   22   80 1    
    47   23   81 1    
    48   23   82 1    
    49   23   83 1    
    50   24   25 am   BACKBONE|DICT|INTERRES
    51   24   84 1    
    52   25   26 2    
    53   27   28 2    
    54   27   29 am   BACKBONE|DICT|INTERRES
    55   29   30 1    
    56   29   85 1    
    57   30   31 1    
    58   30   32 1    
    59   30   86 1    
    60   31   87 1    
    61   31   88 1    
    62   31   89 1    
    63   32   33 2    
    64   32   34 am   BACKBONE|DICT|INTERRES
    65   34   35 1    
    66   34   90 1    
    67   35   36 1    
    68   35   37 1    
    69   35   91 1    
    70   36   92 1    
    71   36   93 1    
    72   36   94 1    
    73   37   38 2    
    74   37   39 am   BACKBONE|DICT|INTERRES
    75   39   40 1    
    76   39   95 1    
    77   40   41 1    
    78   40   42 1    
    79   40   96 1    
    80   41   97 1    
    81   41   98 1    
    82   41   99 1    
    83   42   43 2    
    84   42   44 am   BACKBONE|DICT|INTERRES
    85   44   45 1    
    86   44  100 1    
    87   45   46 1    
    88   45   47 1    
    89   45  101 1    
    90   46  102 1    
    91   46  103 1    
    92   46  104 1    
    93   47   48 2    
    94   47   49 am   BACKBONE|DICT|INTERRES
    95   49   50 1    
    96   49  105 1    
    97   50   51 1    
    98   50   52 1    
    99   50  106 1    
   100   51  107 1    
   101   51  108 1    
   102   51  109 1    
   103   52   53 2    
   104   52   54 am   BACKBONE|DICT|INTERRES
   105   54   55 1    
   106   54  110 1    
   107   55   56 1    
   108   55   59 1    
   109   55  111 1    
   110   56   57 am   BACKBONE|DICT|INTERRES
   111   56   58 2    
   112   57  112 1    
   113   57  113 1    
   114   59   60 1    
   115   59  114 1    
   116   59  115 1    
   117   60   61 1    
   118   61  116 1    
   119   61  117 1    
@<TRIPOS>SUBSTRUCTURE
     1 UNK         1 GROUP             0       ****    0 ROOT    
