@<TRIPOS>MOLECULE
3R8
117   119    1
SMALL
USER_CHARGES


@<TRIPOS>ATOM
      1 CA         13.5421  -24.7329  -43.2440 C.3       0 UNK        -0.2013 
      2 C          14.7989  -25.5288  -43.5643 C.2       0 UNK         0.4866 
      3 O          15.7739  -24.9582  -44.0521 O.2       0 UNK        -0.5176 
      4 N          14.7760  -26.8410  -43.3011 N.am      1 UNK        -0.4884 
      5 CA         15.9052  -27.7598  -43.4912 C.3       1 UNK         0.0853 
      6 C6         15.4119  -29.2192  -43.6847 C.3       10 UNK        -0.0849 
      7 S7         14.8220  -29.4677  -45.3901 S.3       10 UNK        -0.2776 
      8 C8         16.1822  -30.4522  -46.1119 C.3       10 UNK         0.0316 
      9 C9         17.5570  -29.7962  -45.9861 C.ar      10 UNK        -0.0863 
     10 C10        18.6299  -30.5180  -45.4518 C.ar      10 UNK        -0.1009 
     11 C11        19.9142  -29.9565  -45.3837 C.ar      10 UNK        -0.0712 
     12 C12        20.1000  -28.6433  -45.8278 C.ar      10 UNK        -0.0894 
     13 C13        19.0345  -27.9023  -46.3464 C.ar      10 UNK        -0.0745 
     14 C14        17.7712  -28.4920  -46.4411 C.ar      10 UNK        -0.0972 
     15 C15        19.2478  -26.4791  -46.8424 C.3       10 UNK         0.0209 
     16 S16        19.1533  -25.2620  -45.4893 S.3       10 UNK        -0.2568 
     17 C17        20.8827  -25.1986  -44.9037 C.3       10 UNK        -0.0983 
     18 CA         21.0411  -25.4603  -43.3805 C.3       3 UNK         0.0876 
     19 N          20.3909  -26.7158  -42.9832 N.am      3 UNK        -0.4424 
     20 C          20.0099  -27.0722  -41.7502 C.2       2 UNK         0.4918 
     21 O          20.2354  -26.4021  -40.7418 O.2       2 UNK        -0.4875 
     22 CA         19.2456  -28.4013  -41.6598 C.3       2 UNK         0.0481 
     23 CB         18.9063  -28.8216  -40.2141 C.3       2 UNK        -0.1831 
     24 N          18.0577  -28.3821  -42.5206 N.am      2 UNK        -0.4498 
     25 C          16.9453  -27.6463  -42.3576 C.2       1 UNK         0.5027 
     26 O          16.7269  -26.9240  -41.3814 O.2       1 UNK        -0.4969 
     27 C          22.5253  -25.3576  -42.9385 C.2       3 UNK         0.5005 
     28 O          23.3526  -24.8571  -43.7029 O.2       3 UNK        -0.5279 
     29 N          22.8547  -25.8471  -41.7337 N.am      4 UNK        -0.4463 
     30 CA         24.1514  -25.8497  -41.0353 C.3       4 UNK         0.0283 
     31 CB         24.6160  -24.4123  -40.7347 C.3       4 UNK        -0.1875 
     32 C          25.2877  -26.6535  -41.6992 C.2       4 UNK         0.4949 
     33 O          26.1087  -27.2204  -40.9786 O.2       4 UNK        -0.5039 
     34 N          25.3218  -26.7105  -43.0363 N.am      5 UNK        -0.4663 
     35 CA         26.3621  -27.3380  -43.8626 C.3       5 UNK         0.0242 
     36 CB         26.0259  -27.1050  -45.3444 C.3       5 UNK        -0.1982 
     37 C          26.5911  -28.8372  -43.5968 C.2       5 UNK         0.5017 
     38 O          27.7106  -29.3156  -43.7816 O.2       5 UNK        -0.5012 
     39 N          25.5392  -29.5355  -43.1546 N.am      6 UNK        -0.4439 
     40 CA         25.5687  -30.9324  -42.7163 C.3       6 UNK         0.0297 
     41 CB         24.7468  -31.7866  -43.6989 C.3       6 UNK        -0.2006 
     42 C          25.0602  -31.0607  -41.2688 C.2       6 UNK         0.4892 
     43 O          24.5307  -32.1126  -40.9056 O.2       6 UNK        -0.5089 
     44 N          25.2010  -29.9873  -40.4725 N.am      7 UNK        -0.4243 
     45 CA         24.6817  -29.8244  -39.1108 C.3       7 UNK         0.0196 
     46 CB         25.4594  -30.7196  -38.1181 C.3       7 UNK        -0.2007 
     47 C          23.1533  -30.0146  -39.0844 C.2       7 UNK         0.5020 
     48 O          22.4448  -29.2333  -39.7193 O.2       7 UNK        -0.5147 
     49 N          22.6789  -31.0582  -38.3920 N.am      8 UNK        -0.4734 
     50 CA         21.2717  -31.4648  -38.3267 C.3       8 UNK         0.0238 
     51 CB         21.0874  -32.4111  -37.1283 C.3       8 UNK        -0.1912 
     52 C          20.7436  -32.1241  -39.6181 C.2       8 UNK         0.5038 
     53 O          19.5326  -32.3198  -39.7275 O.2       8 UNK        -0.5046 
     54 N          21.6378  -32.4577  -40.5592 N.am      9 UNK        -0.4200 
     55 CA         21.3608  -33.1773  -41.8096 C.3       9 UNK         0.0839 
     56 C          20.9944  -34.6768  -41.5942 C.2       9 UNK         0.5513 
     57 N          20.5602  -35.3704  -42.6378 N.am      9 UNK        -0.7519 
     58 O          21.1355  -35.2336  -40.5068 O.2       9 UNK        -0.4960 
     59 C59        20.3710  -32.4110  -42.7413 C.3       10 UNK        -0.0876 
     60 S60        20.8856  -32.4899  -44.4902 S.3       10 UNK        -0.2414 
     61 C61        21.1441  -30.7242  -44.8881 C.3       10 UNK         0.0169 
     62 H62        13.7673  -23.9549  -42.5151 H         1 UNK         0.0903 
     63 H63        13.1606  -24.2550  -44.1459 H         1 UNK         0.0903 
     64 H64        12.7526  -25.3627  -42.8346 H         1 UNK         0.0903 
     65 H65        13.9515  -27.2452  -42.8809 H         1 UNK         0.3096 
     66 H66        16.4349  -27.4408  -44.3898 H         1 UNK         0.1121 
     67 H67        16.1866  -29.9603  -43.4814 H         1 UNK         0.0849 
     68 H68        14.6036  -29.4528  -42.9895 H         1 UNK         0.0849 
     69 H69        16.1799  -31.4383  -45.6445 H         1 UNK         0.0865 
     70 H70        15.9708  -30.6185  -47.1690 H         1 UNK         0.0865 
     71 H71        18.4581  -31.5321  -45.1215 H         1 UNK         0.1346 
     72 H72        21.0879  -28.2048  -45.7929 H         1 UNK         0.1412 
     73 H73        16.9478  -27.9327  -46.8651 H         1 UNK         0.1426 
     74 H74        20.2019  -26.3951  -47.3648 H         1 UNK         0.0716 
     75 H75        18.4846  -26.2277  -47.5805 H         1 UNK         0.0716 
     76 H76        21.4907  -25.9026  -45.4734 H         1 UNK         0.0695 
     77 H77        21.2631  -24.2069  -45.1565 H         1 UNK         0.0695 
     78 H78        20.5226  -24.6529  -42.8587 H         1 UNK         0.0983 
     79 H79        20.1338  -27.3203  -43.7490 H         1 UNK         0.3095 
     80 H80        19.9123  -29.1599  -42.0686 H         1 UNK         0.0454 
     81 H81        18.2777  -28.0921  -39.7043 H         1 UNK         0.0851 
     82 H82        18.3955  -29.7838  -40.1891 H         1 UNK         0.0851 
     83 H83        19.8150  -28.9186  -39.6221 H         1 UNK         0.0851 
     84 H84        18.1324  -28.9343  -43.3648 H         1 UNK         0.2976 
     85 H85        22.0815  -26.2255  -41.1916 H         1 UNK         0.3116 
     86 H86        23.9573  -26.3368  -40.0781 H         1 UNK         0.0646 
     87 H87        25.5272  -24.4144  -40.1348 H         1 UNK         0.0847 
     88 H88        23.8618  -23.8604  -40.1739 H         1 UNK         0.0847 
     89 H89        24.8313  -23.8545  -41.6467 H         1 UNK         0.0847 
     90 H90        24.6266  -26.1473  -43.5230 H         1 UNK         0.3040 
     91 H91        27.3018  -26.8285  -43.6388 H         1 UNK         0.1015 
     92 H92        25.9642  -26.0411  -45.5747 H         1 UNK         0.0786 
     93 H93        25.0745  -27.5628  -45.6186 H         1 UNK         0.0786 
     94 H94        26.7931  -27.5313  -45.9925 H         1 UNK         0.0786 
     95 H95        24.6667  -29.0411  -43.0301 H         1 UNK         0.3172 
     96 H96        26.5931  -31.3096  -42.7133 H         1 UNK         0.0595 
     97 H97        23.6946  -31.5061  -43.6870 H         1 UNK         0.0839 
     98 H98        24.8049  -32.8459  -43.4454 H         1 UNK         0.0839 
     99 H99        25.1118  -31.6798  -44.7204 H         1 UNK         0.0839 
    100 H100       25.6499  -29.1604  -40.8547 H         1 UNK         0.2998 
    101 H101       24.8631  -28.7853  -38.8315 H         1 UNK         0.0822 
    102 H102       26.5229  -30.4809  -38.1347 H         1 UNK         0.0787 
    103 H103       25.1168  -30.5642  -37.0941 H         1 UNK         0.0787 
    104 H104       25.3616  -31.7814  -38.3468 H         1 UNK         0.0787 
    105 H105       23.3451  -31.6577  -37.9259 H         1 UNK         0.3055 
    106 H106       20.6667  -30.5733  -38.1508 H         1 UNK         0.1106 
    107 H107       20.0414  -32.6997  -37.0150 H         1 UNK         0.0828 
    108 H108       21.6659  -33.3284  -37.2459 H         1 UNK         0.0828 
    109 H109       21.3918  -31.9367  -36.1952 H         1 UNK         0.0828 
    110 H110       22.6217  -32.2812  -40.3822 H         1 UNK         0.2931 
    111 H111       22.3375  -33.2032  -42.2934 H         1 UNK         0.0412 
    112 H112       20.3326  -36.3460  -42.5251 H         1 UNK         0.3472 
    113 H113       20.4660  -34.9283  -43.5402 H         1 UNK         0.3472 
    114 H114       19.3517  -32.7893  -42.6425 H         1 UNK         0.0970 
    115 H115       20.3101  -31.3645  -42.4482 H         1 UNK         0.0970 
    116 H116       21.5701  -30.2111  -44.0249 H         1 UNK         0.0612 
    117 H117       21.9049  -30.6816  -45.6690 H         1 UNK         0.0612 
@<TRIPOS>BOND
     1    1    2 1    
     2    1   62 1    
     3    1   63 1    
     4    1   64 1    
     5    2    3 2    
     6    2    4 am   BACKBONE|DICT|INTERRES
     7    4    5 1    
     8    4   65 1    
     9    5    6 1    
    10    5   25 1    
    11    5   66 1    
    12    6    7 1    
    13    6   67 1    
    14    6   68 1    
    15    7    8 1    
    16    8    9 1    
    17    8   69 1    
    18    8   70 1    
    19    9   10 ar   
    20    9   14 ar   
    21   10   11 ar   
    22   10   71 1    
    23   11   12 ar   
    24   11   61 1    
    25   12   13 ar   
    26   12   72 1    
    27   13   14 ar   
    28   13   15 1    
    29   14   73 1    
    30   15   16 1    
    31   15   74 1    
    32   15   75 1    
    33   16   17 1    
    34   17   18 1    
    35   17   76 1    
    36   17   77 1    
    37   18   19 1    
    38   18   27 1    
    39   18   78 1    
    40   19   20 am   BACKBONE|DICT|INTERRES
    41   19   79 1    
    42   20   21 2    
    43   20   22 1    
    44   22   23 1    
    45   22   24 1    
    46   22   80 1    
    47   23   81 1    
    48   23   82 1    
    49   23   83 1    
    50   24   25 am   BACKBONE|DICT|INTERRES
    51   24   84 1    
    52   25   26 2    
    53   27   28 2    
    54   27   29 am   BACKBONE|DICT|INTERRES
    55   29   30 1    
    56   29   85 1    
    57   30   31 1    
    58   30   32 1    
    59   30   86 1    
    60   31   87 1    
    61   31   88 1    
    62   31   89 1    
    63   32   33 2    
    64   32   34 am   BACKBONE|DICT|INTERRES
    65   34   35 1    
    66   34   90 1    
    67   35   36 1    
    68   35   37 1    
    69   35   91 1    
    70   36   92 1    
    71   36   93 1    
    72   36   94 1    
    73   37   38 2    
    74   37   39 am   BACKBONE|DICT|INTERRES
    75   39   40 1    
    76   39   95 1    
    77   40   41 1    
    78   40   42 1    
    79   40   96 1    
    80   41   97 1    
    81   41   98 1    
    82   41   99 1    
    83   42   43 2    
    84   42   44 am   BACKBONE|DICT|INTERRES
    85   44   45 1    
    86   44  100 1    
    87   45   46 1    
    88   45   47 1    
    89   45  101 1    
    90   46  102 1    
    91   46  103 1    
    92   46  104 1    
    93   47   48 2    
    94   47   49 am   BACKBONE|DICT|INTERRES
    95   49   50 1    
    96   49  105 1    
    97   50   51 1    
    98   50   52 1    
    99   50  106 1    
   100   51  107 1    
   101   51  108 1    
   102   51  109 1    
   103   52   53 2    
   104   52   54 am   BACKBONE|DICT|INTERRES
   105   54   55 1    
   106   54  110 1    
   107   55   56 1    
   108   55   59 1    
   109   55  111 1    
   110   56   57 am   BACKBONE|DICT|INTERRES
   111   56   58 2    
   112   57  112 1    
   113   57  113 1    
   114   59   60 1    
   115   59  114 1    
   116   59  115 1    
   117   60   61 1    
   118   61  116 1    
   119   61  117 1    
@<TRIPOS>SUBSTRUCTURE
     1 UNK         1 GROUP             0       ****    0 ROOT    
