@<TRIPOS>MOLECULE
3R8
117   119    1
SMALL
USER_CHARGES


@<TRIPOS>ATOM
      1 CA         13.4860  -23.9077  -45.9556 C.3       0 UNK        -0.2013 
      2 C          14.7405  -24.7361  -45.7263 C.2       0 UNK         0.4866 
      3 O          15.3590  -25.1950  -46.6876 O.2       0 UNK        -0.5176 
      4 N          15.1343  -24.9255  -44.4608 N.am      1 UNK        -0.4884 
      5 CA         16.2987  -25.7132  -44.0348 C.3       1 UNK         0.0853 
      6 C6         16.1344  -26.2409  -42.5863 C.3       10 UNK        -0.0849 
      7 S7         14.6572  -27.2870  -42.3236 S.3       10 UNK        -0.2776 
      8 C8         14.8573  -28.6384  -43.5420 C.3       10 UNK         0.0316 
      9 C9         16.2565  -29.2487  -43.5732 C.ar      10 UNK        -0.0863 
     10 C10        16.9100  -29.6092  -42.3905 C.ar      10 UNK        -0.1009 
     11 C11        18.2087  -30.1256  -42.4107 C.ar      10 UNK        -0.0712 
     12 C12        18.8400  -30.3168  -43.6485 C.ar      10 UNK        -0.0894 
     13 C13        18.1894  -29.9876  -44.8425 C.ar      10 UNK        -0.0745 
     14 C14        16.8999  -29.4523  -44.7974 C.ar      10 UNK        -0.0972 
     15 C15        18.8724  -30.2214  -46.1849 C.3       10 UNK         0.0209 
     16 S16        19.5093  -28.6808  -46.9221 S.3       10 UNK        -0.2568 
     17 C17        20.8884  -28.2985  -45.7927 C.3       10 UNK        -0.0983 
     18 CA         21.3802  -26.8301  -45.8707 C.3       3 UNK         0.0876 
     19 N          20.2741  -25.8698  -45.7996 N.am      3 UNK        -0.4424 
     20 C          20.3703  -24.5368  -45.9022 C.2       2 UNK         0.4918 
     21 O          21.4357  -23.9353  -46.0403 O.2       2 UNK        -0.4875 
     22 CA         19.0579  -23.7277  -45.8735 C.3       2 UNK         0.0481 
     23 CB         18.7814  -23.1041  -47.2514 C.3       2 UNK        -0.1831 
     24 N          17.8805  -24.5003  -45.4645 N.am      2 UNK        -0.4498 
     25 C          17.6197  -24.9327  -44.2244 C.2       1 UNK         0.5027 
     26 O          18.3723  -24.7342  -43.2687 O.2       1 UNK        -0.4969 
     27 C          22.4425  -26.6065  -44.7769 C.2       3 UNK         0.5005 
     28 O          23.6388  -26.6763  -45.0663 O.2       3 UNK        -0.5279 
     29 N          21.9731  -26.3879  -43.5374 N.am      4 UNK        -0.4463 
     30 CA         22.7138  -26.3216  -42.2696 C.3       4 UNK         0.0283 
     31 CB         23.7117  -25.1468  -42.2461 C.3       4 UNK        -0.1875 
     32 C          23.3901  -27.6518  -41.8875 C.2       4 UNK         0.4949 
     33 O          23.0974  -28.1921  -40.8210 O.2       4 UNK        -0.5039 
     34 N          24.2844  -28.1444  -42.7582 N.am      5 UNK        -0.4663 
     35 CA         24.9882  -29.4371  -42.7258 C.3       5 UNK         0.0242 
     36 CB         23.9885  -30.5744  -43.0261 C.3       5 UNK        -0.1982 
     37 C          25.7910  -29.7178  -41.4383 C.2       5 UNK         0.5017 
     38 O          26.0596  -30.8808  -41.1384 O.2       5 UNK        -0.5012 
     39 N          26.1106  -28.6667  -40.6663 N.am      6 UNK        -0.4439 
     40 CA         26.6445  -28.7106  -39.2959 C.3       6 UNK         0.0297 
     41 CB         28.1102  -29.1945  -39.2990 C.3       6 UNK        -0.2006 
     42 C          25.7511  -29.5204  -38.3259 C.2       6 UNK         0.4892 
     43 O          26.2667  -30.1444  -37.3976 O.2       6 UNK        -0.5089 
     44 N          24.4337  -29.5221  -38.5918 N.am      7 UNK        -0.4243 
     45 CA         23.3736  -30.3166  -37.9588 C.3       7 UNK         0.0196 
     46 CB         23.2625  -30.0135  -36.4498 C.3       7 UNK        -0.2007 
     47 C          23.4442  -31.8323  -38.2441 C.2       7 UNK         0.5020 
     48 O          22.6123  -32.5733  -37.7189 O.2       7 UNK        -0.5147 
     49 N          24.3778  -32.2866  -39.0925 N.am      8 UNK        -0.4734 
     50 CA         24.5212  -33.6814  -39.5183 C.3       8 UNK         0.0238 
     51 CB         26.0174  -34.0069  -39.6856 C.3       8 UNK        -0.1912 
     52 C          23.7078  -33.9253  -40.8017 C.2       8 UNK         0.5038 
     53 O          24.2629  -34.3271  -41.8260 O.2       8 UNK        -0.5046 
     54 N          22.4028  -33.6424  -40.7227 N.am      9 UNK        -0.4200 
     55 CA         21.4438  -33.7092  -41.8367 C.3       9 UNK         0.0839 
     56 C          21.0659  -35.1483  -42.2936 C.2       9 UNK         0.5513 
     57 N          21.4065  -36.1963  -41.5529 N.am      9 UNK        -0.7519 
     58 O          20.4527  -35.3153  -43.3445 O.2       9 UNK        -0.4960 
     59 C59        20.1712  -32.8754  -41.5358 C.3       10 UNK        -0.0876 
     60 S60        20.5519  -31.1383  -41.1265 S.3       10 UNK        -0.2414 
     61 C61        18.8751  -30.4236  -41.0643 C.3       10 UNK         0.0169 
     62 H62        13.7221  -23.0271  -46.5524 H         1 UNK         0.0903 
     63 H63        13.0406  -23.5738  -45.0185 H         1 UNK         0.0903 
     64 H64        12.7427  -24.4952  -46.4937 H         1 UNK         0.0903 
     65 H65        14.5966  -24.5141  -43.7105 H         1 UNK         0.3096 
     66 H66        16.3809  -26.5791  -44.6935 H         1 UNK         0.1121 
     67 H67        16.0768  -25.4056  -41.8859 H         1 UNK         0.0849 
     68 H68        17.0128  -26.8148  -42.2859 H         1 UNK         0.0849 
     69 H69        14.1378  -29.4254  -43.3124 H         1 UNK         0.0865 
     70 H70        14.5820  -28.2557  -44.5262 H         1 UNK         0.0865 
     71 H71        16.4133  -29.4566  -41.4417 H         1 UNK         0.1346 
     72 H72        19.8430  -30.7148  -43.6977 H         1 UNK         0.1412 
     73 H73        16.4021  -29.1904  -45.7216 H         1 UNK         0.1426 
     74 H74        19.6895  -30.9378  -46.0844 H         1 UNK         0.0716 
     75 H75        18.1593  -30.6717  -46.8770 H         1 UNK         0.0716 
     76 H76        21.7075  -28.9856  -46.0148 H         1 UNK         0.0695 
     77 H77        20.5678  -28.5286  -44.7762 H         1 UNK         0.0695 
     78 H78        21.8688  -26.6824  -46.8361 H         1 UNK         0.0983 
     79 H79        19.3517  -26.2735  -45.7362 H         1 UNK         0.3095 
     80 H80        19.1952  -22.9166  -45.1555 H         1 UNK         0.0454 
     81 H81        17.8982  -22.4656  -47.2287 H         1 UNK         0.0851 
     82 H82        18.6249  -23.8670  -48.0151 H         1 UNK         0.0851 
     83 H83        19.6177  -22.4837  -47.5770 H         1 UNK         0.0851 
     84 H84        17.1826  -24.6964  -46.1777 H         1 UNK         0.2976 
     85 H85        20.9676  -26.3458  -43.4380 H         1 UNK         0.3116 
     86 H86        21.9634  -26.1222  -41.5027 H         1 UNK         0.0646 
     87 H87        23.2088  -24.2000  -42.4429 H         1 UNK         0.0847 
     88 H88        24.1885  -25.0621  -41.2688 H         1 UNK         0.0847 
     89 H89        24.5057  -25.2601  -42.9844 H         1 UNK         0.0847 
     90 H90        24.4021  -27.6061  -43.6148 H         1 UNK         0.3040 
     91 H91        25.7186  -29.4107  -43.5358 H         1 UNK         0.1015 
     92 H92        23.4186  -30.3773  -43.9341 H         1 UNK         0.0786 
     93 H93        23.2806  -30.7084  -42.2081 H         1 UNK         0.0786 
     94 H94        24.5012  -31.5270  -43.1675 H         1 UNK         0.0786 
     95 H95        25.8368  -27.7544  -41.0037 H         1 UNK         0.3172 
     96 H96        26.6347  -27.6831  -38.9298 H         1 UNK         0.0595 
     97 H97        28.7215  -28.6066  -39.9834 H         1 UNK         0.0839 
     98 H98        28.1902  -30.2417  -39.5926 H         1 UNK         0.0839 
     99 H99        28.5557  -29.1012  -38.3078 H         1 UNK         0.0839 
    100 H100       24.1166  -28.9837  -39.3959 H         1 UNK         0.2998 
    101 H101       22.4476  -29.9784  -38.4271 H         1 UNK         0.0822 
    102 H102       23.1920  -28.9418  -36.2641 H         1 UNK         0.0787 
    103 H103       22.3698  -30.4738  -36.0245 H         1 UNK         0.0787 
    104 H104       24.1176  -30.3970  -35.8928 H         1 UNK         0.0787 
    105 H105       24.9901  -31.6221  -39.5554 H         1 UNK         0.3055 
    106 H106       24.1242  -34.3486  -38.7498 H         1 UNK         0.1106 
    107 H107       26.5679  -33.8256  -38.7624 H         1 UNK         0.0828 
    108 H108       26.1609  -35.0557  -39.9483 H         1 UNK         0.0828 
    109 H109       26.4785  -33.4092  -40.4723 H         1 UNK         0.0828 
    110 H110       22.0400  -33.3059  -39.8407 H         1 UNK         0.2931 
    111 H111       21.9322  -33.2471  -42.6972 H         1 UNK         0.0412 
    112 H112       21.9109  -36.0708  -40.6902 H         1 UNK         0.3472 
    113 H113       21.1579  -37.1228  -41.8630 H         1 UNK         0.3472 
    114 H114       19.4966  -32.8877  -42.3940 H         1 UNK         0.0970 
    115 H115       19.6155  -33.3139  -40.7049 H         1 UNK         0.0970 
    116 H116       18.2331  -31.0859  -40.4816 H         1 UNK         0.0612 
    117 H117       18.9393  -29.4889  -40.5055 H         1 UNK         0.0612 
@<TRIPOS>BOND
     1    1    2 1    
     2    1   62 1    
     3    1   63 1    
     4    1   64 1    
     5    2    3 2    
     6    2    4 am   BACKBONE|DICT|INTERRES
     7    4    5 1    
     8    4   65 1    
     9    5    6 1    
    10    5   25 1    
    11    5   66 1    
    12    6    7 1    
    13    6   67 1    
    14    6   68 1    
    15    7    8 1    
    16    8    9 1    
    17    8   69 1    
    18    8   70 1    
    19    9   10 ar   
    20    9   14 ar   
    21   10   11 ar   
    22   10   71 1    
    23   11   12 ar   
    24   11   61 1    
    25   12   13 ar   
    26   12   72 1    
    27   13   14 ar   
    28   13   15 1    
    29   14   73 1    
    30   15   16 1    
    31   15   74 1    
    32   15   75 1    
    33   16   17 1    
    34   17   18 1    
    35   17   76 1    
    36   17   77 1    
    37   18   19 1    
    38   18   27 1    
    39   18   78 1    
    40   19   20 am   BACKBONE|DICT|INTERRES
    41   19   79 1    
    42   20   21 2    
    43   20   22 1    
    44   22   23 1    
    45   22   24 1    
    46   22   80 1    
    47   23   81 1    
    48   23   82 1    
    49   23   83 1    
    50   24   25 am   BACKBONE|DICT|INTERRES
    51   24   84 1    
    52   25   26 2    
    53   27   28 2    
    54   27   29 am   BACKBONE|DICT|INTERRES
    55   29   30 1    
    56   29   85 1    
    57   30   31 1    
    58   30   32 1    
    59   30   86 1    
    60   31   87 1    
    61   31   88 1    
    62   31   89 1    
    63   32   33 2    
    64   32   34 am   BACKBONE|DICT|INTERRES
    65   34   35 1    
    66   34   90 1    
    67   35   36 1    
    68   35   37 1    
    69   35   91 1    
    70   36   92 1    
    71   36   93 1    
    72   36   94 1    
    73   37   38 2    
    74   37   39 am   BACKBONE|DICT|INTERRES
    75   39   40 1    
    76   39   95 1    
    77   40   41 1    
    78   40   42 1    
    79   40   96 1    
    80   41   97 1    
    81   41   98 1    
    82   41   99 1    
    83   42   43 2    
    84   42   44 am   BACKBONE|DICT|INTERRES
    85   44   45 1    
    86   44  100 1    
    87   45   46 1    
    88   45   47 1    
    89   45  101 1    
    90   46  102 1    
    91   46  103 1    
    92   46  104 1    
    93   47   48 2    
    94   47   49 am   BACKBONE|DICT|INTERRES
    95   49   50 1    
    96   49  105 1    
    97   50   51 1    
    98   50   52 1    
    99   50  106 1    
   100   51  107 1    
   101   51  108 1    
   102   51  109 1    
   103   52   53 2    
   104   52   54 am   BACKBONE|DICT|INTERRES
   105   54   55 1    
   106   54  110 1    
   107   55   56 1    
   108   55   59 1    
   109   55  111 1    
   110   56   57 am   BACKBONE|DICT|INTERRES
   111   56   58 2    
   112   57  112 1    
   113   57  113 1    
   114   59   60 1    
   115   59  114 1    
   116   59  115 1    
   117   60   61 1    
   118   61  116 1    
   119   61  117 1    
@<TRIPOS>SUBSTRUCTURE
     1 UNK         1 GROUP             0       ****    0 ROOT    
