@<TRIPOS>MOLECULE
3R8
117   119    1
SMALL
USER_CHARGES


@<TRIPOS>ATOM
      1 CA         23.6373  -27.1831  -48.8334 C.3       0 UNK        -0.2013 
      2 C          23.0183  -28.3186  -48.0328 C.2       0 UNK         0.4866 
      3 O          23.7078  -29.2868  -47.7138 O.2       0 UNK        -0.5176 
      4 N          21.7225  -28.2070  -47.7106 N.am      1 UNK        -0.4884 
      5 CA         20.9827  -29.1668  -46.8824 C.3       1 UNK         0.0853 
      6 C6         19.4443  -28.9912  -46.9719 C.3       10 UNK        -0.0849 
      7 S7         18.5955  -30.6014  -46.8876 S.3       10 UNK        -0.2776 
      8 C8         16.9162  -30.1144  -46.3773 C.3       10 UNK         0.0316 
      9 C9         16.7854  -29.8250  -44.8848 C.ar      10 UNK        -0.0863 
     10 C10        17.2801  -30.7244  -43.9322 C.ar      10 UNK        -0.1009 
     11 C11        17.0727  -30.5004  -42.5680 C.ar      10 UNK        -0.0712 
     12 C12        16.3401  -29.3839  -42.1594 C.ar      10 UNK        -0.0894 
     13 C13        15.8790  -28.4533  -43.0944 C.ar      10 UNK        -0.0745 
     14 C14        16.1020  -28.6819  -44.4560 C.ar      10 UNK        -0.0972 
     15 C15        15.1391  -27.2027  -42.6337 C.3       10 UNK         0.0209 
     16 S16        16.1053  -26.2138  -41.4416 S.3       10 UNK        -0.2568 
     17 C17        17.6129  -25.8373  -42.3994 C.3       10 UNK        -0.0983 
     18 CA         18.7923  -26.7948  -42.0597 C.3       3 UNK         0.0876 
     19 N          19.6681  -27.0652  -43.2029 N.am      3 UNK        -0.4424 
     20 C          20.3398  -26.1685  -43.9388 C.2       2 UNK         0.4918 
     21 O          20.2082  -24.9485  -43.8312 O.2       2 UNK        -0.4875 
     22 CA         21.3228  -26.7331  -44.9802 C.3       2 UNK         0.0481 
     23 CB         22.6235  -25.9112  -45.0368 C.3       2 UNK        -0.1831 
     24 N          21.6646  -28.1286  -44.6842 N.am      2 UNK        -0.4498 
     25 C          21.4835  -29.2355  -45.4202 C.2       1 UNK         0.5027 
     26 O          21.7543  -30.3360  -44.9508 O.2       1 UNK        -0.4969 
     27 C          19.5952  -26.3704  -40.8111 C.2       3 UNK         0.5005 
     28 O          20.8201  -26.2501  -40.8708 O.2       3 UNK        -0.5279 
     29 N          18.8984  -26.2179  -39.6745 N.am      4 UNK        -0.4463 
     30 CA         19.4263  -25.8217  -38.3573 C.3       4 UNK         0.0283 
     31 CB         19.7998  -24.3244  -38.3700 C.3       4 UNK        -0.1875 
     32 C          20.5848  -26.7077  -37.8433 C.2       4 UNK         0.4949 
     33 O          21.4489  -26.2223  -37.1118 O.2       4 UNK        -0.5039 
     34 N          20.5867  -27.9837  -38.2590 N.am      5 UNK        -0.4663 
     35 CA         21.6324  -28.9913  -38.0440 C.3       5 UNK         0.0242 
     36 CB         21.7435  -29.3618  -36.5494 C.3       5 UNK        -0.1982 
     37 C          22.9966  -28.6355  -38.6800 C.2       5 UNK         0.5017 
     38 O          24.0268  -29.1089  -38.1957 O.2       5 UNK        -0.5012 
     39 N          22.9942  -27.8230  -39.7472 N.am      6 UNK        -0.4439 
     40 CA         24.1731  -27.5111  -40.5547 C.3       6 UNK         0.0297 
     41 CB         24.1261  -26.0320  -40.9714 C.3       6 UNK        -0.2006 
     42 C          24.2145  -28.4115  -41.7979 C.2       6 UNK         0.4892 
     43 O          23.1618  -28.7674  -42.3350 O.2       6 UNK        -0.5089 
     44 N          25.4397  -28.7074  -42.2539 N.am      7 UNK        -0.4243 
     45 CA         25.7843  -29.5494  -43.4043 C.3       7 UNK         0.0196 
     46 CB         25.3501  -28.8900  -44.7314 C.3       7 UNK        -0.2007 
     47 C          25.3114  -31.0039  -43.2127 C.2       7 UNK         0.5020 
     48 O          25.7472  -31.6403  -42.2524 O.2       7 UNK        -0.5147 
     49 N          24.4802  -31.5257  -44.1255 N.am      8 UNK        -0.4734 
     50 CA         23.9768  -32.9039  -44.0874 C.3       8 UNK         0.0238 
     51 CB         23.4484  -33.2982  -45.4768 C.3       8 UNK        -0.1912 
     52 C          22.9036  -33.1331  -43.0078 C.2       8 UNK         0.5038 
     53 O          22.7836  -34.2558  -42.5149 O.2       8 UNK        -0.5046 
     54 N          22.1503  -32.0804  -42.6649 N.am      9 UNK        -0.4200 
     55 CA         21.1658  -32.0508  -41.5765 C.3       9 UNK         0.0839 
     56 C          21.8227  -32.3092  -40.1902 C.2       9 UNK         0.5513 
     57 N          21.1764  -33.0805  -39.3263 N.am      9 UNK        -0.7519 
     58 O          22.8930  -31.7936  -39.8818 O.2       9 UNK        -0.4960 
     59 C59        20.3593  -30.7246  -41.6211 C.3       10 UNK        -0.0876 
     60 S60        18.9175  -30.6976  -40.5017 S.3       10 UNK        -0.2414 
     61 C61        17.6216  -31.4653  -41.5283 C.3       10 UNK         0.0169 
     62 H62        23.9898  -27.5520  -49.7962 H         1 UNK         0.0903 
     63 H63        22.9270  -26.3772  -49.0173 H         1 UNK         0.0903 
     64 H64        24.4889  -26.7673  -48.2955 H         1 UNK         0.0903 
     65 H65        21.2081  -27.3924  -48.0130 H         1 UNK         0.3096 
     66 H66        21.2239  -30.1403  -47.3176 H         1 UNK         0.1121 
     67 H67        19.0601  -28.3245  -46.1975 H         1 UNK         0.0849 
     68 H68        19.1661  -28.5377  -47.9245 H         1 UNK         0.0849 
     69 H69        16.5977  -29.2584  -46.9745 H         1 UNK         0.0865 
     70 H70        16.2326  -30.9274  -46.6252 H         1 UNK         0.0865 
     71 H71        17.8158  -31.6066  -44.2553 H         1 UNK         0.1346 
     72 H72        16.1662  -29.2162  -41.1050 H         1 UNK         0.1412 
     73 H73        15.7228  -27.9782  -45.1847 H         1 UNK         0.1426 
     74 H74        14.1993  -27.4996  -42.1665 H         1 UNK         0.0716 
     75 H75        14.8751  -26.5699  -43.4825 H         1 UNK         0.0716 
     76 H76        17.8901  -24.7942  -42.2351 H         1 UNK         0.0695 
     77 H77        17.3612  -25.9068  -43.4590 H         1 UNK         0.0695 
     78 H78        18.3889  -27.7738  -41.8096 H         1 UNK         0.0983 
     79 H79        19.8654  -28.0394  -43.3739 H         1 UNK         0.3095 
     80 H80        20.8101  -26.6388  -45.9350 H         1 UNK         0.0454 
     81 H81        23.1369  -25.9095  -44.0751 H         1 UNK         0.0851 
     82 H82        22.4250  -24.8728  -45.3045 H         1 UNK         0.0851 
     83 H83        23.3152  -26.3079  -45.7788 H         1 UNK         0.0851 
     84 H84        22.0914  -28.2694  -43.7694 H         1 UNK         0.2976 
     85 H85        17.8951  -26.3488  -39.7234 H         1 UNK         0.3116 
     86 H86        18.6088  -25.9534  -37.6471 H         1 UNK         0.0646 
     87 H87        20.6516  -24.1290  -39.0226 H         1 UNK         0.0847 
     88 H88        20.0676  -23.9760  -37.3718 H         1 UNK         0.0847 
     89 H89        18.9674  -23.7097  -38.7120 H         1 UNK         0.0847 
     90 H90        19.8227  -28.2741  -38.8532 H         1 UNK         0.3040 
     91 H91        21.2925  -29.8840  -38.5690 H         1 UNK         0.1015 
     92 H92        20.7715  -29.6244  -36.1320 H         1 UNK         0.0786 
     93 H93        22.1547  -28.5435  -35.9578 H         1 UNK         0.0786 
     94 H94        22.3968  -30.2239  -36.4087 H         1 UNK         0.0786 
     95 H95        22.1151  -27.4455  -40.0938 H         1 UNK         0.3172 
     96 H96        25.0809  -27.6695  -39.9689 H         1 UNK         0.0595 
     97 H97        23.2756  -25.8200  -41.6197 H         1 UNK         0.0839 
     98 H98        25.0270  -25.7503  -41.5177 H         1 UNK         0.0839 
     99 H99        24.0537  -25.3774  -40.1028 H         1 UNK         0.0839 
    100 H100       26.2303  -28.3726  -41.7210 H         1 UNK         0.2998 
    101 H101       26.8741  -29.5999  -43.4203 H         1 UNK         0.0822 
    102 H102       25.7820  -27.8946  -44.8339 H         1 UNK         0.0787 
    103 H103       25.6846  -29.4720  -45.5912 H         1 UNK         0.0787 
    104 H104       24.2712  -28.7848  -44.8059 H         1 UNK         0.0787 
    105 H105       24.1163  -30.9278  -44.8561 H         1 UNK         0.3055 
    106 H106       24.8146  -33.5633  -43.8488 H         1 UNK         0.1106 
    107 H107       23.1145  -34.3367  -45.4848 H         1 UNK         0.0828 
    108 H108       22.6007  -32.6838  -45.7803 H         1 UNK         0.0828 
    109 H109       24.2223  -33.2019  -46.2384 H         1 UNK         0.0828 
    110 H110       22.3014  -31.2113  -43.1644 H         1 UNK         0.2931 
    111 H111       20.4707  -32.8683  -41.7772 H         1 UNK         0.0412 
    112 H112       21.5843  -33.2533  -38.4212 H         1 UNK         0.3472 
    113 H113       20.2849  -33.4881  -39.5611 H         1 UNK         0.3472 
    114 H114       21.0033  -29.8821  -41.3647 H         1 UNK         0.0970 
    115 H115       20.0100  -30.5339  -42.6370 H         1 UNK         0.0970 
    116 H116       16.8061  -31.7858  -40.8786 H         1 UNK         0.0612 
    117 H117       18.0136  -32.3691  -41.9968 H         1 UNK         0.0612 
@<TRIPOS>BOND
     1    1    2 1    
     2    1   62 1    
     3    1   63 1    
     4    1   64 1    
     5    2    3 2    
     6    2    4 am   BACKBONE|DICT|INTERRES
     7    4    5 1    
     8    4   65 1    
     9    5    6 1    
    10    5   25 1    
    11    5   66 1    
    12    6    7 1    
    13    6   67 1    
    14    6   68 1    
    15    7    8 1    
    16    8    9 1    
    17    8   69 1    
    18    8   70 1    
    19    9   10 ar   
    20    9   14 ar   
    21   10   11 ar   
    22   10   71 1    
    23   11   12 ar   
    24   11   61 1    
    25   12   13 ar   
    26   12   72 1    
    27   13   14 ar   
    28   13   15 1    
    29   14   73 1    
    30   15   16 1    
    31   15   74 1    
    32   15   75 1    
    33   16   17 1    
    34   17   18 1    
    35   17   76 1    
    36   17   77 1    
    37   18   19 1    
    38   18   27 1    
    39   18   78 1    
    40   19   20 am   BACKBONE|DICT|INTERRES
    41   19   79 1    
    42   20   21 2    
    43   20   22 1    
    44   22   23 1    
    45   22   24 1    
    46   22   80 1    
    47   23   81 1    
    48   23   82 1    
    49   23   83 1    
    50   24   25 am   BACKBONE|DICT|INTERRES
    51   24   84 1    
    52   25   26 2    
    53   27   28 2    
    54   27   29 am   BACKBONE|DICT|INTERRES
    55   29   30 1    
    56   29   85 1    
    57   30   31 1    
    58   30   32 1    
    59   30   86 1    
    60   31   87 1    
    61   31   88 1    
    62   31   89 1    
    63   32   33 2    
    64   32   34 am   BACKBONE|DICT|INTERRES
    65   34   35 1    
    66   34   90 1    
    67   35   36 1    
    68   35   37 1    
    69   35   91 1    
    70   36   92 1    
    71   36   93 1    
    72   36   94 1    
    73   37   38 2    
    74   37   39 am   BACKBONE|DICT|INTERRES
    75   39   40 1    
    76   39   95 1    
    77   40   41 1    
    78   40   42 1    
    79   40   96 1    
    80   41   97 1    
    81   41   98 1    
    82   41   99 1    
    83   42   43 2    
    84   42   44 am   BACKBONE|DICT|INTERRES
    85   44   45 1    
    86   44  100 1    
    87   45   46 1    
    88   45   47 1    
    89   45  101 1    
    90   46  102 1    
    91   46  103 1    
    92   46  104 1    
    93   47   48 2    
    94   47   49 am   BACKBONE|DICT|INTERRES
    95   49   50 1    
    96   49  105 1    
    97   50   51 1    
    98   50   52 1    
    99   50  106 1    
   100   51  107 1    
   101   51  108 1    
   102   51  109 1    
   103   52   53 2    
   104   52   54 am   BACKBONE|DICT|INTERRES
   105   54   55 1    
   106   54  110 1    
   107   55   56 1    
   108   55   59 1    
   109   55  111 1    
   110   56   57 am   BACKBONE|DICT|INTERRES
   111   56   58 2    
   112   57  112 1    
   113   57  113 1    
   114   59   60 1    
   115   59  114 1    
   116   59  115 1    
   117   60   61 1    
   118   61  116 1    
   119   61  117 1    
@<TRIPOS>SUBSTRUCTURE
     1 UNK         1 GROUP             0       ****    0 ROOT    
