@<TRIPOS>MOLECULE
3R8
117   119    1
SMALL
USER_CHARGES


@<TRIPOS>ATOM
      1 CA         17.5999  -22.3661  -40.4821 C.3       0 UNK        -0.2013 
      2 C          17.3256  -22.8146  -41.9095 C.2       0 UNK         0.4866 
      3 O          17.0807  -21.9781  -42.7788 O.2       0 UNK        -0.5176 
      4 N          17.3672  -24.1300  -42.1587 N.am      1 UNK        -0.4884 
      5 CA         17.1445  -24.7502  -43.4727 C.3       1 UNK         0.0853 
      6 C6         16.7183  -26.2347  -43.3457 C.3       10 UNK        -0.0849 
      7 S7         17.7771  -27.2389  -42.2436 S.3       10 UNK        -0.2776 
      8 C8         16.9638  -28.8673  -42.3598 C.3       10 UNK         0.0316 
      9 C9         17.7380  -29.8170  -43.2635 C.ar      10 UNK        -0.0863 
     10 C10        18.2897  -30.9948  -42.7501 C.ar      10 UNK        -0.1009 
     11 C11        19.0270  -31.8526  -43.5723 C.ar      10 UNK        -0.0712 
     12 C12        19.2151  -31.5226  -44.9184 C.ar      10 UNK        -0.0894 
     13 C13        18.6646  -30.3504  -45.4452 C.ar      10 UNK        -0.0745 
     14 C14        17.9073  -29.5184  -44.6173 C.ar      10 UNK        -0.0972 
     15 C15        18.9021  -29.9702  -46.9019 C.3       10 UNK         0.0209 
     16 S16        19.5416  -28.2701  -47.0879 S.3       10 UNK        -0.2568 
     17 C17        21.0692  -28.3637  -46.0993 C.3       10 UNK        -0.0983 
     18 CA         21.8618  -27.0334  -46.1192 C.3       3 UNK         0.0876 
     19 N          21.1186  -25.9540  -45.4590 N.am      3 UNK        -0.4424 
     20 C          21.3635  -24.6507  -45.6327 C.2       2 UNK         0.4918 
     21 O          22.1425  -24.2194  -46.4853 O.2       2 UNK        -0.4875 
     22 CA         20.6708  -23.6580  -44.6743 C.3       2 UNK         0.0481 
     23 CB         20.3389  -22.3182  -45.3656 C.3       2 UNK        -0.1831 
     24 N          19.4960  -24.1671  -43.9500 N.am      2 UNK        -0.4498 
     25 C          18.3136  -24.5418  -44.4651 C.2       1 UNK         0.5027 
     26 O          18.1057  -24.6796  -45.6709 O.2       1 UNK        -0.4969 
     27 C          23.2436  -27.2237  -45.4558 C.2       3 UNK         0.5005 
     28 O          23.4962  -26.6951  -44.3683 O.2       3 UNK        -0.5279 
     29 N          24.1088  -28.0230  -46.0961 N.am      4 UNK        -0.4463 
     30 CA         25.3408  -28.5368  -45.4932 C.3       4 UNK         0.0283 
     31 CB         26.1713  -29.2735  -46.5574 C.3       4 UNK        -0.1875 
     32 C          24.9880  -29.4644  -44.3171 C.2       4 UNK         0.4949 
     33 O          24.3247  -30.4791  -44.5356 O.2       4 UNK        -0.5039 
     34 N          25.3929  -29.0609  -43.1045 N.am      5 UNK        -0.4663 
     35 CA         25.0110  -29.6440  -41.8111 C.3       5 UNK         0.0242 
     36 CB         25.5446  -31.0866  -41.6623 C.3       5 UNK        -0.1982 
     37 C          23.4961  -29.5292  -41.5395 C.2       5 UNK         0.5017 
     38 O          22.8767  -30.5077  -41.1241 O.2       5 UNK        -0.5012 
     39 N          22.9343  -28.3314  -41.7754 N.am      6 UNK        -0.4439 
     40 CA         21.5327  -27.9491  -41.5513 C.3       6 UNK         0.0297 
     41 CB         21.4024  -26.4197  -41.6766 C.3       6 UNK        -0.2006 
     42 C          20.9819  -28.4123  -40.1895 C.2       6 UNK         0.4892 
     43 O          21.4136  -27.9002  -39.1546 O.2       6 UNK        -0.5089 
     44 N          20.0660  -29.3906  -40.2349 N.am      7 UNK        -0.4243 
     45 CA         19.4160  -30.0596  -39.0988 C.3       7 UNK         0.0196 
     46 CB         18.5403  -29.0658  -38.3059 C.3       7 UNK        -0.2007 
     47 C          20.3768  -30.8611  -38.1924 C.2       7 UNK         0.5020 
     48 O          20.0181  -31.1648  -37.0536 O.2       7 UNK        -0.5147 
     49 N          21.5613  -31.2162  -38.7055 N.am      8 UNK        -0.4734 
     50 CA         22.6043  -31.9687  -38.0036 C.3       8 UNK         0.0238 
     51 CB         23.6688  -30.9819  -37.4864 C.3       8 UNK        -0.1912 
     52 C          23.2115  -33.0609  -38.9039 C.2       8 UNK         0.5038 
     53 O          24.3454  -33.4802  -38.6640 O.2       8 UNK        -0.5046 
     54 N          22.4619  -33.4863  -39.9302 N.am      9 UNK        -0.4200 
     55 CA         22.8556  -34.4918  -40.9280 C.3       9 UNK         0.0839 
     56 C          23.1652  -35.8806  -40.3051 C.2       9 UNK         0.5513 
     57 N          24.1610  -36.5856  -40.8241 N.am      9 UNK        -0.7519 
     58 O          22.4806  -36.3414  -39.3934 O.2       9 UNK        -0.4960 
     59 C59        21.7914  -34.6344  -42.0482 C.3       10 UNK        -0.0876 
     60 S60        21.4221  -33.0546  -42.8854 S.3       10 UNK        -0.2414 
     61 C61        19.6103  -33.1406  -43.0103 C.3       10 UNK         0.0169 
     62 H62        17.8040  -23.2086  -39.8215 H         1 UNK         0.0903 
     63 H63        18.4613  -21.6992  -40.4573 H         1 UNK         0.0903 
     64 H64        16.7396  -21.8265  -40.0870 H         1 UNK         0.0903 
     65 H65        17.5610  -24.7808  -41.4093 H         1 UNK         0.3096 
     66 H66        16.3007  -24.2264  -43.9289 H         1 UNK         0.1121 
     67 H67        16.6515  -26.6998  -44.3295 H         1 UNK         0.0849 
     68 H68        15.7053  -26.2716  -42.9416 H         1 UNK         0.0849 
     69 H69        16.8802  -29.2799  -41.3533 H         1 UNK         0.0865 
     70 H70        15.9426  -28.7623  -42.7288 H         1 UNK         0.0865 
     71 H71        18.1377  -31.2524  -41.7121 H         1 UNK         0.1346 
     72 H72        19.7990  -32.1782  -45.5502 H         1 UNK         0.1412 
     73 H73        17.4808  -28.6161  -45.0282 H         1 UNK         0.1426 
     74 H74        17.9621  -30.0567  -47.4483 H         1 UNK         0.0716 
     75 H75        19.6016  -30.6612  -47.3749 H         1 UNK         0.0716 
     76 H76        20.8188  -28.6398  -45.0728 H         1 UNK         0.0695 
     77 H77        21.6631  -29.1872  -46.5003 H         1 UNK         0.0695 
     78 H78        22.0372  -26.7485  -47.1592 H         1 UNK         0.0983 
     79 H79        20.4651  -26.2302  -44.7430 H         1 UNK         0.3095 
     80 H80        21.4111  -23.4442  -43.9022 H         1 UNK         0.0454 
     81 H81        21.2383  -21.8427  -45.7584 H         1 UNK         0.0851 
     82 H82        19.8822  -21.6144  -44.6697 H         1 UNK         0.0851 
     83 H83        19.6530  -22.4549  -46.2022 H         1 UNK         0.0851 
     84 H84        19.5470  -24.1044  -42.9430 H         1 UNK         0.2976 
     85 H85        23.8304  -28.4415  -46.9722 H         1 UNK         0.3116 
     86 H86        25.9262  -27.6898  -45.1286 H         1 UNK         0.0646 
     87 H87        25.6323  -30.1240  -46.9770 H         1 UNK         0.0847 
     88 H88        27.0983  -29.6566  -46.1287 H         1 UNK         0.0847 
     89 H89        26.4447  -28.6103  -47.3782 H         1 UNK         0.0847 
     90 H90        25.9223  -28.2007  -43.0514 H         1 UNK         0.3040 
     91 H91        25.4982  -29.0394  -41.0443 H         1 UNK         0.1015 
     92 H92        25.0412  -31.7792  -42.3378 H         1 UNK         0.0786 
     93 H93        25.3848  -31.4569  -40.6488 H         1 UNK         0.0786 
     94 H94        26.6147  -31.1388  -41.8613 H         1 UNK         0.0786 
     95 H95        23.5160  -27.6174  -42.1938 H         1 UNK         0.3172 
     96 H96        20.9400  -28.4070  -42.3461 H         1 UNK         0.0595 
     97 H97        22.0631  -25.9021  -40.9802 H         1 UNK         0.0839 
     98 H98        20.3863  -26.0915  -41.4577 H         1 UNK         0.0839 
     99 H99        21.6418  -26.0748  -42.6797 H         1 UNK         0.0839 
    100 H100       19.8201  -29.7481  -41.1480 H         1 UNK         0.2998 
    101 H101       18.7453  -30.8023  -39.5302 H         1 UNK         0.0822 
    102 H102       17.9258  -29.5845  -37.5692 H         1 UNK         0.0787 
    103 H103       19.1443  -28.3354  -37.7668 H         1 UNK         0.0787 
    104 H104       17.8635  -28.5206  -38.9639 H         1 UNK         0.0787 
    105 H105       21.8120  -30.9104  -39.6459 H         1 UNK         0.3055 
    106 H106       22.1743  -32.4925  -37.1472 H         1 UNK         0.1106 
    107 H107       23.2258  -30.2260  -36.8378 H         1 UNK         0.0828 
    108 H108       24.4363  -31.4950  -36.9057 H         1 UNK         0.0828 
    109 H109       24.1669  -30.4666  -38.3085 H         1 UNK         0.0828 
    110 H110       21.5516  -33.0727  -40.0576 H         1 UNK         0.2931 
    111 H111       23.7739  -34.1196  -41.3875 H         1 UNK         0.0412 
    112 H112       24.7206  -36.2197  -41.5791 H         1 UNK         0.3472 
    113 H113       24.3668  -37.4973  -40.4453 H         1 UNK         0.3472 
    114 H114       20.8714  -35.0579  -41.6405 H         1 UNK         0.0970 
    115 H115       22.1343  -35.3376  -42.8096 H         1 UNK         0.0970 
    116 H116       19.1911  -33.3504  -42.0249 H         1 UNK         0.0612 
    117 H117       19.3325  -33.9774  -43.6527 H         1 UNK         0.0612 
@<TRIPOS>BOND
     1    1    2 1    
     2    1   62 1    
     3    1   63 1    
     4    1   64 1    
     5    2    3 2    
     6    2    4 am   BACKBONE|DICT|INTERRES
     7    4    5 1    
     8    4   65 1    
     9    5    6 1    
    10    5   25 1    
    11    5   66 1    
    12    6    7 1    
    13    6   67 1    
    14    6   68 1    
    15    7    8 1    
    16    8    9 1    
    17    8   69 1    
    18    8   70 1    
    19    9   10 ar   
    20    9   14 ar   
    21   10   11 ar   
    22   10   71 1    
    23   11   12 ar   
    24   11   61 1    
    25   12   13 ar   
    26   12   72 1    
    27   13   14 ar   
    28   13   15 1    
    29   14   73 1    
    30   15   16 1    
    31   15   74 1    
    32   15   75 1    
    33   16   17 1    
    34   17   18 1    
    35   17   76 1    
    36   17   77 1    
    37   18   19 1    
    38   18   27 1    
    39   18   78 1    
    40   19   20 am   BACKBONE|DICT|INTERRES
    41   19   79 1    
    42   20   21 2    
    43   20   22 1    
    44   22   23 1    
    45   22   24 1    
    46   22   80 1    
    47   23   81 1    
    48   23   82 1    
    49   23   83 1    
    50   24   25 am   BACKBONE|DICT|INTERRES
    51   24   84 1    
    52   25   26 2    
    53   27   28 2    
    54   27   29 am   BACKBONE|DICT|INTERRES
    55   29   30 1    
    56   29   85 1    
    57   30   31 1    
    58   30   32 1    
    59   30   86 1    
    60   31   87 1    
    61   31   88 1    
    62   31   89 1    
    63   32   33 2    
    64   32   34 am   BACKBONE|DICT|INTERRES
    65   34   35 1    
    66   34   90 1    
    67   35   36 1    
    68   35   37 1    
    69   35   91 1    
    70   36   92 1    
    71   36   93 1    
    72   36   94 1    
    73   37   38 2    
    74   37   39 am   BACKBONE|DICT|INTERRES
    75   39   40 1    
    76   39   95 1    
    77   40   41 1    
    78   40   42 1    
    79   40   96 1    
    80   41   97 1    
    81   41   98 1    
    82   41   99 1    
    83   42   43 2    
    84   42   44 am   BACKBONE|DICT|INTERRES
    85   44   45 1    
    86   44  100 1    
    87   45   46 1    
    88   45   47 1    
    89   45  101 1    
    90   46  102 1    
    91   46  103 1    
    92   46  104 1    
    93   47   48 2    
    94   47   49 am   BACKBONE|DICT|INTERRES
    95   49   50 1    
    96   49  105 1    
    97   50   51 1    
    98   50   52 1    
    99   50  106 1    
   100   51  107 1    
   101   51  108 1    
   102   51  109 1    
   103   52   53 2    
   104   52   54 am   BACKBONE|DICT|INTERRES
   105   54   55 1    
   106   54  110 1    
   107   55   56 1    
   108   55   59 1    
   109   55  111 1    
   110   56   57 am   BACKBONE|DICT|INTERRES
   111   56   58 2    
   112   57  112 1    
   113   57  113 1    
   114   59   60 1    
   115   59  114 1    
   116   59  115 1    
   117   60   61 1    
   118   61  116 1    
   119   61  117 1    
@<TRIPOS>SUBSTRUCTURE
     1 UNK         1 GROUP             0       ****    0 ROOT    
