@<TRIPOS>MOLECULE
3R8
117   119    1
SMALL
USER_CHARGES


@<TRIPOS>ATOM
      1 CA         12.4681  -28.6955  -40.9609 C.3       0 UNK        -0.2013 
      2 C          13.5742  -28.0425  -41.7764 C.2       0 UNK         0.4866 
      3 O          14.1226  -27.0225  -41.3578 O.2       0 UNK        -0.5176 
      4 N          13.9002  -28.6162  -42.9414 N.am      1 UNK        -0.4884 
      5 CA         14.9903  -28.1687  -43.8132 C.3       1 UNK         0.0853 
      6 C6         14.8359  -28.7536  -45.2369 C.3       10 UNK        -0.0849 
      7 S7         15.7439  -27.7883  -46.4906 S.3       10 UNK        -0.2776 
      8 C8         16.7453  -29.0700  -47.3105 C.3       10 UNK         0.0316 
      9 C9         18.1665  -29.1415  -46.7677 C.ar      10 UNK        -0.0863 
     10 C10        18.5657  -30.1860  -45.9251 C.ar      10 UNK        -0.1009 
     11 C11        19.9041  -30.3041  -45.5316 C.ar      10 UNK        -0.0712 
     12 C12        20.8361  -29.3545  -45.9633 C.ar      10 UNK        -0.0894 
     13 C13        20.4457  -28.2995  -46.7916 C.ar      10 UNK        -0.0745 
     14 C14        19.1091  -28.1970  -47.1857 C.ar      10 UNK        -0.0972 
     15 C15        21.4730  -27.3105  -47.3240 C.3       10 UNK         0.0209 
     16 S16        21.5043  -25.7596  -46.3736 S.3       10 UNK        -0.2568 
     17 C17        22.5866  -26.1866  -44.9701 C.3       10 UNK        -0.0983 
     18 CA         21.9039  -25.9312  -43.6045 C.3       3 UNK         0.0876 
     19 N          20.8567  -26.9047  -43.3120 N.am      3 UNK        -0.4424 
     20 C          19.5452  -26.6593  -43.3128 C.2       2 UNK         0.4918 
     21 O          19.0291  -25.6002  -43.6802 O.2       2 UNK        -0.4875 
     22 CA         18.6661  -27.7732  -42.7403 C.3       2 UNK         0.0481 
     23 CB         18.7026  -27.7494  -41.1987 C.3       2 UNK        -0.1831 
     24 N          17.3012  -27.6029  -43.2213 N.am      2 UNK        -0.4498 
     25 C          16.3520  -28.5434  -43.1975 C.2       1 UNK         0.5027 
     26 O          16.5116  -29.6755  -42.7344 O.2       1 UNK        -0.4969 
     27 C          22.9250  -26.0436  -42.4634 C.2       3 UNK         0.5005 
     28 O          23.1839  -27.1540  -41.9934 O.2       3 UNK        -0.5279 
     29 N          23.5140  -24.9110  -42.0550 N.am      4 UNK        -0.4463 
     30 CA         24.4815  -24.8257  -40.9514 C.3       4 UNK         0.0283 
     31 CB         24.7677  -23.3475  -40.6402 C.3       4 UNK        -0.1875 
     32 C          25.7988  -25.5846  -41.2013 C.2       4 UNK         0.4949 
     33 O          26.4575  -25.9836  -40.2413 O.2       4 UNK        -0.5039 
     34 N          26.1549  -25.7720  -42.4786 N.am      5 UNK        -0.4663 
     35 CA         27.3237  -26.5379  -42.9157 C.3       5 UNK         0.0242 
     36 CB         27.7516  -26.0295  -44.3031 C.3       5 UNK        -0.1982 
     37 C          27.0811  -28.0594  -42.9535 C.2       5 UNK         0.5017 
     38 O          28.0505  -28.8070  -43.0926 O.2       5 UNK        -0.5012 
     39 N          25.8172  -28.4957  -42.8622 N.am      6 UNK        -0.4439 
     40 CA         25.4169  -29.9018  -42.9003 C.3       6 UNK         0.0297 
     41 CB         24.1020  -30.0153  -43.6869 C.3       6 UNK        -0.2006 
     42 C          25.2665  -30.4674  -41.4791 C.2       6 UNK         0.4892 
     43 O          25.2008  -29.7116  -40.5058 O.2       6 UNK        -0.5089 
     44 N          25.2093  -31.8017  -41.3845 N.am      7 UNK        -0.4243 
     45 CA         25.1126  -32.5663  -40.1377 C.3       7 UNK         0.0196 
     46 CB         25.6084  -34.0014  -40.3991 C.3       7 UNK        -0.2007 
     47 C          23.6963  -32.5333  -39.5286 C.2       7 UNK         0.5020 
     48 O          23.0399  -33.5721  -39.4373 O.2       7 UNK        -0.5147 
     49 N          23.2459  -31.3338  -39.1380 N.am      8 UNK        -0.4734 
     50 CA         21.9884  -30.9770  -38.4569 C.3       8 UNK         0.0238 
     51 CB         21.8864  -31.6656  -37.0817 C.3       8 UNK        -0.1912 
     52 C          20.6959  -31.1881  -39.2695 C.2       8 UNK         0.5038 
     53 O          19.7734  -30.3859  -39.1247 O.2       8 UNK        -0.5046 
     54 N          20.6490  -32.2375  -40.0982 N.am      9 UNK        -0.4200 
     55 CA         19.5537  -32.5984  -41.0178 C.3       9 UNK         0.0839 
     56 C          18.2582  -33.1144  -40.3215 C.2       9 UNK         0.5513 
     57 N          18.2781  -33.4292  -39.0316 N.am      9 UNK        -0.7519 
     58 O          17.2258  -33.2750  -40.9672 O.2       9 UNK        -0.4960 
     59 C59        19.2633  -31.4982  -42.0797 C.3       10 UNK        -0.0876 
     60 S60        20.7674  -31.0109  -42.9932 S.3       10 UNK        -0.2414 
     61 C61        20.3742  -31.4907  -44.7018 C.3       10 UNK         0.0169 
     62 H62        12.8503  -28.9985  -39.9864 H         1 UNK         0.0903 
     63 H63        11.6521  -27.9908  -40.8029 H         1 UNK         0.0903 
     64 H64        12.0626  -29.5781  -41.4552 H         1 UNK         0.0903 
     65 H65        13.4425  -29.4740  -43.2161 H         1 UNK         0.3096 
     66 H66        14.9234  -27.0798  -43.8779 H         1 UNK         0.1121 
     67 H67        15.1264  -29.8058  -45.2628 H         1 UNK         0.0849 
     68 H68        13.7861  -28.7314  -45.5345 H         1 UNK         0.0849 
     69 H69        16.2544  -30.0422  -47.2484 H         1 UNK         0.0865 
     70 H70        16.7887  -28.8370  -48.3756 H         1 UNK         0.0865 
     71 H71        17.8452  -30.9274  -45.6078 H         1 UNK         0.1346 
     72 H72        21.8722  -29.4539  -45.6722 H         1 UNK         0.1412 
     73 H73        18.8068  -27.3945  -47.8451 H         1 UNK         0.1426 
     74 H74        21.2355  -27.0724  -48.3619 H         1 UNK         0.0716 
     75 H75        22.4689  -27.7560  -47.3429 H         1 UNK         0.0716 
     76 H76        22.9154  -27.2244  -45.0473 H         1 UNK         0.0695 
     77 H77        23.4864  -25.5767  -45.0714 H         1 UNK         0.0695 
     78 H78        21.4908  -24.9199  -43.5890 H         1 UNK         0.0983 
     79 H79        21.2000  -27.7754  -42.9278 H         1 UNK         0.3095 
     80 H80        19.0421  -28.7255  -43.1118 H         1 UNK         0.0454 
     81 H81        19.7133  -27.9232  -40.8271 H         1 UNK         0.0851 
     82 H82        18.3687  -26.7888  -40.8049 H         1 UNK         0.0851 
     83 H83        18.0689  -28.5220  -40.7639 H         1 UNK         0.0851 
     84 H84        17.1250  -26.7058  -43.6574 H         1 UNK         0.2976 
     85 H85        23.2605  -24.0391  -42.4992 H         1 UNK         0.3116 
     86 H86        24.0159  -25.2739  -40.0708 H         1 UNK         0.0646 
     87 H87        25.4621  -23.2522  -39.8041 H         1 UNK         0.0847 
     88 H88        23.8579  -22.8149  -40.3629 H         1 UNK         0.0847 
     89 H89        25.2137  -22.8334  -41.4925 H         1 UNK         0.0847 
     90 H90        25.5607  -25.3925  -43.2010 H         1 UNK         0.3040 
     91 H91        28.1459  -26.3599  -42.2185 H         1 UNK         0.1015 
     92 H92        26.9724  -26.1879  -45.0499 H         1 UNK         0.0786 
     93 H93        28.6462  -26.5480  -44.6512 H         1 UNK         0.0786 
     94 H94        27.9860  -24.9650  -44.2811 H         1 UNK         0.0786 
     95 H95        25.0854  -27.8370  -42.6189 H         1 UNK         0.3172 
     96 H96        26.1751  -30.4897  -43.4219 H         1 UNK         0.0595 
     97 H97        23.7873  -31.0547  -43.7865 H         1 UNK         0.0839 
     98 H98        23.2924  -29.4761  -43.1960 H         1 UNK         0.0839 
     99 H99        24.2085  -29.6140  -44.6946 H         1 UNK         0.0839 
    100 H100       25.2337  -32.3443  -42.2361 H         1 UNK         0.2998 
    101 H101       25.7849  -32.1165  -39.4036 H         1 UNK         0.0822 
    102 H102       25.5817  -34.5965  -39.4851 H         1 UNK         0.0787 
    103 H103       24.9933  -34.5138  -41.1400 H         1 UNK         0.0787 
    104 H104       26.6386  -34.0070  -40.7556 H         1 UNK         0.0787 
    105 H105       23.8521  -30.5472  -39.3614 H         1 UNK         0.3055 
    106 H106       22.0543  -29.9022  -38.2778 H         1 UNK         0.1106 
    107 H107       21.8135  -32.7499  -37.1713 H         1 UNK         0.0828 
    108 H108       22.7518  -31.4381  -36.4594 H         1 UNK         0.0828 
    109 H109       21.0019  -31.3259  -36.5411 H         1 UNK         0.0828 
    110 H110       21.4491  -32.8641  -40.0870 H         1 UNK         0.2931 
    111 H111       19.9279  -33.4667  -41.5611 H         1 UNK         0.0412 
    112 H112       17.4393  -33.7764  -38.5935 H         1 UNK         0.3472 
    113 H113       19.1221  -33.3165  -38.4936 H         1 UNK         0.3472 
    114 H114       18.8472  -30.6142  -41.5990 H         1 UNK         0.0970 
    115 H115       18.4994  -31.8298  -42.7845 H         1 UNK         0.0970 
    116 H116       19.6418  -32.2988  -44.7164 H         1 UNK         0.0612 
    117 H117       21.2774  -31.9008  -45.1560 H         1 UNK         0.0612 
@<TRIPOS>BOND
     1    1    2 1    
     2    1   62 1    
     3    1   63 1    
     4    1   64 1    
     5    2    3 2    
     6    2    4 am   BACKBONE|DICT|INTERRES
     7    4    5 1    
     8    4   65 1    
     9    5    6 1    
    10    5   25 1    
    11    5   66 1    
    12    6    7 1    
    13    6   67 1    
    14    6   68 1    
    15    7    8 1    
    16    8    9 1    
    17    8   69 1    
    18    8   70 1    
    19    9   10 ar   
    20    9   14 ar   
    21   10   11 ar   
    22   10   71 1    
    23   11   12 ar   
    24   11   61 1    
    25   12   13 ar   
    26   12   72 1    
    27   13   14 ar   
    28   13   15 1    
    29   14   73 1    
    30   15   16 1    
    31   15   74 1    
    32   15   75 1    
    33   16   17 1    
    34   17   18 1    
    35   17   76 1    
    36   17   77 1    
    37   18   19 1    
    38   18   27 1    
    39   18   78 1    
    40   19   20 am   BACKBONE|DICT|INTERRES
    41   19   79 1    
    42   20   21 2    
    43   20   22 1    
    44   22   23 1    
    45   22   24 1    
    46   22   80 1    
    47   23   81 1    
    48   23   82 1    
    49   23   83 1    
    50   24   25 am   BACKBONE|DICT|INTERRES
    51   24   84 1    
    52   25   26 2    
    53   27   28 2    
    54   27   29 am   BACKBONE|DICT|INTERRES
    55   29   30 1    
    56   29   85 1    
    57   30   31 1    
    58   30   32 1    
    59   30   86 1    
    60   31   87 1    
    61   31   88 1    
    62   31   89 1    
    63   32   33 2    
    64   32   34 am   BACKBONE|DICT|INTERRES
    65   34   35 1    
    66   34   90 1    
    67   35   36 1    
    68   35   37 1    
    69   35   91 1    
    70   36   92 1    
    71   36   93 1    
    72   36   94 1    
    73   37   38 2    
    74   37   39 am   BACKBONE|DICT|INTERRES
    75   39   40 1    
    76   39   95 1    
    77   40   41 1    
    78   40   42 1    
    79   40   96 1    
    80   41   97 1    
    81   41   98 1    
    82   41   99 1    
    83   42   43 2    
    84   42   44 am   BACKBONE|DICT|INTERRES
    85   44   45 1    
    86   44  100 1    
    87   45   46 1    
    88   45   47 1    
    89   45  101 1    
    90   46  102 1    
    91   46  103 1    
    92   46  104 1    
    93   47   48 2    
    94   47   49 am   BACKBONE|DICT|INTERRES
    95   49   50 1    
    96   49  105 1    
    97   50   51 1    
    98   50   52 1    
    99   50  106 1    
   100   51  107 1    
   101   51  108 1    
   102   51  109 1    
   103   52   53 2    
   104   52   54 am   BACKBONE|DICT|INTERRES
   105   54   55 1    
   106   54  110 1    
   107   55   56 1    
   108   55   59 1    
   109   55  111 1    
   110   56   57 am   BACKBONE|DICT|INTERRES
   111   56   58 2    
   112   57  112 1    
   113   57  113 1    
   114   59   60 1    
   115   59  114 1    
   116   59  115 1    
   117   60   61 1    
   118   61  116 1    
   119   61  117 1    
@<TRIPOS>SUBSTRUCTURE
     1 UNK         1 GROUP             0       ****    0 ROOT    
