@<TRIPOS>MOLECULE
3R8
117   119    1
SMALL
USER_CHARGES


@<TRIPOS>ATOM
      1 CA         15.3842  -22.9238  -46.8464 C.3       0 UNK        -0.2013 
      2 C          15.8574  -23.8439  -45.7311 C.2       0 UNK         0.4866 
      3 O          15.5398  -23.6020  -44.5668 O.2       0 UNK        -0.5176 
      4 N          16.6227  -24.8880  -46.0821 N.am      1 UNK        -0.4884 
      5 CA         17.1612  -25.9243  -45.1828 C.3       1 UNK         0.0853 
      6 C6         16.0616  -26.8016  -44.5187 C.3       10 UNK        -0.0849 
      7 S7         15.1736  -27.7827  -45.7810 S.3       10 UNK        -0.2776 
      8 C8         15.4009  -29.5082  -45.2178 C.3       10 UNK         0.0316 
      9 C9         16.8450  -29.8824  -44.8901 C.ar      10 UNK        -0.0863 
     10 C10        17.1307  -30.5387  -43.6889 C.ar      10 UNK        -0.1009 
     11 C11        18.4440  -30.8803  -43.3521 C.ar      10 UNK        -0.0712 
     12 C12        19.4808  -30.5447  -44.2285 C.ar      10 UNK        -0.0894 
     13 C13        19.2141  -29.8911  -45.4355 C.ar      10 UNK        -0.0745 
     14 C14        17.8907  -29.5835  -45.7699 C.ar      10 UNK        -0.0972 
     15 C15        20.3516  -29.5302  -46.3828 C.3       10 UNK         0.0209 
     16 S16        20.4348  -27.7328  -46.6818 S.3       10 UNK        -0.2568 
     17 C17        22.1542  -27.3050  -46.2210 C.3       10 UNK        -0.0983 
     18 CA         22.2828  -26.5780  -44.8565 C.3       3 UNK         0.0876 
     19 N          21.3246  -25.4773  -44.7430 N.am      3 UNK        -0.4424 
     20 C          21.2352  -24.5731  -43.7590 C.2       2 UNK         0.4918 
     21 O          22.0469  -24.4749  -42.8385 O.2       2 UNK        -0.4875 
     22 CA         19.9862  -23.6686  -43.7823 C.3       2 UNK         0.0481 
     23 CB         20.3282  -22.2953  -44.3801 C.3       2 UNK        -0.1831 
     24 N          18.8565  -24.2542  -44.5208 N.am      2 UNK        -0.4498 
     25 C          18.2139  -25.3861  -44.1854 C.2       1 UNK         0.5027 
     26 O          18.4888  -26.0312  -43.1735 O.2       1 UNK        -0.4969 
     27 C          22.2389  -27.5775  -43.6806 C.2       3 UNK         0.5005 
     28 O          23.2250  -28.2874  -43.4818 O.2       3 UNK        -0.5279 
     29 N          21.1478  -27.6032  -42.8963 N.am      4 UNK        -0.4463 
     30 CA         20.9783  -28.4435  -41.7055 C.3       4 UNK         0.0283 
     31 CB         19.6082  -28.1639  -41.0691 C.3       4 UNK        -0.1875 
     32 C          22.0883  -28.2923  -40.6540 C.2       4 UNK         0.4949 
     33 O          22.4473  -29.2820  -40.0169 O.2       4 UNK        -0.5039 
     34 N          22.6396  -27.0774  -40.5259 N.am      5 UNK        -0.4663 
     35 CA         23.7651  -26.7651  -39.6420 C.3       5 UNK         0.0242 
     36 CB         23.9230  -25.2386  -39.5560 C.3       5 UNK        -0.1982 
     37 C          25.0910  -27.4200  -40.0735 C.2       5 UNK         0.5017 
     38 O          25.9450  -27.6543  -39.2179 O.2       5 UNK        -0.5012 
     39 N          25.2418  -27.6974  -41.3758 N.am      6 UNK        -0.4439 
     40 CA         26.4014  -28.3774  -41.9528 C.3       6 UNK         0.0297 
     41 CB         26.7183  -27.7710  -43.3302 C.3       6 UNK        -0.2006 
     42 C          26.1561  -29.8887  -42.0707 C.2       6 UNK         0.4892 
     43 O          27.0614  -30.6697  -41.7763 O.2       6 UNK        -0.5089 
     44 N          24.9466  -30.2705  -42.5060 N.am      7 UNK        -0.4243 
     45 CA         24.5268  -31.6568  -42.7139 C.3       7 UNK         0.0196 
     46 CB         23.1926  -31.6726  -43.4740 C.3       7 UNK        -0.2007 
     47 C          24.3980  -32.4565  -41.4092 C.2       7 UNK         0.5020 
     48 O          24.7813  -33.6263  -41.3906 O.2       7 UNK        -0.5147 
     49 N          23.8605  -31.8149  -40.3583 N.am      8 UNK        -0.4734 
     50 CA         23.5981  -32.3668  -39.0234 C.3       8 UNK         0.0238 
     51 CB         24.9243  -32.6146  -38.2730 C.3       8 UNK        -0.1912 
     52 C          22.6857  -33.6091  -39.0710 C.2       8 UNK         0.5038 
     53 O          23.0744  -34.6764  -38.5908 O.2       8 UNK        -0.5046 
     54 N          21.5043  -33.4435  -39.6853 N.am      9 UNK        -0.4200 
     55 CA         20.4712  -34.4790  -39.8633 C.3       9 UNK         0.0839 
     56 C          20.0496  -35.1694  -38.5348 C.2       9 UNK         0.5513 
     57 N          19.8511  -36.4803  -38.5507 N.am      9 UNK        -0.7519 
     58 O          19.8513  -34.5178  -37.5111 O.2       9 UNK        -0.4960 
     59 C59        19.2083  -33.9214  -40.5715 C.3       10 UNK        -0.0876 
     60 S60        19.5191  -33.2023  -42.2227 S.3       10 UNK        -0.2414 
     61 C61        18.7291  -31.5740  -42.0237 C.3       10 UNK         0.0169 
     62 H62        15.7415  -23.2477  -47.8238 H         1 UNK         0.0903 
     63 H63        14.2952  -22.9005  -46.8753 H         1 UNK         0.0903 
     64 H64        15.7421  -21.9091  -46.6736 H         1 UNK         0.0903 
     65 H65        16.8364  -25.0247  -47.0611 H         1 UNK         0.3096 
     66 H66        17.7418  -26.5879  -45.8250 H         1 UNK         0.1121 
     67 H67        15.3439  -26.1874  -43.9737 H         1 UNK         0.0849 
     68 H68        16.4884  -27.4788  -43.7777 H         1 UNK         0.0849 
     69 H69        14.7592  -29.6656  -44.3493 H         1 UNK         0.0865 
     70 H70        15.0328  -30.1814  -45.9930 H         1 UNK         0.0865 
     71 H71        16.3258  -30.7801  -43.0079 H         1 UNK         0.1346 
     72 H72        20.4970  -30.7982  -43.9714 H         1 UNK         0.1412 
     73 H73        17.6781  -29.0858  -46.7063 H         1 UNK         0.1426 
     74 H74        21.3028  -29.8944  -45.9927 H         1 UNK         0.0716 
     75 H75        20.1971  -30.0391  -47.3351 H         1 UNK         0.0716 
     76 H76        22.5308  -26.6444  -47.0034 H         1 UNK         0.0695 
     77 H77        22.7964  -28.1867  -46.2670 H         1 UNK         0.0695 
     78 H78        23.2770  -26.1276  -44.8169 H         1 UNK         0.0983 
     79 H79        20.6052  -25.4724  -45.4509 H         1 UNK         0.3095 
     80 H80        19.6681  -23.5232  -42.7480 H         1 UNK         0.0454 
     81 H81        19.4764  -21.6169  -44.3302 H         1 UNK         0.0851 
     82 H82        20.6371  -22.3725  -45.4233 H         1 UNK         0.0851 
     83 H83        21.1462  -21.8248  -43.8326 H         1 UNK         0.0851 
     84 H84        18.5648  -23.7797  -45.3635 H         1 UNK         0.2976 
     85 H85        20.3674  -26.9975  -43.1266 H         1 UNK         0.3116 
     86 H86        21.0035  -29.4790  -42.0404 H         1 UNK         0.0646 
     87 H87        18.7961  -28.3833  -41.7625 H         1 UNK         0.0847 
     88 H88        19.4518  -28.7787  -40.1817 H         1 UNK         0.0847 
     89 H89        19.5116  -27.1214  -40.7636 H         1 UNK         0.0847 
     90 H90        22.2887  -26.3250  -41.1045 H         1 UNK         0.3040 
     91 H91        23.5266  -27.1442  -38.6455 H         1 UNK         0.1015 
     92 H92        24.1334  -24.7992  -40.5322 H         1 UNK         0.0786 
     93 H93        24.7441  -24.9667  -38.8909 H         1 UNK         0.0786 
     94 H94        23.0212  -24.7678  -39.1642 H         1 UNK         0.0786 
     95 H95        24.4600  -27.5308  -41.9986 H         1 UNK         0.3172 
     96 H96        27.2749  -28.2265  -41.3146 H         1 UNK         0.0595 
     97 H97        25.8903  -27.8895  -44.0302 H         1 UNK         0.0839 
     98 H98        27.5909  -28.2515  -43.7748 H         1 UNK         0.0839 
     99 H99        26.9402  -26.7067  -43.2520 H         1 UNK         0.0839 
    100 H100       24.2805  -29.5504  -42.7810 H         1 UNK         0.2998 
    101 H101       25.2817  -32.1449  -43.3341 H         1 UNK         0.0822 
    102 H102       22.8794  -32.6934  -43.6977 H         1 UNK         0.0787 
    103 H103       22.4031  -31.2121  -42.8819 H         1 UNK         0.0787 
    104 H104       23.2633  -31.1359  -44.4204 H         1 UNK         0.0787 
    105 H105       23.5525  -30.8545  -40.4855 H         1 UNK         0.3055 
    106 H106       23.0479  -31.6022  -38.4719 H         1 UNK         0.1106 
    107 H107       25.5236  -31.7056  -38.2193 H         1 UNK         0.0828 
    108 H108       24.7380  -32.9413  -37.2492 H         1 UNK         0.0828 
    109 H109       25.5272  -33.3846  -38.7553 H         1 UNK         0.0828 
    110 H110       21.2855  -32.5356  -40.0659 H         1 UNK         0.2931 
    111 H111       20.9122  -35.2383  -40.5122 H         1 UNK         0.0412 
    112 H112       20.0004  -37.0200  -39.3896 H         1 UNK         0.3472 
    113 H113       19.5597  -36.9431  -37.7035 H         1 UNK         0.3472 
    114 H114       18.4729  -34.7171  -40.7077 H         1 UNK         0.0970 
    115 H115       18.7248  -33.1816  -39.9305 H         1 UNK         0.0970 
    116 H116       17.7980  -31.7004  -41.4691 H         1 UNK         0.0612 
    117 H117       19.3689  -30.9499  -41.4032 H         1 UNK         0.0612 
@<TRIPOS>BOND
     1    1    2 1    
     2    1   62 1    
     3    1   63 1    
     4    1   64 1    
     5    2    3 2    
     6    2    4 am   BACKBONE|DICT|INTERRES
     7    4    5 1    
     8    4   65 1    
     9    5    6 1    
    10    5   25 1    
    11    5   66 1    
    12    6    7 1    
    13    6   67 1    
    14    6   68 1    
    15    7    8 1    
    16    8    9 1    
    17    8   69 1    
    18    8   70 1    
    19    9   10 ar   
    20    9   14 ar   
    21   10   11 ar   
    22   10   71 1    
    23   11   12 ar   
    24   11   61 1    
    25   12   13 ar   
    26   12   72 1    
    27   13   14 ar   
    28   13   15 1    
    29   14   73 1    
    30   15   16 1    
    31   15   74 1    
    32   15   75 1    
    33   16   17 1    
    34   17   18 1    
    35   17   76 1    
    36   17   77 1    
    37   18   19 1    
    38   18   27 1    
    39   18   78 1    
    40   19   20 am   BACKBONE|DICT|INTERRES
    41   19   79 1    
    42   20   21 2    
    43   20   22 1    
    44   22   23 1    
    45   22   24 1    
    46   22   80 1    
    47   23   81 1    
    48   23   82 1    
    49   23   83 1    
    50   24   25 am   BACKBONE|DICT|INTERRES
    51   24   84 1    
    52   25   26 2    
    53   27   28 2    
    54   27   29 am   BACKBONE|DICT|INTERRES
    55   29   30 1    
    56   29   85 1    
    57   30   31 1    
    58   30   32 1    
    59   30   86 1    
    60   31   87 1    
    61   31   88 1    
    62   31   89 1    
    63   32   33 2    
    64   32   34 am   BACKBONE|DICT|INTERRES
    65   34   35 1    
    66   34   90 1    
    67   35   36 1    
    68   35   37 1    
    69   35   91 1    
    70   36   92 1    
    71   36   93 1    
    72   36   94 1    
    73   37   38 2    
    74   37   39 am   BACKBONE|DICT|INTERRES
    75   39   40 1    
    76   39   95 1    
    77   40   41 1    
    78   40   42 1    
    79   40   96 1    
    80   41   97 1    
    81   41   98 1    
    82   41   99 1    
    83   42   43 2    
    84   42   44 am   BACKBONE|DICT|INTERRES
    85   44   45 1    
    86   44  100 1    
    87   45   46 1    
    88   45   47 1    
    89   45  101 1    
    90   46  102 1    
    91   46  103 1    
    92   46  104 1    
    93   47   48 2    
    94   47   49 am   BACKBONE|DICT|INTERRES
    95   49   50 1    
    96   49  105 1    
    97   50   51 1    
    98   50   52 1    
    99   50  106 1    
   100   51  107 1    
   101   51  108 1    
   102   51  109 1    
   103   52   53 2    
   104   52   54 am   BACKBONE|DICT|INTERRES
   105   54   55 1    
   106   54  110 1    
   107   55   56 1    
   108   55   59 1    
   109   55  111 1    
   110   56   57 am   BACKBONE|DICT|INTERRES
   111   56   58 2    
   112   57  112 1    
   113   57  113 1    
   114   59   60 1    
   115   59  114 1    
   116   59  115 1    
   117   60   61 1    
   118   61  116 1    
   119   61  117 1    
@<TRIPOS>SUBSTRUCTURE
     1 UNK         1 GROUP             0       ****    0 ROOT    
