@<TRIPOS>MOLECULE
3R8
117   119    1
SMALL
USER_CHARGES


@<TRIPOS>ATOM
      1 CA         15.6552  -24.3992  -47.6475 C.3       0 UNK        -0.2013 
      2 C          16.5535  -25.5182  -47.1419 C.2       0 UNK         0.4866 
      3 O          17.3401  -26.0657  -47.9145 O.2       0 UNK        -0.5176 
      4 N          16.4352  -25.8651  -45.8534 N.am      1 UNK        -0.4884 
      5 CA         17.2229  -26.9070  -45.1837 C.3       1 UNK         0.0853 
      6 C6         16.6815  -27.2055  -43.7630 C.3       10 UNK        -0.0849 
      7 S7         15.1517  -28.2047  -43.7637 S.3       10 UNK        -0.2776 
      8 C8         15.7182  -29.9256  -44.0484 C.3       10 UNK         0.0316 
      9 C9         17.1155  -30.2106  -43.5114 C.ar      10 UNK        -0.0863 
     10 C10        18.1818  -30.3773  -44.3980 C.ar      10 UNK        -0.1009 
     11 C11        19.4841  -30.5510  -43.9237 C.ar      10 UNK        -0.0712 
     12 C12        19.7154  -30.5642  -42.5431 C.ar      10 UNK        -0.0894 
     13 C13        18.6546  -30.4100  -41.6433 C.ar      10 UNK        -0.0745 
     14 C14        17.3545  -30.2502  -42.1348 C.ar      10 UNK        -0.0972 
     15 C15        18.8993  -30.3993  -40.1384 C.3       10 UNK         0.0209 
     16 S16        20.1301  -29.1624  -39.5978 S.3       10 UNK        -0.2568 
     17 C17        19.4979  -27.5900  -40.2852 C.3       10 UNK        -0.0983 
     18 CA         20.6380  -26.7967  -40.9790 C.3       3 UNK         0.0876 
     19 N          20.1861  -26.0934  -42.1816 N.am      3 UNK        -0.4424 
     20 C          21.0089  -25.6370  -43.1386 C.2       2 UNK         0.4918 
     21 O          22.2273  -25.8299  -43.1354 O.2       2 UNK        -0.4875 
     22 CA         20.3557  -24.8305  -44.2838 C.3       2 UNK         0.0481 
     23 CB         21.2650  -24.7147  -45.5257 C.3       2 UNK        -0.1831 
     24 N          19.0196  -25.3282  -44.6447 N.am      2 UNK        -0.4498 
     25 C          18.7218  -26.5563  -45.1005 C.2       1 UNK         0.5027 
     26 O          19.5602  -27.4026  -45.4093 O.2       1 UNK        -0.4969 
     27 C          21.3374  -25.8143  -40.0130 C.2       3 UNK         0.5005 
     28 O          21.0220  -24.6208  -40.0222 O.2       3 UNK        -0.5279 
     29 N          22.2768  -26.3383  -39.2136 N.am      4 UNK        -0.4463 
     30 CA         23.2608  -25.6042  -38.4023 C.3       4 UNK         0.0283 
     31 CB         22.5960  -24.6797  -37.3596 C.3       4 UNK        -0.1875 
     32 C          24.3089  -24.8884  -39.2814 C.2       4 UNK         0.4949 
     33 O          24.8255  -23.8333  -38.9120 O.2       4 UNK        -0.5039 
     34 N          24.6136  -25.5108  -40.4229 N.am      5 UNK        -0.4663 
     35 CA         25.6479  -25.1580  -41.3908 C.3       5 UNK         0.0242 
     36 CB         25.2060  -23.9953  -42.2991 C.3       5 UNK        -0.1982 
     37 C          25.9446  -26.4439  -42.1664 C.2       5 UNK         0.5017 
     38 O          27.0653  -26.9499  -42.1074 O.2       5 UNK        -0.5012 
     39 N          24.8864  -27.0171  -42.7565 N.am      6 UNK        -0.4439 
     40 CA         24.7459  -28.4604  -42.9495 C.3       6 UNK         0.0297 
     41 CB         23.8183  -28.7054  -44.1482 C.3       6 UNK        -0.2006 
     42 C          24.1603  -29.0758  -41.6618 C.2       6 UNK         0.4892 
     43 O          23.7154  -28.3348  -40.7784 O.2       6 UNK        -0.5089 
     44 N          24.1561  -30.4082  -41.5631 N.am      7 UNK        -0.4243 
     45 CA         23.6012  -31.1344  -40.4225 C.3       7 UNK         0.0196 
     46 CB         24.6273  -31.1905  -39.2756 C.3       7 UNK        -0.2007 
     47 C          23.1902  -32.5419  -40.8578 C.2       7 UNK         0.5020 
     48 O          23.8530  -33.1282  -41.7171 O.2       7 UNK        -0.5147 
     49 N          22.1277  -33.0587  -40.2246 N.am      8 UNK        -0.4734 
     50 CA         21.4951  -34.3727  -40.4107 C.3       8 UNK         0.0238 
     51 CB         22.4536  -35.5232  -40.0373 C.3       8 UNK        -0.1912 
     52 C          20.8733  -34.5663  -41.8047 C.2       8 UNK         0.5038 
     53 O          19.6485  -34.6292  -41.9112 O.2       8 UNK        -0.5046 
     54 N          21.7273  -34.6523  -42.8316 N.am      9 UNK        -0.4200 
     55 CA         21.3853  -34.7684  -44.2602 C.3       9 UNK         0.0839 
     56 C          20.6128  -36.0647  -44.6535 C.2       9 UNK         0.5513 
     57 N          20.6741  -37.1306  -43.8643 N.am      9 UNK        -0.7519 
     58 O          19.9764  -36.1230  -45.7028 O.2       9 UNK        -0.4960 
     59 C59        20.7291  -33.4743  -44.8189 C.3       10 UNK        -0.0876 
     60 S60        21.7916  -32.0128  -44.5623 S.3       10 UNK        -0.2414 
     61 C61        20.6314  -30.6588  -44.9214 C.3       10 UNK         0.0169 
     62 H62        15.0189  -24.7643  -48.4533 H         1 UNK         0.0903 
     63 H63        15.0125  -24.0036  -46.8611 H         1 UNK         0.0903 
     64 H64        16.2597  -23.5796  -48.0353 H         1 UNK         0.0903 
     65 H65        15.7460  -25.3998  -45.2792 H         1 UNK         0.3096 
     66 H66        17.1513  -27.8166  -45.7842 H         1 UNK         0.1121 
     67 H67        17.4284  -27.6955  -43.1385 H         1 UNK         0.0849 
     68 H68        16.4653  -26.2723  -43.2397 H         1 UNK         0.0849 
     69 H69        15.0071  -30.6125  -43.5875 H         1 UNK         0.0865 
     70 H70        15.6761  -30.1283  -45.1197 H         1 UNK         0.0865 
     71 H71        18.0042  -30.3353  -45.4639 H         1 UNK         0.1346 
     72 H72        20.7233  -30.6778  -42.1690 H         1 UNK         0.1412 
     73 H73        16.5291  -30.1130  -41.4493 H         1 UNK         0.1426 
     74 H74        19.2391  -31.3897  -39.8331 H         1 UNK         0.0716 
     75 H75        17.9700  -30.2148  -39.5973 H         1 UNK         0.0716 
     76 H76        19.0182  -27.0142  -39.4912 H         1 UNK         0.0695 
     77 H77        18.7053  -27.8145  -40.9985 H         1 UNK         0.0695 
     78 H78        21.3845  -27.5106  -41.3306 H         1 UNK         0.0983 
     79 H79        19.2107  -25.8434  -42.2204 H         1 UNK         0.3095 
     80 H80        20.2075  -23.8228  -43.8936 H         1 UNK         0.0454 
     81 H81        21.5307  -25.6927  -45.9278 H         1 UNK         0.0851 
     82 H82        22.1970  -24.2044  -45.2797 H         1 UNK         0.0851 
     83 H83        20.7835  -24.1442  -46.3195 H         1 UNK         0.0851 
     84 H84        18.2511  -24.7001  -44.4536 H         1 UNK         0.2976 
     85 H85        22.4736  -27.3277  -39.3290 H         1 UNK         0.3116 
     86 H86        23.8106  -26.3672  -37.8493 H         1 UNK         0.0646 
     87 H87        22.1233  -23.8131  -37.8220 H         1 UNK         0.0847 
     88 H88        23.3350  -24.3003  -36.6531 H         1 UNK         0.0847 
     89 H89        21.8387  -25.2099  -36.7826 H         1 UNK         0.0847 
     90 H90        24.1738  -26.4133  -40.5889 H         1 UNK         0.3040 
     91 H91        26.5527  -24.8669  -40.8525 H         1 UNK         0.1015 
     92 H92        24.2790  -24.2138  -42.8282 H         1 UNK         0.0786 
     93 H93        25.9678  -23.7778  -43.0487 H         1 UNK         0.0786 
     94 H94        25.0496  -23.0834  -41.7228 H         1 UNK         0.0786 
     95 H95        24.0093  -26.5006  -42.7712 H         1 UNK         0.3172 
     96 H96        25.7194  -28.9123  -43.1498 H         1 UNK         0.0595 
     97 H97        23.7549  -29.7673  -44.3839 H         1 UNK         0.0839 
     98 H98        24.1820  -28.1991  -45.0420 H         1 UNK         0.0839 
     99 H99        22.8068  -28.3491  -43.9522 H         1 UNK         0.0839 
    100 H100       24.4910  -30.9893  -42.3218 H         1 UNK         0.2998 
    101 H101       22.7066  -30.6140  -40.0745 H         1 UNK         0.0822 
    102 H102       24.2333  -31.7456  -38.4232 H         1 UNK         0.0787 
    103 H103       25.5503  -31.6808  -39.5878 H         1 UNK         0.0787 
    104 H104       24.8821  -30.1920  -38.9199 H         1 UNK         0.0787 
    105 H105       21.6714  -32.4715  -39.5397 H         1 UNK         0.3055 
    106 H106       20.6661  -34.4067  -39.7012 H         1 UNK         0.1106 
    107 H107       21.9565  -36.4896  -40.1318 H         1 UNK         0.0828 
    108 H108       23.3399  -35.5516  -40.6714 H         1 UNK         0.0828 
    109 H109       22.7896  -35.4345  -39.0042 H         1 UNK         0.0828 
    110 H110       22.7067  -34.4878  -42.6247 H         1 UNK         0.2931 
    111 H111       22.3456  -34.8742  -44.7661 H         1 UNK         0.0412 
    112 H112       21.2033  -37.1007  -43.0077 H         1 UNK         0.3472 
    113 H113       20.1825  -37.9703  -44.1276 H         1 UNK         0.3472 
    114 H114       19.7576  -33.3096  -44.3501 H         1 UNK         0.0970 
    115 H115       20.5426  -33.5633  -45.8904 H         1 UNK         0.0970 
    116 H116       21.1755  -29.7154  -44.9221 H         1 UNK         0.0612 
    117 H117       20.2529  -30.7913  -45.9360 H         1 UNK         0.0612 
@<TRIPOS>BOND
     1    1    2 1    
     2    1   62 1    
     3    1   63 1    
     4    1   64 1    
     5    2    3 2    
     6    2    4 am   BACKBONE|DICT|INTERRES
     7    4    5 1    
     8    4   65 1    
     9    5    6 1    
    10    5   25 1    
    11    5   66 1    
    12    6    7 1    
    13    6   67 1    
    14    6   68 1    
    15    7    8 1    
    16    8    9 1    
    17    8   69 1    
    18    8   70 1    
    19    9   10 ar   
    20    9   14 ar   
    21   10   11 ar   
    22   10   71 1    
    23   11   12 ar   
    24   11   61 1    
    25   12   13 ar   
    26   12   72 1    
    27   13   14 ar   
    28   13   15 1    
    29   14   73 1    
    30   15   16 1    
    31   15   74 1    
    32   15   75 1    
    33   16   17 1    
    34   17   18 1    
    35   17   76 1    
    36   17   77 1    
    37   18   19 1    
    38   18   27 1    
    39   18   78 1    
    40   19   20 am   BACKBONE|DICT|INTERRES
    41   19   79 1    
    42   20   21 2    
    43   20   22 1    
    44   22   23 1    
    45   22   24 1    
    46   22   80 1    
    47   23   81 1    
    48   23   82 1    
    49   23   83 1    
    50   24   25 am   BACKBONE|DICT|INTERRES
    51   24   84 1    
    52   25   26 2    
    53   27   28 2    
    54   27   29 am   BACKBONE|DICT|INTERRES
    55   29   30 1    
    56   29   85 1    
    57   30   31 1    
    58   30   32 1    
    59   30   86 1    
    60   31   87 1    
    61   31   88 1    
    62   31   89 1    
    63   32   33 2    
    64   32   34 am   BACKBONE|DICT|INTERRES
    65   34   35 1    
    66   34   90 1    
    67   35   36 1    
    68   35   37 1    
    69   35   91 1    
    70   36   92 1    
    71   36   93 1    
    72   36   94 1    
    73   37   38 2    
    74   37   39 am   BACKBONE|DICT|INTERRES
    75   39   40 1    
    76   39   95 1    
    77   40   41 1    
    78   40   42 1    
    79   40   96 1    
    80   41   97 1    
    81   41   98 1    
    82   41   99 1    
    83   42   43 2    
    84   42   44 am   BACKBONE|DICT|INTERRES
    85   44   45 1    
    86   44  100 1    
    87   45   46 1    
    88   45   47 1    
    89   45  101 1    
    90   46  102 1    
    91   46  103 1    
    92   46  104 1    
    93   47   48 2    
    94   47   49 am   BACKBONE|DICT|INTERRES
    95   49   50 1    
    96   49  105 1    
    97   50   51 1    
    98   50   52 1    
    99   50  106 1    
   100   51  107 1    
   101   51  108 1    
   102   51  109 1    
   103   52   53 2    
   104   52   54 am   BACKBONE|DICT|INTERRES
   105   54   55 1    
   106   54  110 1    
   107   55   56 1    
   108   55   59 1    
   109   55  111 1    
   110   56   57 am   BACKBONE|DICT|INTERRES
   111   56   58 2    
   112   57  112 1    
   113   57  113 1    
   114   59   60 1    
   115   59  114 1    
   116   59  115 1    
   117   60   61 1    
   118   61  116 1    
   119   61  117 1    
@<TRIPOS>SUBSTRUCTURE
     1 UNK         1 GROUP             0       ****    0 ROOT    
