@<TRIPOS>MOLECULE
3R8
117   119    1
SMALL
USER_CHARGES


@<TRIPOS>ATOM
      1 CA         17.0319  -28.6125  -48.9844 C.3       0 UNK        -0.2013 
      2 C          17.5048  -28.6117  -47.5390 C.2       0 UNK         0.4866 
      3 O          18.4414  -29.3358  -47.2023 O.2       0 UNK        -0.5176 
      4 N          16.8617  -27.8131  -46.6801 N.am      1 UNK        -0.4884 
      5 CA         17.2134  -27.6614  -45.2660 C.3       1 UNK         0.0853 
      6 C6         16.0512  -27.0557  -44.4369 C.3       10 UNK        -0.0849 
      7 S7         14.5163  -28.0372  -44.5529 S.3       10 UNK        -0.2776 
      8 C8         14.3827  -28.7440  -42.8746 C.3       10 UNK         0.0316 
      9 C9         15.5323  -29.6747  -42.4936 C.ar      10 UNK        -0.0863 
     10 C10        16.0555  -30.5956  -43.4075 C.ar      10 UNK        -0.1009 
     11 C11        17.0993  -31.4543  -43.0510 C.ar      10 UNK        -0.0712 
     12 C12        17.5900  -31.4155  -41.7382 C.ar      10 UNK        -0.0894 
     13 C13        17.0686  -30.5112  -40.8074 C.ar      10 UNK        -0.0745 
     14 C14        16.0468  -29.6393  -41.1947 C.ar      10 UNK        -0.0972 
     15 C15        17.5791  -30.4978  -39.3708 C.3       10 UNK         0.0209 
     16 S16        19.3345  -30.0286  -39.2341 S.3       10 UNK        -0.2568 
     17 C17        19.3291  -28.3051  -39.8288 C.3       10 UNK        -0.0983 
     18 CA         20.6431  -27.9561  -40.5819 C.3       3 UNK         0.0876 
     19 N          20.3748  -27.3101  -41.8726 N.am      3 UNK        -0.4424 
     20 C          21.2953  -27.0184  -42.8043 C.2       2 UNK         0.4918 
     21 O          22.5079  -27.0778  -42.6031 O.2       2 UNK        -0.4875 
     22 CA         20.7658  -26.6106  -44.1882 C.3       2 UNK         0.0481 
     23 CB         21.7812  -26.8691  -45.3182 C.3       2 UNK        -0.1831 
     24 N          19.5138  -27.3137  -44.4765 N.am      2 UNK        -0.4498 
     25 C          18.4759  -26.7884  -45.1368 C.2       1 UNK         0.5027 
     26 O          18.4721  -25.6522  -45.6173 O.2       1 UNK        -0.4969 
     27 C          21.6335  -27.1870  -39.6787 C.2       3 UNK         0.5005 
     28 O          22.3712  -27.8105  -38.9133 O.2       3 UNK        -0.5279 
     29 N          21.6665  -25.8530  -39.8156 N.am      4 UNK        -0.4463 
     30 CA         22.6103  -24.9601  -39.1382 C.3       4 UNK         0.0283 
     31 CB         22.2136  -23.5006  -39.4105 C.3       4 UNK        -0.1875 
     32 C          24.0812  -25.1966  -39.5305 C.2       4 UNK         0.4949 
     33 O          24.9657  -24.9433  -38.7126 O.2       4 UNK        -0.5039 
     34 N          24.3309  -25.7094  -40.7441 N.am      5 UNK        -0.4663 
     35 CA         25.6597  -26.0626  -41.2488 C.3       5 UNK         0.0242 
     36 CB         25.6876  -25.8686  -42.7770 C.3       5 UNK        -0.1982 
     37 C          26.0513  -27.4894  -40.8186 C.2       5 UNK         0.5017 
     38 O          26.3927  -28.3159  -41.6647 O.2       5 UNK        -0.5012 
     39 N          25.9853  -27.7457  -39.5038 N.am      6 UNK        -0.4439 
     40 CA         26.3206  -28.9990  -38.8175 C.3       6 UNK         0.0297 
     41 CB         27.8418  -29.2566  -38.8770 C.3       6 UNK        -0.2006 
     42 C          25.4870  -30.2027  -39.3030 C.2       6 UNK         0.4892 
     43 O          26.0506  -31.2466  -39.6377 O.2       6 UNK        -0.5089 
     44 N          24.1565  -30.0299  -39.3156 N.am      7 UNK        -0.4243 
     45 CA         23.1397  -31.0248  -39.6801 C.3       7 UNK         0.0196 
     46 CB         23.1360  -32.2064  -38.6857 C.3       7 UNK        -0.2007 
     47 C          23.2042  -31.4727  -41.1539 C.2       7 UNK         0.5020 
     48 O          22.9286  -32.6364  -41.4519 O.2       7 UNK        -0.5147 
     49 N          23.5651  -30.5497  -42.0559 N.am      8 UNK        -0.4734 
     50 CA         23.5885  -30.7860  -43.5005 C.3       8 UNK         0.0238 
     51 CB         24.4263  -29.6932  -44.1831 C.3       8 UNK        -0.1912 
     52 C          22.1701  -30.8307  -44.0942 C.2       8 UNK         0.5038 
     53 O          21.2842  -30.1110  -43.6275 O.2       8 UNK        -0.5046 
     54 N          22.0037  -31.6480  -45.1375 N.am      9 UNK        -0.4200 
     55 CA         20.7701  -31.8031  -45.9152 C.3       9 UNK         0.0839 
     56 C          21.1351  -31.8198  -47.4181 C.2       9 UNK         0.5513 
     57 N          20.4261  -31.0639  -48.2419 N.am      9 UNK        -0.7519 
     58 O          22.0398  -32.5360  -47.8438 O.2       9 UNK        -0.4960 
     59 C59        19.9888  -33.0866  -45.5230 C.3       10 UNK        -0.0876 
     60 S60        19.3377  -33.0165  -43.8201 S.3       10 UNK        -0.2414 
     61 C61        17.6406  -32.4113  -44.1142 C.3       10 UNK         0.0169 
     62 H62        17.8414  -28.2992  -49.6431 H         1 UNK         0.0903 
     63 H63        16.7235  -29.6159  -49.2766 H         1 UNK         0.0903 
     64 H64        16.1885  -27.9396  -49.1383 H         1 UNK         0.0903 
     65 H65        16.1041  -27.2298  -47.0056 H         1 UNK         0.3096 
     66 H66        17.4360  -28.6523  -44.8646 H         1 UNK         0.1121 
     67 H67        16.3396  -26.9619  -43.3881 H         1 UNK         0.0849 
     68 H68        15.8235  -26.0433  -44.7767 H         1 UNK         0.0849 
     69 H69        14.2982  -27.9235  -42.1600 H         1 UNK         0.0865 
     70 H70        13.4496  -29.3048  -42.8072 H         1 UNK         0.0865 
     71 H71        15.6528  -30.6390  -44.4105 H         1 UNK         0.1346 
     72 H72        18.3795  -32.0852  -41.4280 H         1 UNK         0.1412 
     73 H73        15.6369  -28.9436  -40.4749 H         1 UNK         0.1426 
     74 H74        17.4507  -31.4934  -38.9438 H         1 UNK         0.0716 
     75 H75        16.9864  -29.8230  -38.7512 H         1 UNK         0.0716 
     76 H76        18.4676  -28.1755  -40.4842 H         1 UNK         0.0695 
     77 H77        19.1436  -27.6405  -38.9824 H         1 UNK         0.0695 
     78 H78        21.1501  -28.8831  -40.8564 H         1 UNK         0.0983 
     79 H79        19.4033  -27.1970  -42.1186 H         1 UNK         0.3095 
     80 H80        20.5808  -25.5361  -44.1318 H         1 UNK         0.0454 
     81 H81        22.7200  -26.3448  -45.1350 H         1 UNK         0.0851 
     82 H82        21.4007  -26.5228  -46.2790 H         1 UNK         0.0851 
     83 H83        22.0101  -27.9308  -45.4131 H         1 UNK         0.0851 
     84 H84        19.4727  -28.2726  -44.1512 H         1 UNK         0.2976 
     85 H85        21.0298  -25.4291  -40.4747 H         1 UNK         0.3116 
     86 H86        22.5259  -25.1429  -38.0649 H         1 UNK         0.0646 
     87 H87        22.2582  -23.2607  -40.4737 H         1 UNK         0.0847 
     88 H88        21.2036  -23.2897  -39.0587 H         1 UNK         0.0847 
     89 H89        22.8838  -22.8119  -38.8938 H         1 UNK         0.0847 
     90 H90        23.5506  -25.9828  -41.3346 H         1 UNK         0.3040 
     91 H91        26.4022  -25.3852  -40.8208 H         1 UNK         0.1015 
     92 H92        26.6851  -26.0574  -43.1757 H         1 UNK         0.0786 
     93 H93        25.4168  -24.8494  -43.0527 H         1 UNK         0.0786 
     94 H94        25.0020  -26.5461  -43.2856 H         1 UNK         0.0786 
     95 H95        25.6703  -26.9858  -38.9106 H         1 UNK         0.3172 
     96 H96        26.0561  -28.8516  -37.7693 H         1 UNK         0.0595 
     97 H97        28.1819  -29.4424  -39.8964 H         1 UNK         0.0839 
     98 H98        28.1139  -30.1285  -38.2807 H         1 UNK         0.0839 
     99 H99        28.4044  -28.4095  -38.4848 H         1 UNK         0.0839 
    100 H100       23.7795  -29.1234  -39.0470 H         1 UNK         0.2998 
    101 H101       22.1821  -30.5207  -39.5673 H         1 UNK         0.0822 
    102 H102       22.2817  -32.8612  -38.8623 H         1 UNK         0.0787 
    103 H103       23.0656  -31.8574  -37.6556 H         1 UNK         0.0787 
    104 H104       24.0357  -32.8158  -38.7750 H         1 UNK         0.0787 
    105 H105       23.7718  -29.6109  -41.7461 H         1 UNK         0.3055 
    106 H106       24.0711  -31.7499  -43.6782 H         1 UNK         0.1106 
    107 H107       25.4540  -29.6975  -43.8198 H         1 UNK         0.0828 
    108 H108       24.4653  -29.8431  -45.2628 H         1 UNK         0.0828 
    109 H109       24.0148  -28.7001  -44.0077 H         1 UNK         0.0828 
    110 H110       22.7930  -32.1661  -45.4979 H         1 UNK         0.2931 
    111 H111       20.1226  -30.9411  -45.7401 H         1 UNK         0.0412 
    112 H112       20.6389  -31.0676  -49.2266 H         1 UNK         0.3472 
    113 H113       19.6886  -30.4589  -47.8819 H         1 UNK         0.3472 
    114 H114       19.1609  -33.2632  -46.2125 H         1 UNK         0.0970 
    115 H115       20.6340  -33.9632  -45.6049 H         1 UNK         0.0970 
    116 H116       17.6158  -31.9012  -45.0788 H         1 UNK         0.0612 
    117 H117       16.9714  -33.2685  -44.1970 H         1 UNK         0.0612 
@<TRIPOS>BOND
     1    1    2 1    
     2    1   62 1    
     3    1   63 1    
     4    1   64 1    
     5    2    3 2    
     6    2    4 am   BACKBONE|DICT|INTERRES
     7    4    5 1    
     8    4   65 1    
     9    5    6 1    
    10    5   25 1    
    11    5   66 1    
    12    6    7 1    
    13    6   67 1    
    14    6   68 1    
    15    7    8 1    
    16    8    9 1    
    17    8   69 1    
    18    8   70 1    
    19    9   10 ar   
    20    9   14 ar   
    21   10   11 ar   
    22   10   71 1    
    23   11   12 ar   
    24   11   61 1    
    25   12   13 ar   
    26   12   72 1    
    27   13   14 ar   
    28   13   15 1    
    29   14   73 1    
    30   15   16 1    
    31   15   74 1    
    32   15   75 1    
    33   16   17 1    
    34   17   18 1    
    35   17   76 1    
    36   17   77 1    
    37   18   19 1    
    38   18   27 1    
    39   18   78 1    
    40   19   20 am   BACKBONE|DICT|INTERRES
    41   19   79 1    
    42   20   21 2    
    43   20   22 1    
    44   22   23 1    
    45   22   24 1    
    46   22   80 1    
    47   23   81 1    
    48   23   82 1    
    49   23   83 1    
    50   24   25 am   BACKBONE|DICT|INTERRES
    51   24   84 1    
    52   25   26 2    
    53   27   28 2    
    54   27   29 am   BACKBONE|DICT|INTERRES
    55   29   30 1    
    56   29   85 1    
    57   30   31 1    
    58   30   32 1    
    59   30   86 1    
    60   31   87 1    
    61   31   88 1    
    62   31   89 1    
    63   32   33 2    
    64   32   34 am   BACKBONE|DICT|INTERRES
    65   34   35 1    
    66   34   90 1    
    67   35   36 1    
    68   35   37 1    
    69   35   91 1    
    70   36   92 1    
    71   36   93 1    
    72   36   94 1    
    73   37   38 2    
    74   37   39 am   BACKBONE|DICT|INTERRES
    75   39   40 1    
    76   39   95 1    
    77   40   41 1    
    78   40   42 1    
    79   40   96 1    
    80   41   97 1    
    81   41   98 1    
    82   41   99 1    
    83   42   43 2    
    84   42   44 am   BACKBONE|DICT|INTERRES
    85   44   45 1    
    86   44  100 1    
    87   45   46 1    
    88   45   47 1    
    89   45  101 1    
    90   46  102 1    
    91   46  103 1    
    92   46  104 1    
    93   47   48 2    
    94   47   49 am   BACKBONE|DICT|INTERRES
    95   49   50 1    
    96   49  105 1    
    97   50   51 1    
    98   50   52 1    
    99   50  106 1    
   100   51  107 1    
   101   51  108 1    
   102   51  109 1    
   103   52   53 2    
   104   52   54 am   BACKBONE|DICT|INTERRES
   105   54   55 1    
   106   54  110 1    
   107   55   56 1    
   108   55   59 1    
   109   55  111 1    
   110   56   57 am   BACKBONE|DICT|INTERRES
   111   56   58 2    
   112   57  112 1    
   113   57  113 1    
   114   59   60 1    
   115   59  114 1    
   116   59  115 1    
   117   60   61 1    
   118   61  116 1    
   119   61  117 1    
@<TRIPOS>SUBSTRUCTURE
     1 UNK         1 GROUP             0       ****    0 ROOT    
