@<TRIPOS>MOLECULE
3R8
117   119    1
SMALL
USER_CHARGES


@<TRIPOS>ATOM
      1 CA         21.9051  -24.2640  -49.9703 C.3       0 UNK        -0.2013 
      2 C          20.9398  -25.0681  -49.1116 C.2       0 UNK         0.4866 
      3 O          19.7456  -25.0936  -49.4069 O.2       0 UNK        -0.5176 
      4 N          21.4594  -25.7248  -48.0644 N.am      1 UNK        -0.4884 
      5 CA         20.7359  -26.5234  -47.0675 C.3       1 UNK         0.0853 
      6 C6         19.9709  -27.7328  -47.6750 C.3       10 UNK        -0.0849 
      7 S7         19.7065  -29.0424  -46.4325 S.3       10 UNK        -0.2776 
      8 C8         17.9071  -28.9459  -46.1410 C.3       10 UNK         0.0316 
      9 C9         17.5245  -29.5020  -44.7735 C.ar      10 UNK        -0.0863 
     10 C10        17.8986  -30.7992  -44.4064 C.ar      10 UNK        -0.1009 
     11 C11        17.5908  -31.2958  -43.1375 C.ar      10 UNK        -0.0712 
     12 C12        16.8787  -30.4976  -42.2395 C.ar      10 UNK        -0.0894 
     13 C13        16.5015  -29.1971  -42.5878 C.ar      10 UNK        -0.0745 
     14 C14        16.8121  -28.7114  -43.8638 C.ar      10 UNK        -0.0972 
     15 C15        15.8013  -28.3079  -41.5659 C.3       10 UNK         0.0209 
     16 S16        16.8127  -28.0585  -40.0628 S.3       10 UNK        -0.2568 
     17 C17        17.9351  -26.6958  -40.5367 C.3       10 UNK        -0.0983 
     18 CA         19.0588  -27.1137  -41.5314 C.3       3 UNK         0.0876 
     19 N          19.5939  -26.0160  -42.3313 N.am      3 UNK        -0.4424 
     20 C          18.9227  -25.2602  -43.2072 C.2       2 UNK         0.4918 
     21 O          17.7057  -25.3164  -43.3821 O.2       2 UNK        -0.4875 
     22 CA         19.7678  -24.3080  -44.0727 C.3       2 UNK         0.0481 
     23 CB         20.7855  -23.5003  -43.2446 C.3       2 UNK        -0.1831 
     24 N          20.4606  -25.0528  -45.1268 N.am      2 UNK        -0.4498 
     25 C          19.8502  -25.6289  -46.1738 C.2       1 UNK         0.5027 
     26 O          18.6591  -25.4649  -46.4453 O.2       1 UNK        -0.4969 
     27 C          20.2449  -27.8469  -40.8812 C.2       3 UNK         0.5005 
     28 O          21.3973  -27.5383  -41.2027 O.2       3 UNK        -0.5279 
     29 N          19.9513  -28.8036  -39.9910 N.am      4 UNK        -0.4463 
     30 CA         20.8683  -29.7614  -39.3525 C.3       4 UNK         0.0283 
     31 CB         20.0529  -30.6559  -38.4040 C.3       4 UNK        -0.1875 
     32 C          22.0903  -29.1750  -38.6157 C.2       4 UNK         0.4949 
     33 O          23.0165  -29.9228  -38.3038 O.2       4 UNK        -0.5039 
     34 N          22.0936  -27.8607  -38.3588 N.am      5 UNK        -0.4663 
     35 CA         23.2570  -27.1125  -37.8769 C.3       5 UNK         0.0242 
     36 CB         22.7986  -25.7200  -37.4143 C.3       5 UNK        -0.1982 
     37 C          24.3776  -26.9868  -38.9302 C.2       5 UNK         0.5017 
     38 O          25.5348  -26.8127  -38.5460 O.2       5 UNK        -0.5012 
     39 N          24.0206  -27.0648  -40.2203 N.am      6 UNK        -0.4439 
     40 CA         24.9355  -26.9769  -41.3615 C.3       6 UNK         0.0297 
     41 CB         24.6748  -25.6619  -42.1154 C.3       6 UNK        -0.2006 
     42 C          24.7993  -28.1746  -42.3169 C.2       6 UNK         0.4892 
     43 O          25.7994  -28.5743  -42.9149 O.2       6 UNK        -0.5089 
     44 N          23.5810  -28.7129  -42.4674 N.am      7 UNK        -0.4243 
     45 CA         23.2646  -29.8563  -43.3248 C.3       7 UNK         0.0196 
     46 CB         21.7392  -29.9334  -43.5002 C.3       7 UNK        -0.2007 
     47 C          23.8086  -31.1802  -42.7625 C.2       7 UNK         0.5020 
     48 O          24.0462  -31.2971  -41.5585 O.2       7 UNK        -0.5147 
     49 N          23.9497  -32.1767  -43.6477 N.am      8 UNK        -0.4734 
     50 CA         24.4853  -33.5134  -43.3486 C.3       8 UNK         0.0238 
     51 CB         24.6296  -34.3017  -44.6610 C.3       8 UNK        -0.1912 
     52 C          23.6727  -34.3258  -42.3216 C.2       8 UNK         0.5038 
     53 O          24.2269  -35.2370  -41.7052 O.2       8 UNK        -0.5046 
     54 N          22.3920  -33.9785  -42.1481 N.am      9 UNK        -0.4200 
     55 CA         21.5130  -34.4850  -41.0850 C.3       9 UNK         0.0839 
     56 C          21.8567  -33.9687  -39.6543 C.2       9 UNK         0.5513 
     57 N          22.7276  -32.9798  -39.4880 N.am      9 UNK        -0.7519 
     58 O          21.3269  -34.4881  -38.6754 O.2       9 UNK        -0.4960 
     59 C59        20.0176  -34.2684  -41.4393 C.3       10 UNK        -0.0876 
     60 S60        19.6053  -32.5183  -41.7493 S.3       10 UNK        -0.2414 
     61 C61        18.0743  -32.6719  -42.7138 C.3       10 UNK         0.0169 
     62 H62        21.6166  -23.2132  -49.9747 H         1 UNK         0.0903 
     63 H63        22.9308  -24.3319  -49.6083 H         1 UNK         0.0903 
     64 H64        21.8844  -24.6268  -50.9977 H         1 UNK         0.0903 
     65 H65        22.4532  -25.6416  -47.8961 H         1 UNK         0.3096 
     66 H66        21.5171  -26.9359  -46.4257 H         1 UNK         0.1121 
     67 H67        19.0277  -27.4342  -48.1363 H         1 UNK         0.0849 
     68 H68        20.5623  -28.1750  -48.4781 H         1 UNK         0.0849 
     69 H69        17.5790  -27.9095  -46.2291 H         1 UNK         0.0865 
     70 H70        17.3846  -29.5034  -46.9194 H         1 UNK         0.0865 
     71 H71        18.4620  -31.4098  -45.0988 H         1 UNK         0.1346 
     72 H72        16.6560  -30.8741  -41.2503 H         1 UNK         0.1412 
     73 H73        16.5328  -27.7013  -44.1334 H         1 UNK         0.1426 
     74 H74        14.8607  -28.7804  -41.2800 H         1 UNK         0.0716 
     75 H75        15.5415  -27.3392  -41.9960 H         1 UNK         0.0716 
     76 H76        18.3647  -26.2627  -39.6315 H         1 UNK         0.0695 
     77 H77        17.3068  -25.9092  -40.9530 H         1 UNK         0.0695 
     78 H78        18.6662  -27.8206  -42.2546 H         1 UNK         0.0983 
     79 H79        20.6014  -25.9429  -42.2662 H         1 UNK         0.3095 
     80 H80        19.0866  -23.5955  -44.5430 H         1 UNK         0.0454 
     81 H81        21.2688  -22.7378  -43.8557 H         1 UNK         0.0851 
     82 H82        21.5701  -24.1252  -42.8179 H         1 UNK         0.0851 
     83 H83        20.2934  -22.9835  -42.4195 H         1 UNK         0.0851 
     84 H84        21.4486  -25.2117  -44.9928 H         1 UNK         0.2976 
     85 H85        18.9681  -28.9419  -39.7910 H         1 UNK         0.3116 
     86 H86        21.2690  -30.3924  -40.1477 H         1 UNK         0.0646 
     87 H87        19.5893  -30.0775  -37.6042 H         1 UNK         0.0847 
     88 H88        20.6846  -31.4122  -37.9358 H         1 UNK         0.0847 
     89 H89        19.2648  -31.1876  -38.9373 H         1 UNK         0.0847 
     90 H90        21.2881  -27.3227  -38.6425 H         1 UNK         0.3040 
     91 H91        23.6739  -27.6428  -37.0176 H         1 UNK         0.1015 
     92 H92        22.3633  -25.1450  -38.2328 H         1 UNK         0.0786 
     93 H93        23.6379  -25.1438  -37.0218 H         1 UNK         0.0786 
     94 H94        22.0562  -25.7899  -36.6190 H         1 UNK         0.0786 
     95 H95        23.0386  -27.2203  -40.4364 H         1 UNK         0.3172 
     96 H96        25.9703  -26.9687  -41.0131 H         1 UNK         0.0595 
     97 H97        23.6531  -25.6098  -42.4928 H         1 UNK         0.0839 
     98 H98        25.3454  -25.5613  -42.9699 H         1 UNK         0.0839 
     99 H99        24.8389  -24.7977  -41.4715 H         1 UNK         0.0839 
    100 H100       22.7993  -28.3189  -41.9506 H         1 UNK         0.2998 
    101 H101       23.7209  -29.6810  -44.3014 H         1 UNK         0.0822 
    102 H102       21.4572  -30.7137  -44.2081 H         1 UNK         0.0787 
    103 H103       21.2371  -30.1541  -42.5590 H         1 UNK         0.0787 
    104 H104       21.3345  -28.9944  -43.8777 H         1 UNK         0.0787 
    105 H105       23.7094  -31.9990  -44.6130 H         1 UNK         0.3055 
    106 H106       25.4806  -33.3761  -42.9201 H         1 UNK         0.1106 
    107 H107       23.6670  -34.4469  -45.1529 H         1 UNK         0.0828 
    108 H108       25.2931  -33.7930  -45.3606 H         1 UNK         0.0828 
    109 H109       25.0539  -35.2903  -44.4788 H         1 UNK         0.0828 
    110 H110       22.0275  -33.2057  -42.6847 H         1 UNK         0.2931 
    111 H111       21.6664  -35.5651  -41.0427 H         1 UNK         0.0412 
    112 H112       23.1594  -32.5177  -40.2817 H         1 UNK         0.3472 
    113 H113       22.9315  -32.6487  -38.5587 H         1 UNK         0.3472 
    114 H114       19.3686  -34.6521  -40.6497 H         1 UNK         0.0970 
    115 H115       19.7733  -34.8486  -42.3304 H         1 UNK         0.0970 
    116 H116       17.3120  -33.1713  -42.1140 H         1 UNK         0.0612 
    117 H117       18.2522  -33.3004  -43.5878 H         1 UNK         0.0612 
@<TRIPOS>BOND
     1    1    2 1    
     2    1   62 1    
     3    1   63 1    
     4    1   64 1    
     5    2    3 2    
     6    2    4 am   BACKBONE|DICT|INTERRES
     7    4    5 1    
     8    4   65 1    
     9    5    6 1    
    10    5   25 1    
    11    5   66 1    
    12    6    7 1    
    13    6   67 1    
    14    6   68 1    
    15    7    8 1    
    16    8    9 1    
    17    8   69 1    
    18    8   70 1    
    19    9   10 ar   
    20    9   14 ar   
    21   10   11 ar   
    22   10   71 1    
    23   11   12 ar   
    24   11   61 1    
    25   12   13 ar   
    26   12   72 1    
    27   13   14 ar   
    28   13   15 1    
    29   14   73 1    
    30   15   16 1    
    31   15   74 1    
    32   15   75 1    
    33   16   17 1    
    34   17   18 1    
    35   17   76 1    
    36   17   77 1    
    37   18   19 1    
    38   18   27 1    
    39   18   78 1    
    40   19   20 am   BACKBONE|DICT|INTERRES
    41   19   79 1    
    42   20   21 2    
    43   20   22 1    
    44   22   23 1    
    45   22   24 1    
    46   22   80 1    
    47   23   81 1    
    48   23   82 1    
    49   23   83 1    
    50   24   25 am   BACKBONE|DICT|INTERRES
    51   24   84 1    
    52   25   26 2    
    53   27   28 2    
    54   27   29 am   BACKBONE|DICT|INTERRES
    55   29   30 1    
    56   29   85 1    
    57   30   31 1    
    58   30   32 1    
    59   30   86 1    
    60   31   87 1    
    61   31   88 1    
    62   31   89 1    
    63   32   33 2    
    64   32   34 am   BACKBONE|DICT|INTERRES
    65   34   35 1    
    66   34   90 1    
    67   35   36 1    
    68   35   37 1    
    69   35   91 1    
    70   36   92 1    
    71   36   93 1    
    72   36   94 1    
    73   37   38 2    
    74   37   39 am   BACKBONE|DICT|INTERRES
    75   39   40 1    
    76   39   95 1    
    77   40   41 1    
    78   40   42 1    
    79   40   96 1    
    80   41   97 1    
    81   41   98 1    
    82   41   99 1    
    83   42   43 2    
    84   42   44 am   BACKBONE|DICT|INTERRES
    85   44   45 1    
    86   44  100 1    
    87   45   46 1    
    88   45   47 1    
    89   45  101 1    
    90   46  102 1    
    91   46  103 1    
    92   46  104 1    
    93   47   48 2    
    94   47   49 am   BACKBONE|DICT|INTERRES
    95   49   50 1    
    96   49  105 1    
    97   50   51 1    
    98   50   52 1    
    99   50  106 1    
   100   51  107 1    
   101   51  108 1    
   102   51  109 1    
   103   52   53 2    
   104   52   54 am   BACKBONE|DICT|INTERRES
   105   54   55 1    
   106   54  110 1    
   107   55   56 1    
   108   55   59 1    
   109   55  111 1    
   110   56   57 am   BACKBONE|DICT|INTERRES
   111   56   58 2    
   112   57  112 1    
   113   57  113 1    
   114   59   60 1    
   115   59  114 1    
   116   59  115 1    
   117   60   61 1    
   118   61  116 1    
   119   61  117 1    
@<TRIPOS>SUBSTRUCTURE
     1 UNK         1 GROUP             0       ****    0 ROOT    
