@<TRIPOS>MOLECULE
3R8
117   119    1
SMALL
USER_CHARGES


@<TRIPOS>ATOM
      1 CA         15.1766  -23.6183  -43.1650 C.3       0 UNK        -0.2013 
      2 C          16.0414  -24.8390  -43.4411 C.2       0 UNK         0.4866 
      3 O          16.9851  -24.7540  -44.2273 O.2       0 UNK        -0.5176 
      4 N          15.7236  -25.9736  -42.8045 N.am      1 UNK        -0.4884 
      5 CA         16.4574  -27.2377  -42.9142 C.3       1 UNK         0.0853 
      6 C6         15.6032  -28.4410  -42.4427 C.3       10 UNK        -0.0849 
      7 S7         14.3321  -28.8482  -43.6862 S.3       10 UNK        -0.2776 
      8 C8         15.0168  -30.3585  -44.4508 C.3       10 UNK         0.0316 
      9 C9         16.4615  -30.1944  -44.9135 C.ar      10 UNK        -0.0863 
     10 C10        17.4813  -30.9306  -44.3004 C.ar      10 UNK        -0.1009 
     11 C11        18.8061  -30.7969  -44.7241 C.ar      10 UNK        -0.0712 
     12 C12        19.1095  -29.9185  -45.7669 C.ar      10 UNK        -0.0894 
     13 C13        18.1032  -29.1720  -46.3858 C.ar      10 UNK        -0.0745 
     14 C14        16.7788  -29.3204  -45.9593 C.ar      10 UNK        -0.0972 
     15 C15        18.4388  -28.2306  -47.5347 C.3       10 UNK         0.0209 
     16 S16        19.0124  -26.6054  -46.9458 S.3       10 UNK        -0.2568 
     17 C17        20.8216  -26.8555  -46.8766 C.3       10 UNK        -0.0983 
     18 CA         21.5406  -25.8385  -45.9477 C.3       3 UNK         0.0876 
     19 N          20.9686  -25.8331  -44.5892 N.am      3 UNK        -0.4424 
     20 C          21.1358  -26.7739  -43.6468 C.2       2 UNK         0.4918 
     21 O          21.9462  -27.6934  -43.7249 O.2       2 UNK        -0.4875 
     22 CA         20.2242  -26.6876  -42.4241 C.3       2 UNK         0.0481 
     23 CB         20.4723  -25.4102  -41.6001 C.3       2 UNK        -0.1831 
     24 N          18.8455  -26.7654  -42.8864 N.am      2 UNK        -0.4498 
     25 C          17.7935  -27.1467  -42.1561 C.2       1 UNK         0.5027 
     26 O          17.8372  -27.4002  -40.9491 O.2       1 UNK        -0.4969 
     27 C          23.0824  -26.0098  -45.9763 C.2       3 UNK         0.5005 
     28 O          23.6125  -26.6749  -46.8677 O.2       3 UNK        -0.5279 
     29 N          23.7657  -25.4438  -44.9679 N.am      4 UNK        -0.4463 
     30 CA         25.2035  -25.5400  -44.6646 C.3       4 UNK         0.0283 
     31 CB         26.0695  -25.0363  -45.8382 C.3       4 UNK        -0.1875 
     32 C          25.6832  -26.9178  -44.1535 C.2       4 UNK         0.4949 
     33 O          26.8354  -27.0184  -43.7308 O.2       4 UNK        -0.5039 
     34 N          24.8149  -27.9386  -44.1509 N.am      5 UNK        -0.4663 
     35 CA         25.0515  -29.2383  -43.5128 C.3       5 UNK         0.0242 
     36 CB         24.2013  -30.3091  -44.2141 C.3       5 UNK        -0.1982 
     37 C          24.7518  -29.1785  -42.0035 C.2       5 UNK         0.5017 
     38 O          25.4495  -29.8240  -41.2198 O.2       5 UNK        -0.5012 
     39 N          23.7549  -28.3605  -41.6325 N.am      6 UNK        -0.4439 
     40 CA         23.3957  -27.9191  -40.2825 C.3       6 UNK         0.0297 
     41 CB         24.4445  -26.9103  -39.7630 C.3       6 UNK        -0.2006 
     42 C          23.1236  -29.0904  -39.3234 C.2       6 UNK         0.4892 
     43 O          22.0855  -29.7380  -39.4506 O.2       6 UNK        -0.5089 
     44 N          24.0528  -29.3487  -38.3922 N.am      7 UNK        -0.4243 
     45 CA         23.9759  -30.3987  -37.3707 C.3       7 UNK         0.0196 
     46 CB         25.1842  -30.2670  -36.4289 C.3       7 UNK        -0.2007 
     47 C          23.8788  -31.8331  -37.9246 C.2       7 UNK         0.5020 
     48 O          23.4449  -32.7252  -37.1954 O.2       7 UNK        -0.5147 
     49 N          24.2689  -32.0384  -39.1905 N.am      8 UNK        -0.4734 
     50 CA         24.1091  -33.3084  -39.9013 C.3       8 UNK         0.0238 
     51 CB         25.0253  -33.3123  -41.1349 C.3       8 UNK        -0.1912 
     52 C          22.6523  -33.6078  -40.3075 C.2       8 UNK         0.5038 
     53 O          22.3385  -34.7742  -40.5515 O.2       8 UNK        -0.5046 
     54 N          21.7980  -32.5779  -40.3927 N.am      9 UNK        -0.4200 
     55 CA         20.3758  -32.7071  -40.7429 C.3       9 UNK         0.0839 
     56 C          19.5358  -33.2568  -39.5606 C.2       9 UNK         0.5513 
     57 N          18.5201  -34.0613  -39.8441 N.am      9 UNK        -0.7519 
     58 O          19.7661  -32.9303  -38.3981 O.2       9 UNK        -0.4960 
     59 C59        19.7788  -31.3762  -41.2727 C.3       10 UNK        -0.0876 
     60 S60        20.7010  -30.7309  -42.7066 S.3       10 UNK        -0.2414 
     61 C61        19.9143  -31.6181  -44.0845 C.3       10 UNK         0.0169 
     62 H62        14.3793  -23.8343  -42.4539 H         1 UNK         0.0903 
     63 H63        15.7859  -22.8121  -42.7571 H         1 UNK         0.0903 
     64 H64        14.7203  -23.2660  -44.0897 H         1 UNK         0.0903 
     65 H65        14.9415  -25.9801  -42.1651 H         1 UNK         0.3096 
     66 H66        16.7003  -27.3940  -43.9675 H         1 UNK         0.1121 
     67 H67        15.1165  -28.2248  -41.4900 H         1 UNK         0.0849 
     68 H68        16.2213  -29.3227  -42.2631 H         1 UNK         0.0849 
     69 H69        14.9307  -31.1808  -43.7387 H         1 UNK         0.0865 
     70 H70        14.3971  -30.6337  -45.3054 H         1 UNK         0.0865 
     71 H71        17.2443  -31.6154  -43.4980 H         1 UNK         0.1346 
     72 H72        20.1334  -29.8282  -46.0990 H         1 UNK         0.1412 
     73 H73        15.9919  -28.7514  -46.4362 H         1 UNK         0.1426 
     74 H74        17.5568  -28.0791  -48.1587 H         1 UNK         0.0716 
     75 H75        19.1915  -28.6797  -48.1847 H         1 UNK         0.0716 
     76 H76        21.1984  -26.7778  -47.8982 H         1 UNK         0.0695 
     77 H77        21.0381  -27.8711  -46.5478 H         1 UNK         0.0695 
     78 H78        21.3578  -24.8427  -46.3550 H         1 UNK         0.0983 
     79 H79        20.2986  -25.0972  -44.4145 H         1 UNK         0.3095 
     80 H80        20.4312  -27.5578  -41.7970 H         1 UNK         0.0454 
     81 H81        19.9184  -25.4350  -40.6617 H         1 UNK         0.0851 
     82 H82        20.1697  -24.5110  -42.1375 H         1 UNK         0.0851 
     83 H83        21.5278  -25.3020  -41.3476 H         1 UNK         0.0851 
     84 H84        18.6997  -26.5697  -43.8708 H         1 UNK         0.2976 
     85 H85        23.2219  -24.9345  -44.2846 H         1 UNK         0.3116 
     86 H86        25.3637  -24.8525  -43.8326 H         1 UNK         0.0646 
     87 H87        26.0344  -25.7125  -46.6925 H         1 UNK         0.0847 
     88 H88        25.7499  -24.0503  -46.1752 H         1 UNK         0.0847 
     89 H89        27.1156  -24.9519  -45.5410 H         1 UNK         0.0847 
     90 H90        23.8722  -27.7689  -44.4827 H         1 UNK         0.3040 
     91 H91        26.1032  -29.5100  -43.6290 H         1 UNK         0.1015 
     92 H92        24.3332  -31.2863  -43.7507 H         1 UNK         0.0786 
     93 H93        24.4820  -30.4084  -45.2626 H         1 UNK         0.0786 
     94 H94        23.1389  -30.0705  -44.1784 H         1 UNK         0.0786 
     95 H95        23.1683  -28.0028  -42.3826 H         1 UNK         0.3172 
     96 H96        22.4496  -27.3858  -40.3741 H         1 UNK         0.0595 
     97 H97        25.4473  -27.3371  -39.7218 H         1 UNK         0.0839 
     98 H98        24.1905  -26.5528  -38.7639 H         1 UNK         0.0839 
     99 H99        24.4922  -26.0340  -40.4098 H         1 UNK         0.0839 
    100 H100       24.8888  -28.7826  -38.3928 H         1 UNK         0.2998 
    101 H101       23.0678  -30.2211  -36.7907 H         1 UNK         0.0822 
    102 H102       25.1430  -31.0121  -35.6330 H         1 UNK         0.0787 
    103 H103       25.2113  -29.2876  -35.9505 H         1 UNK         0.0787 
    104 H104       26.1262  -30.4097  -36.9602 H         1 UNK         0.0787 
    105 H105       24.6267  -31.2532  -39.7235 H         1 UNK         0.3055 
    106 H106       24.4295  -34.1158  -39.2385 H         1 UNK         0.1106 
    107 H107       26.0699  -33.1740  -40.8553 H         1 UNK         0.0828 
    108 H108       24.9561  -34.2592  -41.6723 H         1 UNK         0.0828 
    109 H109       24.7582  -32.5202  -41.8331 H         1 UNK         0.0828 
    110 H110       22.1024  -31.6473  -40.1272 H         1 UNK         0.2931 
    111 H111       20.3107  -33.4341  -41.5555 H         1 UNK         0.0412 
    112 H112       18.3185  -34.3348  -40.7935 H         1 UNK         0.3472 
    113 H113       17.9522  -34.4170  -39.0904 H         1 UNK         0.3472 
    114 H114       19.7907  -30.6135  -40.4919 H         1 UNK         0.0970 
    115 H115       18.7315  -31.5018  -41.5512 H         1 UNK         0.0970 
    116 H116       20.6799  -31.8431  -44.8287 H         1 UNK         0.0612 
    117 H117       19.5320  -32.5824  -43.7470 H         1 UNK         0.0612 
@<TRIPOS>BOND
     1    1    2 1    
     2    1   62 1    
     3    1   63 1    
     4    1   64 1    
     5    2    3 2    
     6    2    4 am   BACKBONE|DICT|INTERRES
     7    4    5 1    
     8    4   65 1    
     9    5    6 1    
    10    5   25 1    
    11    5   66 1    
    12    6    7 1    
    13    6   67 1    
    14    6   68 1    
    15    7    8 1    
    16    8    9 1    
    17    8   69 1    
    18    8   70 1    
    19    9   10 ar   
    20    9   14 ar   
    21   10   11 ar   
    22   10   71 1    
    23   11   12 ar   
    24   11   61 1    
    25   12   13 ar   
    26   12   72 1    
    27   13   14 ar   
    28   13   15 1    
    29   14   73 1    
    30   15   16 1    
    31   15   74 1    
    32   15   75 1    
    33   16   17 1    
    34   17   18 1    
    35   17   76 1    
    36   17   77 1    
    37   18   19 1    
    38   18   27 1    
    39   18   78 1    
    40   19   20 am   BACKBONE|DICT|INTERRES
    41   19   79 1    
    42   20   21 2    
    43   20   22 1    
    44   22   23 1    
    45   22   24 1    
    46   22   80 1    
    47   23   81 1    
    48   23   82 1    
    49   23   83 1    
    50   24   25 am   BACKBONE|DICT|INTERRES
    51   24   84 1    
    52   25   26 2    
    53   27   28 2    
    54   27   29 am   BACKBONE|DICT|INTERRES
    55   29   30 1    
    56   29   85 1    
    57   30   31 1    
    58   30   32 1    
    59   30   86 1    
    60   31   87 1    
    61   31   88 1    
    62   31   89 1    
    63   32   33 2    
    64   32   34 am   BACKBONE|DICT|INTERRES
    65   34   35 1    
    66   34   90 1    
    67   35   36 1    
    68   35   37 1    
    69   35   91 1    
    70   36   92 1    
    71   36   93 1    
    72   36   94 1    
    73   37   38 2    
    74   37   39 am   BACKBONE|DICT|INTERRES
    75   39   40 1    
    76   39   95 1    
    77   40   41 1    
    78   40   42 1    
    79   40   96 1    
    80   41   97 1    
    81   41   98 1    
    82   41   99 1    
    83   42   43 2    
    84   42   44 am   BACKBONE|DICT|INTERRES
    85   44   45 1    
    86   44  100 1    
    87   45   46 1    
    88   45   47 1    
    89   45  101 1    
    90   46  102 1    
    91   46  103 1    
    92   46  104 1    
    93   47   48 2    
    94   47   49 am   BACKBONE|DICT|INTERRES
    95   49   50 1    
    96   49  105 1    
    97   50   51 1    
    98   50   52 1    
    99   50  106 1    
   100   51  107 1    
   101   51  108 1    
   102   51  109 1    
   103   52   53 2    
   104   52   54 am   BACKBONE|DICT|INTERRES
   105   54   55 1    
   106   54  110 1    
   107   55   56 1    
   108   55   59 1    
   109   55  111 1    
   110   56   57 am   BACKBONE|DICT|INTERRES
   111   56   58 2    
   112   57  112 1    
   113   57  113 1    
   114   59   60 1    
   115   59  114 1    
   116   59  115 1    
   117   60   61 1    
   118   61  116 1    
   119   61  117 1    
@<TRIPOS>SUBSTRUCTURE
     1 UNK         1 GROUP             0       ****    0 ROOT    
