@<TRIPOS>MOLECULE
3R8
117   119    1
SMALL
USER_CHARGES


@<TRIPOS>ATOM
      1 CA         19.9363  -22.7648  -43.4182 C.3       0 UNK        -0.2013 
      2 C          19.9136  -23.7808  -44.5505 C.2       0 UNK         0.4866 
      3 O          20.8096  -23.7729  -45.3939 O.2       0 UNK        -0.5176 
      4 N          18.8888  -24.6436  -44.5842 N.am      1 UNK        -0.4884 
      5 CA         18.6971  -25.6878  -45.5991 C.3       1 UNK         0.0853 
      6 C6         17.2733  -26.3007  -45.5526 C.3       10 UNK        -0.0849 
      7 S7         16.7450  -26.8485  -43.8873 S.3       10 UNK        -0.2776 
      8 C8         15.6656  -28.2598  -44.2866 C.3       10 UNK         0.0316 
      9 C9         16.3301  -29.5971  -43.9894 C.ar      10 UNK        -0.0863 
     10 C10        16.7425  -30.4450  -45.0257 C.ar      10 UNK        -0.1009 
     11 C11        17.2544  -31.7172  -44.7394 C.ar      10 UNK        -0.0712 
     12 C12        17.3555  -32.1285  -43.4076 C.ar      10 UNK        -0.0894 
     13 C13        16.9904  -31.2749  -42.3655 C.ar      10 UNK        -0.0745 
     14 C14        16.4709  -30.0129  -42.6616 C.ar      10 UNK        -0.0972 
     15 C15        17.1378  -31.7399  -40.9263 C.3       10 UNK         0.0209 
     16 S16        18.8539  -31.5700  -40.3459 S.3       10 UNK        -0.2568 
     17 C17        18.9082  -29.8208  -39.8369 C.3       10 UNK        -0.0983 
     18 CA         20.1595  -29.1013  -40.3888 C.3       3 UNK         0.0876 
     19 N          20.1351  -28.9436  -41.8511 N.am      3 UNK        -0.4424 
     20 C          21.1879  -28.5262  -42.5702 C.2       2 UNK         0.4918 
     21 O          22.2741  -28.2335  -42.0736 O.2       2 UNK        -0.4875 
     22 CA         20.9972  -28.3706  -44.0781 C.3       2 UNK         0.0481 
     23 CB         20.5978  -29.7027  -44.7289 C.3       2 UNK        -0.1831 
     24 N          20.0165  -27.3257  -44.3493 N.am      2 UNK        -0.4498 
     25 C          19.7869  -26.7757  -45.5480 C.2       1 UNK         0.5027 
     26 O          20.3905  -27.0802  -46.5783 O.2       1 UNK        -0.4969 
     27 C          20.3832  -27.7546  -39.6738 C.2       3 UNK         0.5005 
     28 O          21.2200  -27.6754  -38.7743 O.2       3 UNK        -0.5279 
     29 N          19.6990  -26.7022  -40.1459 N.am      4 UNK        -0.4463 
     30 CA         19.8650  -25.3186  -39.6856 C.3       4 UNK         0.0283 
     31 CB         18.7447  -24.4550  -40.2861 C.3       4 UNK        -0.1875 
     32 C          21.2492  -24.7127  -39.9983 C.2       4 UNK         0.4949 
     33 O          21.6539  -23.7643  -39.3271 O.2       4 UNK        -0.5039 
     34 N          21.9524  -25.2736  -40.9921 N.am      5 UNK        -0.4663 
     35 CA         23.3255  -24.9178  -41.3607 C.3       5 UNK         0.0242 
     36 CB         23.4657  -25.0210  -42.8904 C.3       5 UNK        -0.1982 
     37 C          24.3772  -25.8019  -40.6601 C.2       5 UNK         0.5017 
     38 O          25.5692  -25.5952  -40.8890 O.2       5 UNK        -0.5012 
     39 N          23.9320  -26.7772  -39.8497 N.am      6 UNK        -0.4439 
     40 CA         24.7240  -27.8043  -39.1596 C.3       6 UNK         0.0297 
     41 CB         25.6789  -27.1720  -38.1245 C.3       6 UNK        -0.2006 
     42 C          25.4386  -28.7914  -40.1084 C.2       6 UNK         0.4892 
     43 O          26.4212  -29.4163  -39.7057 O.2       6 UNK        -0.5089 
     44 N          24.9246  -28.9407  -41.3375 N.am      7 UNK        -0.4243 
     45 CA         25.4120  -29.8930  -42.3394 C.3       7 UNK         0.0196 
     46 CB         25.1257  -29.3338  -43.7429 C.3       7 UNK        -0.2007 
     47 C          24.7786  -31.2861  -42.1798 C.2       7 UNK         0.5020 
     48 O          25.3253  -32.2571  -42.7015 O.2       7 UNK        -0.5147 
     49 N          23.6277  -31.3568  -41.4917 N.am      8 UNK        -0.4734 
     50 CA         22.8417  -32.5548  -41.1470 C.3       8 UNK         0.0238 
     51 CB         23.6625  -33.5109  -40.2563 C.3       8 UNK        -0.1912 
     52 C          22.1972  -33.2984  -42.3366 C.2       8 UNK         0.5038 
     53 O          21.5370  -34.3141  -42.1146 O.2       8 UNK        -0.5046 
     54 N          22.3575  -32.7747  -43.5596 N.am      9 UNK        -0.4200 
     55 CA         21.7643  -33.2807  -44.8106 C.3       9 UNK         0.0839 
     56 C          22.3677  -34.6253  -45.3179 C.2       9 UNK         0.5513 
     57 N          23.5487  -35.0249  -44.8601 N.am      9 UNK        -0.7519 
     58 O          21.7783  -35.3043  -46.1548 O.2       9 UNK        -0.4960 
     59 C59        20.2053  -33.2658  -44.7638 C.3       10 UNK        -0.0876 
     60 S60        19.4311  -32.5910  -46.2737 S.3       10 UNK        -0.2414 
     61 C61        17.6559  -32.6729  -45.8590 C.3       10 UNK         0.0169 
     62 H62        20.2256  -21.7854  -43.7988 H         1 UNK         0.0903 
     63 H63        18.9598  -22.6612  -42.9461 H         1 UNK         0.0903 
     64 H64        20.6599  -23.0599  -42.6592 H         1 UNK         0.0903 
     65 H65        18.1673  -24.5980  -43.8781 H         1 UNK         0.3096 
     66 H66        18.8034  -25.2027  -46.5727 H         1 UNK         0.1121 
     67 H67        16.5514  -25.5576  -45.8953 H         1 UNK         0.0849 
     68 H68        17.1954  -27.1290  -46.2600 H         1 UNK         0.0849 
     69 H69        15.3337  -28.2100  -45.3247 H         1 UNK         0.0865 
     70 H70        14.7582  -28.1779  -43.6864 H         1 UNK         0.0865 
     71 H71        16.6382  -30.1293  -46.0549 H         1 UNK         0.1346 
     72 H72        17.7308  -33.1161  -43.1766 H         1 UNK         0.1412 
     73 H73        16.1547  -29.3587  -41.8603 H         1 UNK         0.1426 
     74 H74        16.8480  -32.7893  -40.8542 H         1 UNK         0.0716 
     75 H75        16.4621  -31.1950  -40.2651 H         1 UNK         0.0716 
     76 H76        18.9054  -29.8093  -38.7449 H         1 UNK         0.0695 
     77 H77        17.9991  -29.3043  -40.1483 H         1 UNK         0.0695 
     78 H78        21.0275  -29.7183  -40.1455 H         1 UNK         0.0983 
     79 H79        19.2810  -29.2094  -42.3209 H         1 UNK         0.3095 
     80 H80        21.9536  -28.0534  -44.4986 H         1 UNK         0.0454 
     81 H81        20.5838  -29.6363  -45.8164 H         1 UNK         0.0851 
     82 H82        19.6127  -30.0383  -44.4059 H         1 UNK         0.0851 
     83 H83        21.3137  -30.4783  -44.4711 H         1 UNK         0.0851 
     84 H84        19.4646  -27.0008  -43.5689 H         1 UNK         0.2976 
     85 H85        19.0159  -26.8614  -40.8717 H         1 UNK         0.3116 
     86 H86        19.7529  -25.3121  -38.5992 H         1 UNK         0.0646 
     87 H87        18.8609  -23.4068  -40.0062 H         1 UNK         0.0847 
     88 H88        17.7653  -24.7749  -39.9299 H         1 UNK         0.0847 
     89 H89        18.7360  -24.5060  -41.3740 H         1 UNK         0.0847 
     90 H90        21.5615  -26.0729  -41.4694 H         1 UNK         0.3040 
     91 H91        23.5303  -23.8849  -41.0699 H         1 UNK         0.1015 
     92 H92        22.7577  -24.3683  -43.3997 H         1 UNK         0.0786 
     93 H93        23.3013  -26.0377  -43.2480 H         1 UNK         0.0786 
     94 H94        24.4635  -24.7219  -43.2140 H         1 UNK         0.0786 
     95 H95        22.9300  -26.8596  -39.7170 H         1 UNK         0.3172 
     96 H96        24.0007  -28.4046  -38.6060 H         1 UNK         0.0595 
     97 H97        26.4872  -26.6180  -38.6023 H         1 UNK         0.0839 
     98 H98        26.1389  -27.9370  -37.4978 H         1 UNK         0.0839 
     99 H99        25.1491  -26.4890  -37.4607 H         1 UNK         0.0839 
    100 H100       24.0867  -28.4183  -41.5803 H         1 UNK         0.2998 
    101 H101       26.4930  -30.0065  -42.2320 H         1 UNK         0.0822 
    102 H102       24.0570  -29.2344  -43.9311 H         1 UNK         0.0787 
    103 H103       25.5817  -28.3528  -43.8784 H         1 UNK         0.0787 
    104 H104       25.5327  -29.9892  -44.5142 H         1 UNK         0.0787 
    105 H105       23.2590  -30.4821  -41.1452 H         1 UNK         0.3055 
    106 H106       22.0026  -32.1966  -40.5482 H         1 UNK         0.1106 
    107 H107       24.4901  -33.9653  -40.8016 H         1 UNK         0.0828 
    108 H108       24.0751  -32.9916  -39.3913 H         1 UNK         0.0828 
    109 H109       23.0419  -34.3237  -39.8771 H         1 UNK         0.0828 
    110 H110       22.9726  -31.9805  -43.6498 H         1 UNK         0.2931 
    111 H111       22.0818  -32.5517  -45.5569 H         1 UNK         0.0412 
    112 H112       24.0495  -34.4677  -44.1846 H         1 UNK         0.3472 
    113 H113       23.9430  -35.8900  -45.1952 H         1 UNK         0.3472 
    114 H114       19.7983  -34.2551  -44.5463 H         1 UNK         0.0970 
    115 H115       19.8828  -32.6291  -43.9419 H         1 UNK         0.0970 
    116 H116       17.0807  -32.4475  -46.7582 H         1 UNK         0.0612 
    117 H117       17.3986  -33.6977  -45.5868 H         1 UNK         0.0612 
@<TRIPOS>BOND
     1    1    2 1    
     2    1   62 1    
     3    1   63 1    
     4    1   64 1    
     5    2    3 2    
     6    2    4 am   BACKBONE|DICT|INTERRES
     7    4    5 1    
     8    4   65 1    
     9    5    6 1    
    10    5   25 1    
    11    5   66 1    
    12    6    7 1    
    13    6   67 1    
    14    6   68 1    
    15    7    8 1    
    16    8    9 1    
    17    8   69 1    
    18    8   70 1    
    19    9   10 ar   
    20    9   14 ar   
    21   10   11 ar   
    22   10   71 1    
    23   11   12 ar   
    24   11   61 1    
    25   12   13 ar   
    26   12   72 1    
    27   13   14 ar   
    28   13   15 1    
    29   14   73 1    
    30   15   16 1    
    31   15   74 1    
    32   15   75 1    
    33   16   17 1    
    34   17   18 1    
    35   17   76 1    
    36   17   77 1    
    37   18   19 1    
    38   18   27 1    
    39   18   78 1    
    40   19   20 am   BACKBONE|DICT|INTERRES
    41   19   79 1    
    42   20   21 2    
    43   20   22 1    
    44   22   23 1    
    45   22   24 1    
    46   22   80 1    
    47   23   81 1    
    48   23   82 1    
    49   23   83 1    
    50   24   25 am   BACKBONE|DICT|INTERRES
    51   24   84 1    
    52   25   26 2    
    53   27   28 2    
    54   27   29 am   BACKBONE|DICT|INTERRES
    55   29   30 1    
    56   29   85 1    
    57   30   31 1    
    58   30   32 1    
    59   30   86 1    
    60   31   87 1    
    61   31   88 1    
    62   31   89 1    
    63   32   33 2    
    64   32   34 am   BACKBONE|DICT|INTERRES
    65   34   35 1    
    66   34   90 1    
    67   35   36 1    
    68   35   37 1    
    69   35   91 1    
    70   36   92 1    
    71   36   93 1    
    72   36   94 1    
    73   37   38 2    
    74   37   39 am   BACKBONE|DICT|INTERRES
    75   39   40 1    
    76   39   95 1    
    77   40   41 1    
    78   40   42 1    
    79   40   96 1    
    80   41   97 1    
    81   41   98 1    
    82   41   99 1    
    83   42   43 2    
    84   42   44 am   BACKBONE|DICT|INTERRES
    85   44   45 1    
    86   44  100 1    
    87   45   46 1    
    88   45   47 1    
    89   45  101 1    
    90   46  102 1    
    91   46  103 1    
    92   46  104 1    
    93   47   48 2    
    94   47   49 am   BACKBONE|DICT|INTERRES
    95   49   50 1    
    96   49  105 1    
    97   50   51 1    
    98   50   52 1    
    99   50  106 1    
   100   51  107 1    
   101   51  108 1    
   102   51  109 1    
   103   52   53 2    
   104   52   54 am   BACKBONE|DICT|INTERRES
   105   54   55 1    
   106   54  110 1    
   107   55   56 1    
   108   55   59 1    
   109   55  111 1    
   110   56   57 am   BACKBONE|DICT|INTERRES
   111   56   58 2    
   112   57  112 1    
   113   57  113 1    
   114   59   60 1    
   115   59  114 1    
   116   59  115 1    
   117   60   61 1    
   118   61  116 1    
   119   61  117 1    
@<TRIPOS>SUBSTRUCTURE
     1 UNK         1 GROUP             0       ****    0 ROOT    
