@<TRIPOS>MOLECULE
3R8
117   119    1
SMALL
USER_CHARGES


@<TRIPOS>ATOM
      1 CA         18.9075  -27.5734  -41.1842 C.3       0 UNK        -0.2013 
      2 C          18.6536  -26.9836  -42.5628 C.2       0 UNK         0.4866 
      3 O          19.6012  -26.8023  -43.3253 O.2       0 UNK        -0.5176 
      4 N          17.3887  -26.6718  -42.8811 N.am      1 UNK        -0.4884 
      5 CA         16.9064  -26.1738  -44.1809 C.3       1 UNK         0.0853 
      6 C6         16.8958  -27.2793  -45.2773 C.3       10 UNK        -0.0849 
      7 S7         15.9514  -28.7662  -44.8112 S.3       10 UNK        -0.2776 
      8 C8         16.7704  -30.0231  -45.8456 C.3       10 UNK         0.0316 
      9 C9         18.1366  -30.4126  -45.2974 C.ar      10 UNK        -0.0863 
     10 C10        18.2219  -31.2971  -44.2207 C.ar      10 UNK        -0.1009 
     11 C11        19.4645  -31.6936  -43.7225 C.ar      10 UNK        -0.0712 
     12 C12        20.6314  -31.1766  -44.2949 C.ar      10 UNK        -0.0894 
     13 C13        20.5668  -30.2970  -45.3821 C.ar      10 UNK        -0.0745 
     14 C14        19.3114  -29.9264  -45.8822 C.ar      10 UNK        -0.0972 
     15 C15        21.8620  -29.8418  -46.0571 C.3       10 UNK         0.0209 
     16 S16        21.8390  -28.1280  -46.6897 S.3       10 UNK        -0.2568 
     17 C17        22.3105  -27.1942  -45.2002 C.3       10 UNK        -0.0983 
     18 CA         22.1311  -25.6624  -45.3713 C.3       3 UNK         0.0876 
     19 N          20.7640  -25.2760  -45.7402 N.am      3 UNK        -0.4424 
     20 C          20.4132  -24.0651  -46.2039 C.2       2 UNK         0.4918 
     21 O          21.2226  -23.1653  -46.4311 O.2       2 UNK        -0.4875 
     22 CA         18.9191  -23.7969  -46.4734 C.3       2 UNK         0.0481 
     23 CB         18.6571  -23.7003  -47.9854 C.3       2 UNK        -0.1831 
     24 N          18.0440  -24.8233  -45.9063 N.am      2 UNK        -0.4498 
     25 C          17.6595  -24.8923  -44.6230 C.2       1 UNK         0.5027 
     26 O          17.8978  -24.0093  -43.7954 O.2       1 UNK        -0.4969 
     27 C          22.5875  -24.9216  -44.1005 C.2       3 UNK         0.5005 
     28 O          23.7531  -24.5327  -44.0123 O.2       3 UNK        -0.5279 
     29 N          21.6594  -24.7434  -43.1452 N.am      4 UNK        -0.4463 
     30 CA         21.7587  -24.0285  -41.8622 C.3       4 UNK         0.0283 
     31 CB         22.1275  -22.5467  -42.0650 C.3       4 UNK        -0.1875 
     32 C          22.6867  -24.7010  -40.8361 C.2       4 UNK         0.4949 
     33 O          22.3081  -24.8331  -39.6729 O.2       4 UNK        -0.5039 
     34 N          23.8566  -25.1621  -41.2920 N.am      5 UNK        -0.4663 
     35 CA         24.7915  -26.0132  -40.5523 C.3       5 UNK         0.0242 
     36 CB         26.1604  -25.9638  -41.2508 C.3       5 UNK        -0.1982 
     37 C          24.3033  -27.4698  -40.4181 C.2       5 UNK         0.5017 
     38 O          24.8922  -28.2231  -39.6417 O.2       5 UNK        -0.5012 
     39 N          23.2455  -27.8285  -41.1643 N.am      6 UNK        -0.4439 
     40 CA         22.5897  -29.1373  -41.2225 C.3       6 UNK         0.0297 
     41 CB         21.9960  -29.5004  -39.8411 C.3       6 UNK        -0.2006 
     42 C          23.5131  -30.2200  -41.8186 C.2       6 UNK         0.4892 
     43 O          24.3589  -29.9044  -42.6587 O.2       6 UNK        -0.5089 
     44 N          23.3165  -31.4740  -41.4010 N.am      7 UNK        -0.4243 
     45 CA         24.1246  -32.6350  -41.7624 C.3       7 UNK         0.0196 
     46 CB         23.8062  -33.1188  -43.1964 C.3       7 UNK        -0.2007 
     47 C          23.8989  -33.6842  -40.6674 C.2       7 UNK         0.5020 
     48 O          24.2448  -33.4253  -39.5148 O.2       7 UNK        -0.5147 
     49 N          23.2959  -34.8274  -41.0201 N.am      8 UNK        -0.4734 
     50 CA         22.8875  -35.8718  -40.0741 C.3       8 UNK         0.0238 
     51 CB         22.5755  -37.1629  -40.8485 C.3       8 UNK        -0.1912 
     52 C          21.6853  -35.4636  -39.2009 C.2       8 UNK         0.5038 
     53 O          21.5450  -35.9851  -38.0937 O.2       8 UNK        -0.5046 
     54 N          20.8425  -34.5563  -39.7135 N.am      9 UNK        -0.4200 
     55 CA         19.7066  -33.9648  -38.9957 C.3       9 UNK         0.0839 
     56 C          20.1389  -32.9751  -37.8769 C.2       9 UNK         0.5513 
     57 N          19.2905  -32.7633  -36.8799 N.am      9 UNK        -0.7519 
     58 O          21.2137  -32.3803  -37.9163 O.2       9 UNK        -0.4960 
     59 C59        18.6695  -33.3491  -39.9732 C.3       10 UNK        -0.0876 
     60 S60        19.2753  -31.9452  -40.9790 S.3       10 UNK        -0.2414 
     61 C61        19.5267  -32.7202  -42.6020 C.3       10 UNK         0.0169 
     62 H62        19.6870  -27.0097  -40.6720 H         1 UNK         0.0903 
     63 H63        18.0127  -27.5598  -40.5627 H         1 UNK         0.0903 
     64 H64        19.2397  -28.6071  -41.2798 H         1 UNK         0.0903 
     65 H65        16.6649  -26.8180  -42.1918 H         1 UNK         0.3096 
     66 H66        15.8738  -25.8594  -44.0207 H         1 UNK         0.1121 
     67 H67        16.4487  -26.9096  -46.2019 H         1 UNK         0.0849 
     68 H68        17.9192  -27.5715  -45.5146 H         1 UNK         0.0849 
     69 H69        16.1347  -30.9087  -45.8908 H         1 UNK         0.0865 
     70 H70        16.8517  -29.6592  -46.8711 H         1 UNK         0.0865 
     71 H71        17.3168  -31.6894  -43.7769 H         1 UNK         0.1346 
     72 H72        21.5937  -31.4852  -43.9155 H         1 UNK         0.1412 
     73 H73        19.2477  -29.2690  -46.7379 H         1 UNK         0.1426 
     74 H74        22.0532  -30.5104  -46.8972 H         1 UNK         0.0716 
     75 H75        22.7097  -29.9553  -45.3787 H         1 UNK         0.0716 
     76 H76        21.7341  -27.5747  -44.3572 H         1 UNK         0.0695 
     77 H77        23.3539  -27.4285  -44.9792 H         1 UNK         0.0695 
     78 H78        22.7908  -25.3401  -46.1802 H         1 UNK         0.0983 
     79 H79        20.0468  -25.9582  -45.5395 H         1 UNK         0.3095 
     80 H80        18.6716  -22.8328  -46.0241 H         1 UNK         0.0454 
     81 H81        19.2639  -22.9144  -48.4375 H         1 UNK         0.0851 
     82 H82        18.8976  -24.6319  -48.4992 H         1 UNK         0.0851 
     83 H83        17.6145  -23.4598  -48.1938 H         1 UNK         0.0851 
     84 H84        17.7896  -25.5785  -46.5261 H         1 UNK         0.2976 
     85 H85        20.7684  -25.2095  -43.3025 H         1 UNK         0.3116 
     86 H86        20.7530  -24.0580  -41.4393 H         1 UNK         0.0646 
     87 H87        22.0942  -22.0057  -41.1184 H         1 UNK         0.0847 
     88 H88        21.4305  -22.0554  -42.7440 H         1 UNK         0.0847 
     89 H89        23.1322  -22.4251  -42.4706 H         1 UNK         0.0847 
     90 H90        24.0727  -24.9749  -42.2701 H         1 UNK         0.3040 
     91 H91        24.9009  -25.6126  -39.5420 H         1 UNK         0.1015 
     92 H92        26.5437  -24.9444  -41.3013 H         1 UNK         0.0786 
     93 H93        26.1071  -26.3539  -42.2682 H         1 UNK         0.0786 
     94 H94        26.8976  -26.5597  -40.7107 H         1 UNK         0.0786 
     95 H95        22.8752  -27.1274  -41.7880 H         1 UNK         0.3172 
     96 H96        21.7597  -29.0286  -41.9227 H         1 UNK         0.0595 
     97 H97        21.4087  -28.6769  -39.4352 H         1 UNK         0.0839 
     98 H98        22.7700  -29.7440  -39.1123 H         1 UNK         0.0839 
     99 H99        21.3300  -30.3580  -39.9002 H         1 UNK         0.0839 
    100 H100       22.6417  -31.6321  -40.6638 H         1 UNK         0.2998 
    101 H101       25.1789  -32.3531  -41.7177 H         1 UNK         0.0822 
    102 H102       24.0127  -32.3400  -43.9307 H         1 UNK         0.0787 
    103 H103       24.4275  -33.9737  -43.4668 H         1 UNK         0.0787 
    104 H104       22.7644  -33.4143  -43.3150 H         1 UNK         0.0787 
    105 H105       23.0678  -34.9743  -41.9931 H         1 UNK         0.3055 
    106 H106       23.7240  -36.0701  -39.3997 H         1 UNK         0.1106 
    107 H107       21.7505  -37.0270  -41.5489 H         1 UNK         0.0828 
    108 H108       23.4427  -37.5079  -41.4118 H         1 UNK         0.0828 
    109 H109       22.2943  -37.9674  -40.1672 H         1 UNK         0.0828 
    110 H110       21.0547  -34.1586  -40.6139 H         1 UNK         0.2931 
    111 H111       19.2013  -34.7920  -38.4923 H         1 UNK         0.0412 
    112 H112       19.5467  -32.1163  -36.1502 H         1 UNK         0.3472 
    113 H113       18.4034  -33.2407  -36.8363 H         1 UNK         0.3472 
    114 H114       17.7992  -32.9998  -39.4148 H         1 UNK         0.0970 
    115 H115       18.2828  -34.1305  -40.6285 H         1 UNK         0.0970 
    116 H116       18.7613  -33.4776  -42.7768 H         1 UNK         0.0612 
    117 H117       20.4831  -33.2426  -42.6080 H         1 UNK         0.0612 
@<TRIPOS>BOND
     1    1    2 1    
     2    1   62 1    
     3    1   63 1    
     4    1   64 1    
     5    2    3 2    
     6    2    4 am   BACKBONE|DICT|INTERRES
     7    4    5 1    
     8    4   65 1    
     9    5    6 1    
    10    5   25 1    
    11    5   66 1    
    12    6    7 1    
    13    6   67 1    
    14    6   68 1    
    15    7    8 1    
    16    8    9 1    
    17    8   69 1    
    18    8   70 1    
    19    9   10 ar   
    20    9   14 ar   
    21   10   11 ar   
    22   10   71 1    
    23   11   12 ar   
    24   11   61 1    
    25   12   13 ar   
    26   12   72 1    
    27   13   14 ar   
    28   13   15 1    
    29   14   73 1    
    30   15   16 1    
    31   15   74 1    
    32   15   75 1    
    33   16   17 1    
    34   17   18 1    
    35   17   76 1    
    36   17   77 1    
    37   18   19 1    
    38   18   27 1    
    39   18   78 1    
    40   19   20 am   BACKBONE|DICT|INTERRES
    41   19   79 1    
    42   20   21 2    
    43   20   22 1    
    44   22   23 1    
    45   22   24 1    
    46   22   80 1    
    47   23   81 1    
    48   23   82 1    
    49   23   83 1    
    50   24   25 am   BACKBONE|DICT|INTERRES
    51   24   84 1    
    52   25   26 2    
    53   27   28 2    
    54   27   29 am   BACKBONE|DICT|INTERRES
    55   29   30 1    
    56   29   85 1    
    57   30   31 1    
    58   30   32 1    
    59   30   86 1    
    60   31   87 1    
    61   31   88 1    
    62   31   89 1    
    63   32   33 2    
    64   32   34 am   BACKBONE|DICT|INTERRES
    65   34   35 1    
    66   34   90 1    
    67   35   36 1    
    68   35   37 1    
    69   35   91 1    
    70   36   92 1    
    71   36   93 1    
    72   36   94 1    
    73   37   38 2    
    74   37   39 am   BACKBONE|DICT|INTERRES
    75   39   40 1    
    76   39   95 1    
    77   40   41 1    
    78   40   42 1    
    79   40   96 1    
    80   41   97 1    
    81   41   98 1    
    82   41   99 1    
    83   42   43 2    
    84   42   44 am   BACKBONE|DICT|INTERRES
    85   44   45 1    
    86   44  100 1    
    87   45   46 1    
    88   45   47 1    
    89   45  101 1    
    90   46  102 1    
    91   46  103 1    
    92   46  104 1    
    93   47   48 2    
    94   47   49 am   BACKBONE|DICT|INTERRES
    95   49   50 1    
    96   49  105 1    
    97   50   51 1    
    98   50   52 1    
    99   50  106 1    
   100   51  107 1    
   101   51  108 1    
   102   51  109 1    
   103   52   53 2    
   104   52   54 am   BACKBONE|DICT|INTERRES
   105   54   55 1    
   106   54  110 1    
   107   55   56 1    
   108   55   59 1    
   109   55  111 1    
   110   56   57 am   BACKBONE|DICT|INTERRES
   111   56   58 2    
   112   57  112 1    
   113   57  113 1    
   114   59   60 1    
   115   59  114 1    
   116   59  115 1    
   117   60   61 1    
   118   61  116 1    
   119   61  117 1    
@<TRIPOS>SUBSTRUCTURE
     1 UNK         1 GROUP             0       ****    0 ROOT    
