@<TRIPOS>MOLECULE
3R8
117   119    1
SMALL
USER_CHARGES


@<TRIPOS>ATOM
      1 CA         15.3169  -23.0510  -45.6309 C.3       0 UNK        -0.2013 
      2 C          16.3822  -24.0330  -45.1685 C.2       0 UNK         0.4866 
      3 O          17.2587  -24.4036  -45.9515 O.2       0 UNK        -0.5176 
      4 N          16.3250  -24.4556  -43.8990 N.am      1 UNK        -0.4884 
      5 CA         17.2571  -25.4042  -43.2755 C.3       1 UNK         0.0853 
      6 C6         16.6037  -26.1638  -42.0903 C.3       10 UNK        -0.0849 
      7 S7         15.1931  -27.1853  -42.6475 S.3       10 UNK        -0.2776 
      8 C8         15.6161  -28.8506  -42.0143 C.3       10 UNK         0.0316 
      9 C9         16.9178  -29.4653  -42.5375 C.ar      10 UNK        -0.0863 
     10 C10        17.4994  -30.5101  -41.8112 C.ar      10 UNK        -0.1009 
     11 C11        18.6905  -31.1018  -42.2389 C.ar      10 UNK        -0.0712 
     12 C12        19.3184  -30.6259  -43.3929 C.ar      10 UNK        -0.0894 
     13 C13        18.7556  -29.5814  -44.1338 C.ar      10 UNK        -0.0745 
     14 C14        17.5387  -29.0337  -43.7174 C.ar      10 UNK        -0.0972 
     15 C15        19.4474  -29.0388  -45.3822 C.3       10 UNK         0.0209 
     16 S16        21.2206  -28.7256  -45.0995 S.3       10 UNK        -0.2568 
     17 C17        21.6700  -27.5821  -46.4507 C.3       10 UNK        -0.0983 
     18 CA         22.3576  -26.2771  -45.9592 C.3       3 UNK         0.0876 
     19 N          21.4496  -25.4802  -45.1313 N.am      3 UNK        -0.4424 
     20 C          21.5870  -24.1749  -44.8616 C.2       2 UNK         0.4918 
     21 O          22.4360  -23.4552  -45.3906 O.2       2 UNK        -0.4875 
     22 CA         20.6041  -23.5808  -43.8360 C.3       2 UNK         0.0481 
     23 CB         20.4049  -22.0634  -44.0080 C.3       2 UNK        -0.1831 
     24 N          19.3078  -24.2529  -43.9185 N.am      2 UNK        -0.4498 
     25 C          18.5780  -24.7048  -42.8927 C.2       1 UNK         0.5027 
     26 O          18.8969  -24.5761  -41.7098 O.2       1 UNK        -0.4969 
     27 C          23.6941  -26.5517  -45.2258 C.2       3 UNK         0.5005 
     28 O          23.8261  -26.2682  -44.0313 O.2       3 UNK        -0.5279 
     29 N          24.6547  -27.1525  -45.9421 N.am      4 UNK        -0.4463 
     30 CA         25.9823  -27.5212  -45.4317 C.3       4 UNK         0.0283 
     31 CB         26.8438  -28.0282  -46.6002 C.3       4 UNK        -0.1875 
     32 C          25.9796  -28.5536  -44.2842 C.2       4 UNK         0.4949 
     33 O          26.9817  -28.6554  -43.5761 O.2       4 UNK        -0.5039 
     34 N          24.8750  -29.2923  -44.1177 N.am      5 UNK        -0.4663 
     35 CA         24.6755  -30.2923  -43.0673 C.3       5 UNK         0.0242 
     36 CB         24.6850  -31.6973  -43.7011 C.3       5 UNK        -0.1982 
     37 C          23.3850  -30.0201  -42.2756 C.2       5 UNK         0.5017 
     38 O          22.7612  -30.9745  -41.8094 O.2       5 UNK        -0.5012 
     39 N          22.9946  -28.7407  -42.1452 N.am      6 UNK        -0.4439 
     40 CA         21.7778  -28.2897  -41.4571 C.3       6 UNK         0.0297 
     41 CB         21.7104  -26.7558  -41.4690 C.3       6 UNK        -0.2006 
     42 C          21.6763  -28.8131  -40.0166 C.2       6 UNK         0.4892 
     43 O          22.6495  -28.7165  -39.2656 O.2       6 UNK        -0.5089 
     44 N          20.5119  -29.3860  -39.6829 N.am      7 UNK        -0.4243 
     45 CA         20.1407  -30.0617  -38.4296 C.3       7 UNK         0.0196 
     46 CB         20.2213  -29.1040  -37.2249 C.3       7 UNK        -0.2007 
     47 C          20.9006  -31.3741  -38.1464 C.2       7 UNK         0.5020 
     48 O          20.2928  -32.3071  -37.6222 O.2       7 UNK        -0.5147 
     49 N          22.1921  -31.4383  -38.4939 N.am      8 UNK        -0.4734 
     50 CA         23.0584  -32.6107  -38.3513 C.3       8 UNK         0.0238 
     51 CB         24.5167  -32.2070  -38.6265 C.3       8 UNK        -0.1912 
     52 C          22.6297  -33.7751  -39.2583 C.2       8 UNK         0.5038 
     53 O          22.4660  -34.8929  -38.7668 O.2       8 UNK        -0.5046 
     54 N          22.4235  -33.4744  -40.5480 N.am      9 UNK        -0.4200 
     55 CA         21.9626  -34.3886  -41.6034 C.3       9 UNK         0.0839 
     56 C          22.9317  -35.5750  -41.8975 C.2       9 UNK         0.5513 
     57 N          22.5471  -36.4963  -42.7713 N.am      9 UNK        -0.7519 
     58 O          24.0521  -35.6472  -41.3961 O.2       9 UNK        -0.4960 
     59 C59        20.4689  -34.8012  -41.3890 C.3       10 UNK        -0.0876 
     60 S60        19.3358  -33.7881  -42.3953 S.3       10 UNK        -0.2414 
     61 C61        19.3216  -32.2355  -41.4465 C.3       10 UNK         0.0169 
     62 H62        14.7621  -23.4686  -46.4707 H         1 UNK         0.0903 
     63 H63        14.6067  -22.8164  -44.8383 H         1 UNK         0.0903 
     64 H64        15.7811  -22.1209  -45.9575 H         1 UNK         0.0903 
     65 H65        15.5913  -24.1112  -43.2957 H         1 UNK         0.3096 
     66 H66        17.5319  -26.1453  -44.0262 H         1 UNK         0.1121 
     67 H67        17.3361  -26.8055  -41.5965 H         1 UNK         0.0849 
     68 H68        16.2523  -25.4652  -41.3289 H         1 UNK         0.0849 
     69 H69        15.6512  -28.7964  -40.9249 H         1 UNK         0.0865 
     70 H70        14.7965  -29.5272  -42.2597 H         1 UNK         0.0865 
     71 H71        17.0195  -30.8674  -40.9098 H         1 UNK         0.1346 
     72 H72        20.2526  -31.0703  -43.7096 H         1 UNK         0.1412 
     73 H73        17.0781  -28.2651  -44.3183 H         1 UNK         0.1426 
     74 H74        18.9706  -28.1111  -45.7024 H         1 UNK         0.0716 
     75 H75        19.3326  -29.7518  -46.1994 H         1 UNK         0.0716 
     76 H76        20.7772  -27.3272  -47.0235 H         1 UNK         0.0695 
     77 H77        22.3132  -28.1192  -47.1496 H         1 UNK         0.0695 
     78 H78        22.6037  -25.6808  -46.8408 H         1 UNK         0.0983 
     79 H79        20.7516  -26.0033  -44.6260 H         1 UNK         0.3095 
     80 H80        21.0493  -23.7574  -42.8549 H         1 UNK         0.0454 
     81 H81        19.9999  -21.8208  -44.9911 H         1 UNK         0.0851 
     82 H82        21.3484  -21.5270  -43.8997 H         1 UNK         0.0851 
     83 H83        19.7219  -21.6666  -43.2570 H         1 UNK         0.0851 
     84 H84        18.9123  -24.3553  -44.8503 H         1 UNK         0.2976 
     85 H85        24.4730  -27.3706  -46.9117 H         1 UNK         0.3116 
     86 H86        26.4440  -26.6126  -45.0394 H         1 UNK         0.0646 
     87 H87        26.4219  -28.9263  -47.0530 H         1 UNK         0.0847 
     88 H88        27.8514  -28.2774  -46.2640 H         1 UNK         0.0847 
     89 H89        26.9449  -27.2724  -47.3792 H         1 UNK         0.0847 
     90 H90        24.0873  -29.1254  -44.7295 H         1 UNK         0.3040 
     91 H91        25.4869  -30.2449  -42.3377 H         1 UNK         0.1015 
     92 H92        25.6070  -31.8757  -44.2545 H         1 UNK         0.0786 
     93 H93        23.8487  -31.8327  -44.3881 H         1 UNK         0.0786 
     94 H94        24.6126  -32.4752  -42.9394 H         1 UNK         0.0786 
     95 H95        23.5592  -28.0191  -42.5764 H         1 UNK         0.3172 
     96 H96        20.9279  -28.6695  -42.0263 H         1 UNK         0.0595 
     97 H97        21.6353  -26.3719  -42.4840 H         1 UNK         0.0839 
     98 H98        22.5904  -26.3095  -41.0044 H         1 UNK         0.0839 
     99 H99        20.8358  -26.3961  -40.9251 H         1 UNK         0.0839 
    100 H100       19.8038  -29.4269  -40.4033 H         1 UNK         0.2998 
    101 H101       19.0922  -30.3384  -38.5532 H         1 UNK         0.0822 
    102 H102       19.6311  -28.2033  -37.3940 H         1 UNK         0.0787 
    103 H103       19.8337  -29.5814  -36.3239 H         1 UNK         0.0787 
    104 H104       21.2462  -28.7991  -37.0118 H         1 UNK         0.0787 
    105 H105       22.6042  -30.5985  -38.8913 H         1 UNK         0.3055 
    106 H106       22.9875  -32.9554  -37.3172 H         1 UNK         0.1106 
    107 H107       24.8576  -31.4494  -37.9207 H         1 UNK         0.0828 
    108 H108       25.1839  -33.0646  -38.5284 H         1 UNK         0.0828 
    109 H109       24.6447  -31.8074  -39.6334 H         1 UNK         0.0828 
    110 H110       22.5951  -32.5207  -40.8600 H         1 UNK         0.2931 
    111 H111       22.0326  -33.7881  -42.5116 H         1 UNK         0.0412 
    112 H112       21.6540  -36.4363  -43.2352 H         1 UNK         0.3472 
    113 H113       23.1735  -37.2564  -42.9877 H         1 UNK         0.3472 
    114 H114       20.2817  -35.8420  -41.6547 H         1 UNK         0.0970 
    115 H115       20.1732  -34.7292  -40.3412 H         1 UNK         0.0970 
    116 H116       20.3403  -31.9466  -41.1955 H         1 UNK         0.0612 
    117 H117       18.8006  -32.3974  -40.5017 H         1 UNK         0.0612 
@<TRIPOS>BOND
     1    1    2 1    
     2    1   62 1    
     3    1   63 1    
     4    1   64 1    
     5    2    3 2    
     6    2    4 am   BACKBONE|DICT|INTERRES
     7    4    5 1    
     8    4   65 1    
     9    5    6 1    
    10    5   25 1    
    11    5   66 1    
    12    6    7 1    
    13    6   67 1    
    14    6   68 1    
    15    7    8 1    
    16    8    9 1    
    17    8   69 1    
    18    8   70 1    
    19    9   10 ar   
    20    9   14 ar   
    21   10   11 ar   
    22   10   71 1    
    23   11   12 ar   
    24   11   61 1    
    25   12   13 ar   
    26   12   72 1    
    27   13   14 ar   
    28   13   15 1    
    29   14   73 1    
    30   15   16 1    
    31   15   74 1    
    32   15   75 1    
    33   16   17 1    
    34   17   18 1    
    35   17   76 1    
    36   17   77 1    
    37   18   19 1    
    38   18   27 1    
    39   18   78 1    
    40   19   20 am   BACKBONE|DICT|INTERRES
    41   19   79 1    
    42   20   21 2    
    43   20   22 1    
    44   22   23 1    
    45   22   24 1    
    46   22   80 1    
    47   23   81 1    
    48   23   82 1    
    49   23   83 1    
    50   24   25 am   BACKBONE|DICT|INTERRES
    51   24   84 1    
    52   25   26 2    
    53   27   28 2    
    54   27   29 am   BACKBONE|DICT|INTERRES
    55   29   30 1    
    56   29   85 1    
    57   30   31 1    
    58   30   32 1    
    59   30   86 1    
    60   31   87 1    
    61   31   88 1    
    62   31   89 1    
    63   32   33 2    
    64   32   34 am   BACKBONE|DICT|INTERRES
    65   34   35 1    
    66   34   90 1    
    67   35   36 1    
    68   35   37 1    
    69   35   91 1    
    70   36   92 1    
    71   36   93 1    
    72   36   94 1    
    73   37   38 2    
    74   37   39 am   BACKBONE|DICT|INTERRES
    75   39   40 1    
    76   39   95 1    
    77   40   41 1    
    78   40   42 1    
    79   40   96 1    
    80   41   97 1    
    81   41   98 1    
    82   41   99 1    
    83   42   43 2    
    84   42   44 am   BACKBONE|DICT|INTERRES
    85   44   45 1    
    86   44  100 1    
    87   45   46 1    
    88   45   47 1    
    89   45  101 1    
    90   46  102 1    
    91   46  103 1    
    92   46  104 1    
    93   47   48 2    
    94   47   49 am   BACKBONE|DICT|INTERRES
    95   49   50 1    
    96   49  105 1    
    97   50   51 1    
    98   50   52 1    
    99   50  106 1    
   100   51  107 1    
   101   51  108 1    
   102   51  109 1    
   103   52   53 2    
   104   52   54 am   BACKBONE|DICT|INTERRES
   105   54   55 1    
   106   54  110 1    
   107   55   56 1    
   108   55   59 1    
   109   55  111 1    
   110   56   57 am   BACKBONE|DICT|INTERRES
   111   56   58 2    
   112   57  112 1    
   113   57  113 1    
   114   59   60 1    
   115   59  114 1    
   116   59  115 1    
   117   60   61 1    
   118   61  116 1    
   119   61  117 1    
@<TRIPOS>SUBSTRUCTURE
     1 UNK         1 GROUP             0       ****    0 ROOT    
