@<TRIPOS>MOLECULE
3R8
117   119    1
SMALL
USER_CHARGES


@<TRIPOS>ATOM
      1 CA         16.2449  -23.1065  -41.3436 C.3       0 UNK        -0.2013 
      2 C          17.0938  -23.6765  -42.4703 C.2       0 UNK         0.4866 
      3 O          17.6056  -22.9183  -43.2952 O.2       0 UNK        -0.5176 
      4 N          17.2372  -25.0065  -42.5169 N.am      1 UNK        -0.4884 
      5 CA         18.0589  -25.7260  -43.4973 C.3       1 UNK         0.0853 
      6 C6         17.7020  -27.2323  -43.5537 C.3       10 UNK        -0.0849 
      7 S7         15.9748  -27.5237  -44.0618 S.3       10 UNK        -0.2776 
      8 C8         15.6154  -29.1153  -43.2329 C.3       10 UNK         0.0316 
      9 C9         16.4198  -30.3262  -43.7186 C.ar      10 UNK        -0.0863 
     10 C10        16.3784  -31.5001  -42.9593 C.ar      10 UNK        -0.1009 
     11 C11        17.0766  -32.6426  -43.3625 C.ar      10 UNK        -0.0712 
     12 C12        17.8428  -32.6045  -44.5304 C.ar      10 UNK        -0.0894 
     13 C13        17.9176  -31.4348  -45.2899 C.ar      10 UNK        -0.0745 
     14 C14        17.1781  -30.3150  -44.8968 C.ar      10 UNK        -0.0972 
     15 C15        18.7718  -31.3897  -46.5509 C.3       10 UNK         0.0209 
     16 S16        19.8803  -29.9420  -46.5978 S.3       10 UNK        -0.2568 
     17 C17        21.2547  -30.4529  -45.5121 C.3       10 UNK        -0.0983 
     18 CA         22.3571  -29.3643  -45.5117 C.3       3 UNK         0.0876 
     19 N          21.9283  -28.1461  -44.8102 N.am      3 UNK        -0.4424 
     20 C          22.3914  -26.9171  -45.0766 C.2       2 UNK         0.4918 
     21 O          23.1736  -26.6615  -45.9930 O.2       2 UNK        -0.4875 
     22 CA         21.8442  -25.7913  -44.1884 C.3       2 UNK         0.0481 
     23 CB         22.3705  -24.3948  -44.5696 C.3       2 UNK        -0.1831 
     24 N          20.3839  -25.8123  -44.2445 N.am      2 UNK        -0.4498 
     25 C          19.5670  -25.5435  -43.2199 C.2       1 UNK         0.5027 
     26 O          19.9605  -25.2097  -42.0995 O.2       1 UNK        -0.4969 
     27 C          23.7136  -29.8854  -44.9871 C.2       3 UNK         0.5005 
     28 O          24.3942  -30.6153  -45.7101 O.2       3 UNK        -0.5279 
     29 N          24.1094  -29.4628  -43.7790 N.am      4 UNK        -0.4463 
     30 CA         25.4770  -29.5328  -43.2670 C.3       4 UNK         0.0283 
     31 CB         25.5276  -30.5041  -42.0713 C.3       4 UNK        -0.1875 
     32 C          25.9001  -28.0934  -42.9237 C.2       4 UNK         0.4949 
     33 O          25.6283  -27.1823  -43.7067 O.2       4 UNK        -0.5039 
     34 N          26.5053  -27.8844  -41.7466 N.am      5 UNK        -0.4663 
     35 CA         26.7458  -26.5528  -41.1723 C.3       5 UNK         0.0242 
     36 CB         27.7551  -26.6791  -40.0194 C.3       5 UNK        -0.1982 
     37 C          25.4507  -25.8688  -40.6842 C.2       5 UNK         0.5017 
     38 O          25.4399  -24.6527  -40.4926 O.2       5 UNK        -0.5012 
     39 N          24.3941  -26.6661  -40.4953 N.am      6 UNK        -0.4439 
     40 CA         23.0430  -26.2846  -40.1093 C.3       6 UNK         0.0297 
     41 CB         22.9834  -26.0164  -38.5902 C.3       6 UNK        -0.2006 
     42 C          22.0994  -27.4128  -40.5594 C.2       6 UNK         0.4892 
     43 O          22.4880  -28.2501  -41.3846 O.2       6 UNK        -0.5089 
     44 N          20.8861  -27.4412  -39.9954 N.am      7 UNK        -0.4243 
     45 CA         19.8332  -28.4306  -40.2447 C.3       7 UNK         0.0196 
     46 CB         18.4810  -27.8219  -39.8259 C.3       7 UNK        -0.2007 
     47 C          20.1005  -29.7902  -39.5616 C.2       7 UNK         0.5020 
     48 O          19.1993  -30.3596  -38.9455 O.2       7 UNK        -0.5147 
     49 N          21.3334  -30.2954  -39.6888 N.am      8 UNK        -0.4734 
     50 CA         21.7734  -31.6014  -39.1820 C.3       8 UNK         0.0238 
     51 CB         23.2345  -31.4910  -38.7133 C.3       8 UNK        -0.1912 
     52 C          21.6023  -32.7268  -40.2218 C.2       8 UNK         0.5038 
     53 O          22.0241  -33.8544  -39.9626 O.2       8 UNK        -0.5046 
     54 N          20.9988  -32.3985  -41.3719 N.am      9 UNK        -0.4200 
     55 CA         20.6802  -33.2884  -42.4998 C.3       9 UNK         0.0839 
     56 C          21.9048  -33.7442  -43.3459 C.2       9 UNK         0.5513 
     57 N          23.0754  -33.1410  -43.1881 N.am      9 UNK        -0.7519 
     58 O          21.7843  -34.6309  -44.1870 O.2       9 UNK        -0.4960 
     59 C59        19.7405  -34.4714  -42.1211 C.3       10 UNK        -0.0876 
     60 S60        18.2360  -33.9593  -41.2175 S.3       10 UNK        -0.2414 
     61 C61        16.9877  -33.9195  -42.5403 C.3       10 UNK         0.0169 
     62 H62        15.4061  -22.5441  -41.7530 H         1 UNK         0.0903 
     63 H63        15.8457  -23.8883  -40.6975 H         1 UNK         0.0903 
     64 H64        16.8412  -22.4317  -40.7301 H         1 UNK         0.0903 
     65 H65        16.7923  -25.5797  -41.8155 H         1 UNK         0.3096 
     66 H66        17.8566  -25.2905  -44.4790 H         1 UNK         0.1121 
     67 H67        18.3458  -27.7551  -44.2632 H         1 UNK         0.0849 
     68 H68        17.8739  -27.7051  -42.5870 H         1 UNK         0.0849 
     69 H69        15.7649  -28.9871  -42.1596 H         1 UNK         0.0865 
     70 H70        14.5555  -29.3347  -43.3687 H         1 UNK         0.0865 
     71 H71        15.7910  -31.5304  -42.0513 H         1 UNK         0.1346 
     72 H72        18.3879  -33.4851  -44.8421 H         1 UNK         0.1412 
     73 H73        17.2131  -29.4325  -45.5186 H         1 UNK         0.1426 
     74 H74        18.1079  -31.3475  -47.4152 H         1 UNK         0.0716 
     75 H75        19.3645  -32.2993  -46.6607 H         1 UNK         0.0716 
     76 H76        21.6424  -31.4035  -45.8842 H         1 UNK         0.0695 
     77 H77        20.8798  -30.6381  -44.5042 H         1 UNK         0.0695 
     78 H78        22.5473  -29.0997  -46.5550 H         1 UNK         0.0983 
     79 H79        21.2739  -28.2670  -44.0516 H         1 UNK         0.3095 
     80 H80        22.1805  -26.0117  -43.1742 H         1 UNK         0.0454 
     81 H81        23.4601  -24.3645  -44.5262 H         1 UNK         0.0851 
     82 H82        21.9988  -23.6316  -43.8859 H         1 UNK         0.0851 
     83 H83        22.0734  -24.1137  -45.5805 H         1 UNK         0.0851 
     84 H84        19.9883  -26.0962  -45.1313 H         1 UNK         0.2976 
     85 H85        23.4880  -28.8525  -43.2604 H         1 UNK         0.3116 
     86 H86        26.1637  -29.8890  -44.0375 H         1 UNK         0.0646 
     87 H87        26.5422  -30.6155  -41.6872 H         1 UNK         0.0847 
     88 H88        25.1981  -31.4998  -42.3635 H         1 UNK         0.0847 
     89 H89        24.8901  -30.1668  -41.2549 H         1 UNK         0.0847 
     90 H90        26.7256  -28.6790  -41.1629 H         1 UNK         0.3040 
     91 H91        27.1809  -25.9132  -41.9438 H         1 UNK         0.1015 
     92 H92        27.9803  -25.7019  -39.5896 H         1 UNK         0.0786 
     93 H93        28.6985  -27.1048  -40.3622 H         1 UNK         0.0786 
     94 H94        27.3737  -27.3084  -39.2143 H         1 UNK         0.0786 
     95 H95        24.4815  -27.6404  -40.7505 H         1 UNK         0.3172 
     96 H96        22.7602  -25.3808  -40.6527 H         1 UNK         0.0595 
     97 H97        23.1692  -26.9237  -38.0136 H         1 UNK         0.0839 
     98 H98        22.0117  -25.6243  -38.2890 H         1 UNK         0.0839 
     99 H99        23.7241  -25.2759  -38.2878 H         1 UNK         0.0839 
    100 H100       20.6621  -26.7222  -39.3233 H         1 UNK         0.2998 
    101 H101       19.7960  -28.6205  -41.3192 H         1 UNK         0.0822 
    102 H102       18.3087  -26.8614  -40.3114 H         1 UNK         0.0787 
    103 H103       18.4287  -27.6628  -38.7480 H         1 UNK         0.0787 
    104 H104       17.6532  -28.4776  -40.0997 H         1 UNK         0.0787 
    105 H105       22.0013  -29.7574  -40.2332 H         1 UNK         0.3055 
    106 H106       21.1646  -31.8776  -38.3179 H         1 UNK         0.1106 
    107 H107       23.9140  -31.3088  -39.5437 H         1 UNK         0.0828 
    108 H108       23.3611  -30.6858  -37.9894 H         1 UNK         0.0828 
    109 H109       23.5589  -32.4127  -38.2281 H         1 UNK         0.0828 
    110 H110       20.6944  -31.4433  -41.4755 H         1 UNK         0.2931 
    111 H111       20.1258  -32.6469  -43.1808 H         1 UNK         0.0412 
    112 H112       23.1841  -32.4135  -42.5024 H         1 UNK         0.3472 
    113 H113       23.8577  -33.4291  -43.7543 H         1 UNK         0.3472 
    114 H114       19.4439  -35.0249  -43.0133 H         1 UNK         0.0970 
    115 H115       20.2758  -35.1901  -41.4987 H         1 UNK         0.0970 
    116 H116       15.9990  -33.9906  -42.0844 H         1 UNK         0.0612 
    117 H117       17.0872  -34.7990  -43.1782 H         1 UNK         0.0612 
@<TRIPOS>BOND
     1    1    2 1    
     2    1   62 1    
     3    1   63 1    
     4    1   64 1    
     5    2    3 2    
     6    2    4 am   BACKBONE|DICT|INTERRES
     7    4    5 1    
     8    4   65 1    
     9    5    6 1    
    10    5   25 1    
    11    5   66 1    
    12    6    7 1    
    13    6   67 1    
    14    6   68 1    
    15    7    8 1    
    16    8    9 1    
    17    8   69 1    
    18    8   70 1    
    19    9   10 ar   
    20    9   14 ar   
    21   10   11 ar   
    22   10   71 1    
    23   11   12 ar   
    24   11   61 1    
    25   12   13 ar   
    26   12   72 1    
    27   13   14 ar   
    28   13   15 1    
    29   14   73 1    
    30   15   16 1    
    31   15   74 1    
    32   15   75 1    
    33   16   17 1    
    34   17   18 1    
    35   17   76 1    
    36   17   77 1    
    37   18   19 1    
    38   18   27 1    
    39   18   78 1    
    40   19   20 am   BACKBONE|DICT|INTERRES
    41   19   79 1    
    42   20   21 2    
    43   20   22 1    
    44   22   23 1    
    45   22   24 1    
    46   22   80 1    
    47   23   81 1    
    48   23   82 1    
    49   23   83 1    
    50   24   25 am   BACKBONE|DICT|INTERRES
    51   24   84 1    
    52   25   26 2    
    53   27   28 2    
    54   27   29 am   BACKBONE|DICT|INTERRES
    55   29   30 1    
    56   29   85 1    
    57   30   31 1    
    58   30   32 1    
    59   30   86 1    
    60   31   87 1    
    61   31   88 1    
    62   31   89 1    
    63   32   33 2    
    64   32   34 am   BACKBONE|DICT|INTERRES
    65   34   35 1    
    66   34   90 1    
    67   35   36 1    
    68   35   37 1    
    69   35   91 1    
    70   36   92 1    
    71   36   93 1    
    72   36   94 1    
    73   37   38 2    
    74   37   39 am   BACKBONE|DICT|INTERRES
    75   39   40 1    
    76   39   95 1    
    77   40   41 1    
    78   40   42 1    
    79   40   96 1    
    80   41   97 1    
    81   41   98 1    
    82   41   99 1    
    83   42   43 2    
    84   42   44 am   BACKBONE|DICT|INTERRES
    85   44   45 1    
    86   44  100 1    
    87   45   46 1    
    88   45   47 1    
    89   45  101 1    
    90   46  102 1    
    91   46  103 1    
    92   46  104 1    
    93   47   48 2    
    94   47   49 am   BACKBONE|DICT|INTERRES
    95   49   50 1    
    96   49  105 1    
    97   50   51 1    
    98   50   52 1    
    99   50  106 1    
   100   51  107 1    
   101   51  108 1    
   102   51  109 1    
   103   52   53 2    
   104   52   54 am   BACKBONE|DICT|INTERRES
   105   54   55 1    
   106   54  110 1    
   107   55   56 1    
   108   55   59 1    
   109   55  111 1    
   110   56   57 am   BACKBONE|DICT|INTERRES
   111   56   58 2    
   112   57  112 1    
   113   57  113 1    
   114   59   60 1    
   115   59  114 1    
   116   59  115 1    
   117   60   61 1    
   118   61  116 1    
   119   61  117 1    
@<TRIPOS>SUBSTRUCTURE
     1 UNK         1 GROUP             0       ****    0 ROOT    
