@<TRIPOS>MOLECULE
3R8
117   119    1
SMALL
USER_CHARGES


@<TRIPOS>ATOM
      1 CA         15.9327  -24.6240  -39.8423 C.3       0 UNK        -0.2013 
      2 C          15.8649  -24.8672  -41.3426 C.2       0 UNK         0.4866 
      3 O          14.7800  -24.8214  -41.9230 O.2       0 UNK        -0.5176 
      4 N          17.0140  -25.1235  -41.9743 N.am      1 UNK        -0.4884 
      5 CA         17.1676  -25.3511  -43.4097 C.3       1 UNK         0.0853 
      6 C6         16.7709  -26.7953  -43.8088 C.3       10 UNK        -0.0849 
      7 S7         16.2473  -26.9376  -45.5451 S.3       10 UNK        -0.2776 
      8 C8         15.7977  -28.7066  -45.6103 C.3       10 UNK         0.0316 
      9 C9         17.0013  -29.6222  -45.4143 C.ar      10 UNK        -0.0863 
     10 C10        17.0140  -30.5810  -44.3959 C.ar      10 UNK        -0.1009 
     11 C11        18.1191  -31.4222  -44.2288 C.ar      10 UNK        -0.0712 
     12 C12        19.2233  -31.2843  -45.0769 C.ar      10 UNK        -0.0894 
     13 C13        19.2255  -30.3354  -46.1047 C.ar      10 UNK        -0.0745 
     14 C14        18.0983  -29.5210  -46.2729 C.ar      10 UNK        -0.0972 
     15 C15        20.4366  -30.2525  -47.0365 C.3       10 UNK         0.0209 
     16 S16        20.6217  -28.6507  -47.8990 S.3       10 UNK        -0.2568 
     17 C17        22.2783  -28.0948  -47.3744 C.3       10 UNK        -0.0983 
     18 CA         22.3024  -27.2203  -46.0933 C.3       3 UNK         0.0876 
     19 N          21.2531  -26.1933  -46.0832 N.am      3 UNK        -0.4424 
     20 C          21.3258  -25.0478  -45.3943 C.2       2 UNK         0.4918 
     21 O          22.2753  -24.7428  -44.6723 O.2       2 UNK        -0.4875 
     22 CA         20.1338  -24.0851  -45.5307 C.3       2 UNK         0.0481 
     23 CB         19.9649  -23.6064  -46.9833 C.3       2 UNK        -0.1831 
     24 N          18.8642  -24.6312  -45.0378 N.am      2 UNK        -0.4498 
     25 C          18.6239  -25.0001  -43.7716 C.2       1 UNK         0.5027 
     26 O          19.4908  -25.0461  -42.8933 O.2       1 UNK        -0.4969 
     27 C          22.3328  -28.0702  -44.8072 C.2       3 UNK         0.5005 
     28 O          23.3656  -28.6790  -44.5216 O.2       3 UNK        -0.5279 
     29 N          21.2351  -28.0761  -44.0338 N.am      4 UNK        -0.4463 
     30 CA         21.1179  -28.7788  -42.7515 C.3       4 UNK         0.0283 
     31 CB         19.7073  -28.6042  -42.1787 C.3       4 UNK        -0.1875 
     32 C          22.1495  -28.3298  -41.7093 C.2       4 UNK         0.4949 
     33 O          22.6197  -29.1617  -40.9372 O.2       4 UNK        -0.5039 
     34 N          22.5253  -27.0438  -41.7338 N.am      5 UNK        -0.4663 
     35 CA         23.5098  -26.4282  -40.8369 C.3       5 UNK         0.0242 
     36 CB         23.6037  -24.9294  -41.1646 C.3       5 UNK        -0.1982 
     37 C          24.9105  -27.0739  -40.8636 C.2       5 UNK         0.5017 
     38 O          25.6640  -26.9013  -39.9052 O.2       5 UNK        -0.5012 
     39 N          25.2341  -27.8063  -41.9388 N.am      6 UNK        -0.4439 
     40 CA         26.4939  -28.5304  -42.1001 C.3       6 UNK         0.0297 
     41 CB         26.7252  -28.7986  -43.5964 C.3       6 UNK        -0.2006 
     42 C          26.5673  -29.8504  -41.3075 C.2       6 UNK         0.4892 
     43 O          27.6806  -30.3291  -41.0847 O.2       6 UNK        -0.5089 
     44 N          25.4203  -30.4376  -40.9280 N.am      7 UNK        -0.4243 
     45 CA         25.3604  -31.7867  -40.3442 C.3       7 UNK         0.0196 
     46 CB         25.1764  -32.8119  -41.4802 C.3       7 UNK        -0.2007 
     47 C          24.2813  -31.9801  -39.2654 C.2       7 UNK         0.5020 
     48 O          24.2353  -33.0564  -38.6682 O.2       7 UNK        -0.5147 
     49 N          23.3990  -30.9908  -39.0613 N.am      8 UNK        -0.4734 
     50 CA         22.2017  -31.0258  -38.2048 C.3       8 UNK         0.0238 
     51 CB         22.5905  -31.1277  -36.7143 C.3       8 UNK        -0.1912 
     52 C          21.1812  -32.1030  -38.6330 C.2       8 UNK         0.5038 
     53 O          20.4206  -32.5932  -37.7964 O.2       8 UNK        -0.5046 
     54 N          21.2082  -32.4631  -39.9248 N.am      9 UNK        -0.4200 
     55 CA         20.4691  -33.5743  -40.5482 C.3       9 UNK         0.0839 
     56 C          20.8596  -34.9874  -40.0129 C.2       9 UNK         0.5513 
     57 N          22.0055  -35.1586  -39.3617 N.am      9 UNK        -0.7519 
     58 O          20.1322  -35.9555  -40.2198 O.2       9 UNK        -0.4960 
     59 C59        18.9314  -33.3378  -40.5963 C.3       10 UNK        -0.0876 
     60 S60        18.5041  -31.8190  -41.5131 S.3       10 UNK        -0.2414 
     61 C61        18.1132  -32.4995  -43.1528 C.3       10 UNK         0.0169 
     62 H62        15.3193  -25.3548  -39.3159 H         1 UNK         0.0903 
     63 H63        16.9514  -24.7004  -39.4624 H         1 UNK         0.0903 
     64 H64        15.5561  -23.6292  -39.6058 H         1 UNK         0.0903 
     65 H65        17.8980  -25.1024  -41.4781 H         1 UNK         0.3096 
     66 H66        16.5181  -24.6390  -43.9246 H         1 UNK         0.1121 
     67 H67        15.9342  -27.1397  -43.1988 H         1 UNK         0.0849 
     68 H68        17.5814  -27.4955  -43.6200 H         1 UNK         0.0849 
     69 H69        15.0271  -28.9080  -44.8644 H         1 UNK         0.0865 
     70 H70        15.3475  -28.9206  -46.5806 H         1 UNK         0.0865 
     71 H71        16.1638  -30.6808  -43.7348 H         1 UNK         0.1346 
     72 H72        20.0796  -31.9320  -44.9463 H         1 UNK         0.1412 
     73 H73        18.0602  -28.7947  -47.0720 H         1 UNK         0.1426 
     74 H74        21.3440  -30.4720  -46.4723 H         1 UNK         0.0716 
     75 H75        20.3469  -31.0375  -47.7882 H         1 UNK         0.0716 
     76 H76        22.9523  -28.9501  -47.2928 H         1 UNK         0.0695 
     77 H77        22.6764  -27.5036  -48.2005 H         1 UNK         0.0695 
     78 H78        23.2618  -26.6972  -46.1014 H         1 UNK         0.0983 
     79 H79        20.4429  -26.3835  -46.6559 H         1 UNK         0.3095 
     80 H80        20.3619  -23.2067  -44.9232 H         1 UNK         0.0454 
     81 H81        19.6450  -24.4101  -47.6474 H         1 UNK         0.0851 
     82 H82        19.2286  -22.8055  -47.0519 H         1 UNK         0.0851 
     83 H83        20.9031  -23.2123  -47.3768 H         1 UNK         0.0851 
     84 H84        18.0993  -24.6594  -45.6977 H         1 UNK         0.2976 
     85 H85        20.4335  -27.5475  -44.3432 H         1 UNK         0.3116 
     86 H86        21.2810  -29.8420  -42.9404 H         1 UNK         0.0646 
     87 H87        19.4467  -27.5555  -42.0425 H         1 UNK         0.0847 
     88 H88        18.9649  -29.0675  -42.8252 H         1 UNK         0.0847 
     89 H89        19.6214  -29.0828  -41.2023 H         1 UNK         0.0847 
     90 H90        22.0907  -26.4345  -42.4143 H         1 UNK         0.3040 
     91 H91        23.1324  -26.5355  -39.8177 H         1 UNK         0.1015 
     92 H92        23.9468  -24.7623  -42.1867 H         1 UNK         0.0786 
     93 H93        24.3035  -24.4240  -40.4973 H         1 UNK         0.0786 
     94 H94        22.6374  -24.4368  -41.0521 H         1 UNK         0.0786 
     95 H95        24.5478  -27.9131  -42.6766 H         1 UNK         0.3172 
     96 H96        27.3053  -27.8911  -41.7455 H         1 UNK         0.0595 
     97 H97        27.6870  -29.2861  -43.7619 H         1 UNK         0.0839 
     98 H98        26.7296  -27.8726  -44.1717 H         1 UNK         0.0839 
     99 H99        25.9555  -29.4493  -44.0134 H         1 UNK         0.0839 
    100 H100       24.5413  -29.9773  -41.1357 H         1 UNK         0.2998 
    101 H101       26.3035  -32.0059  -39.8388 H         1 UNK         0.0822 
    102 H102       25.1398  -33.8315  -41.0937 H         1 UNK         0.0787 
    103 H103       24.2519  -32.6376  -42.0320 H         1 UNK         0.0787 
    104 H104       26.0026  -32.7693  -42.1901 H         1 UNK         0.0787 
    105 H105       23.4408  -30.1704  -39.6607 H         1 UNK         0.3055 
    106 H106       21.6973  -30.0689  -38.3496 H         1 UNK         0.1106 
    107 H107       23.3073  -30.3548  -36.4377 H         1 UNK         0.0828 
    108 H108       21.7175  -31.0019  -36.0727 H         1 UNK         0.0828 
    109 H109       23.0308  -32.0959  -36.4746 H         1 UNK         0.0828 
    110 H110       21.8616  -31.9838  -40.5257 H         1 UNK         0.2931 
    111 H111       20.8142  -33.5878  -41.5827 H         1 UNK         0.0412 
    112 H112       22.2488  -36.0797  -39.0333 H         1 UNK         0.3472 
    113 H113       22.6262  -34.3800  -39.1766 H         1 UNK         0.3472 
    114 H114       18.4188  -34.1809  -41.0629 H         1 UNK         0.0970 
    115 H115       18.5231  -33.2643  -39.5874 H         1 UNK         0.0970 
    116 H116       18.8355  -33.2786  -43.4019 H         1 UNK         0.0612 
    117 H117       17.1366  -32.9845  -43.1172 H         1 UNK         0.0612 
@<TRIPOS>BOND
     1    1    2 1    
     2    1   62 1    
     3    1   63 1    
     4    1   64 1    
     5    2    3 2    
     6    2    4 am   BACKBONE|DICT|INTERRES
     7    4    5 1    
     8    4   65 1    
     9    5    6 1    
    10    5   25 1    
    11    5   66 1    
    12    6    7 1    
    13    6   67 1    
    14    6   68 1    
    15    7    8 1    
    16    8    9 1    
    17    8   69 1    
    18    8   70 1    
    19    9   10 ar   
    20    9   14 ar   
    21   10   11 ar   
    22   10   71 1    
    23   11   12 ar   
    24   11   61 1    
    25   12   13 ar   
    26   12   72 1    
    27   13   14 ar   
    28   13   15 1    
    29   14   73 1    
    30   15   16 1    
    31   15   74 1    
    32   15   75 1    
    33   16   17 1    
    34   17   18 1    
    35   17   76 1    
    36   17   77 1    
    37   18   19 1    
    38   18   27 1    
    39   18   78 1    
    40   19   20 am   BACKBONE|DICT|INTERRES
    41   19   79 1    
    42   20   21 2    
    43   20   22 1    
    44   22   23 1    
    45   22   24 1    
    46   22   80 1    
    47   23   81 1    
    48   23   82 1    
    49   23   83 1    
    50   24   25 am   BACKBONE|DICT|INTERRES
    51   24   84 1    
    52   25   26 2    
    53   27   28 2    
    54   27   29 am   BACKBONE|DICT|INTERRES
    55   29   30 1    
    56   29   85 1    
    57   30   31 1    
    58   30   32 1    
    59   30   86 1    
    60   31   87 1    
    61   31   88 1    
    62   31   89 1    
    63   32   33 2    
    64   32   34 am   BACKBONE|DICT|INTERRES
    65   34   35 1    
    66   34   90 1    
    67   35   36 1    
    68   35   37 1    
    69   35   91 1    
    70   36   92 1    
    71   36   93 1    
    72   36   94 1    
    73   37   38 2    
    74   37   39 am   BACKBONE|DICT|INTERRES
    75   39   40 1    
    76   39   95 1    
    77   40   41 1    
    78   40   42 1    
    79   40   96 1    
    80   41   97 1    
    81   41   98 1    
    82   41   99 1    
    83   42   43 2    
    84   42   44 am   BACKBONE|DICT|INTERRES
    85   44   45 1    
    86   44  100 1    
    87   45   46 1    
    88   45   47 1    
    89   45  101 1    
    90   46  102 1    
    91   46  103 1    
    92   46  104 1    
    93   47   48 2    
    94   47   49 am   BACKBONE|DICT|INTERRES
    95   49   50 1    
    96   49  105 1    
    97   50   51 1    
    98   50   52 1    
    99   50  106 1    
   100   51  107 1    
   101   51  108 1    
   102   51  109 1    
   103   52   53 2    
   104   52   54 am   BACKBONE|DICT|INTERRES
   105   54   55 1    
   106   54  110 1    
   107   55   56 1    
   108   55   59 1    
   109   55  111 1    
   110   56   57 am   BACKBONE|DICT|INTERRES
   111   56   58 2    
   112   57  112 1    
   113   57  113 1    
   114   59   60 1    
   115   59  114 1    
   116   59  115 1    
   117   60   61 1    
   118   61  116 1    
   119   61  117 1    
@<TRIPOS>SUBSTRUCTURE
     1 UNK         1 GROUP             0       ****    0 ROOT    
