@<TRIPOS>MOLECULE
3R8
117   119    1
SMALL
USER_CHARGES


@<TRIPOS>ATOM
      1 CA         17.8993  -22.8869  -41.0398 C.3       0 UNK        -0.2013 
      2 C          17.7047  -23.4950  -42.4211 C.2       0 UNK         0.4866 
      3 O          17.4501  -22.7672  -43.3813 O.2       0 UNK        -0.5176 
      4 N          17.8155  -24.8257  -42.5247 N.am      1 UNK        -0.4884 
      5 CA         17.7445  -25.5824  -43.7800 C.3       1 UNK         0.0853 
      6 C6         17.5319  -27.0905  -43.4958 C.3       10 UNK        -0.0849 
      7 S7         16.7809  -27.9854  -44.9026 S.3       10 UNK        -0.2776 
      8 C8         16.5296  -29.6499  -44.2000 C.3       10 UNK         0.0316 
      9 C9         17.8143  -30.2063  -43.6053 C.ar      10 UNK        -0.0863 
     10 C10        17.9743  -30.2699  -42.2189 C.ar      10 UNK        -0.1009 
     11 C11        19.1792  -30.6998  -41.6576 C.ar      10 UNK        -0.0712 
     12 C12        20.2372  -31.0531  -42.5061 C.ar      10 UNK        -0.0894 
     13 C13        20.0761  -31.0332  -43.8954 C.ar      10 UNK        -0.0745 
     14 C14        18.8578  -30.6156  -44.4386 C.ar      10 UNK        -0.0972 
     15 C15        21.2117  -31.4740  -44.8100 C.3       10 UNK         0.0209 
     16 S16        21.7410  -30.1590  -45.9563 S.3       10 UNK        -0.2568 
     17 C17        22.5017  -28.9632  -44.8102 C.3       10 UNK        -0.0983 
     18 CA         22.6734  -27.5567  -45.4359 C.3       3 UNK         0.0876 
     19 N          21.3916  -27.0033  -45.8925 N.am      3 UNK        -0.4424 
     20 C          21.2480  -26.0427  -46.8139 C.2       2 UNK         0.4918 
     21 O          22.1879  -25.5685  -47.4518 O.2       2 UNK        -0.4875 
     22 CA         19.8327  -25.4771  -47.0422 C.3       2 UNK         0.0481 
     23 CB         19.2451  -26.0399  -48.3463 C.3       2 UNK        -0.1831 
     24 N          18.8657  -25.6911  -45.9565 N.am      2 UNK        -0.4498 
     25 C          18.9859  -25.3310  -44.6698 C.2       1 UNK         0.5027 
     26 O          20.0176  -24.8586  -44.1809 O.2       1 UNK        -0.4969 
     27 C          23.4314  -26.6131  -44.4662 C.2       3 UNK         0.5005 
     28 O          24.4847  -27.0055  -43.9625 O.2       3 UNK        -0.5279 
     29 N          22.8935  -25.4064  -44.2199 N.am      4 UNK        -0.4463 
     30 CA         23.3091  -24.4021  -43.2359 C.3       4 UNK         0.0283 
     31 CB         24.7856  -23.9803  -43.4014 C.3       4 UNK        -0.1875 
     32 C          22.9464  -24.8726  -41.8197 C.2       4 UNK         0.4949 
     33 O          23.8125  -24.9570  -40.9478 O.2       4 UNK        -0.5039 
     34 N          21.6527  -25.1801  -41.6431 N.am      5 UNK        -0.4663 
     35 CA         21.0371  -25.7658  -40.4492 C.3       5 UNK         0.0242 
     36 CB         21.1190  -24.8034  -39.2409 C.3       5 UNK        -0.1982 
     37 C          21.5679  -27.1893  -40.1896 C.2       5 UNK         0.5017 
     38 O          21.4753  -28.0206  -41.0930 O.2       5 UNK        -0.5012 
     39 N          22.0600  -27.4568  -38.9708 N.am      6 UNK        -0.4439 
     40 CA         22.5442  -28.7611  -38.5103 C.3       6 UNK         0.0297 
     41 CB         22.9444  -28.6628  -37.0290 C.3       6 UNK        -0.2006 
     42 C          23.7116  -29.2982  -39.3569 C.2       6 UNK         0.4892 
     43 O          24.7257  -28.6122  -39.5020 O.2       6 UNK        -0.5089 
     44 N          23.5457  -30.5199  -39.8720 N.am      7 UNK        -0.4243 
     45 CA         24.4898  -31.2362  -40.7256 C.3       7 UNK         0.0196 
     46 CB         24.5323  -30.5966  -42.1317 C.3       7 UNK        -0.2007 
     47 C          24.0787  -32.7176  -40.7338 C.2       7 UNK         0.5020 
     48 O          23.6756  -33.2392  -39.6919 O.2       7 UNK        -0.5147 
     49 N          24.1412  -33.3734  -41.8999 N.am      8 UNK        -0.4734 
     50 CA         23.6519  -34.7363  -42.1326 C.3       8 UNK         0.0238 
     51 CB         24.3825  -35.3251  -43.3544 C.3       8 UNK        -0.1912 
     52 C          22.1183  -34.7496  -42.2960 C.2       8 UNK         0.5038 
     53 O          21.6142  -35.0263  -43.3861 O.2       8 UNK        -0.5046 
     54 N          21.4146  -34.3908  -41.2173 N.am      9 UNK        -0.4200 
     55 CA         19.9528  -34.2630  -41.1457 C.3       9 UNK         0.0839 
     56 C          19.2156  -35.6183  -41.3157 C.2       9 UNK         0.5513 
     57 N          18.0315  -35.6085  -41.9124 N.am      9 UNK        -0.7519 
     58 O          19.6833  -36.6654  -40.8723 O.2       9 UNK        -0.4960 
     59 C59        19.5005  -33.5508  -39.8413 C.3       10 UNK        -0.0876 
     60 S60        20.4199  -32.0123  -39.4790 S.3       10 UNK        -0.2414 
     61 C61        19.3119  -30.7213  -40.1359 C.3       10 UNK         0.0169 
     62 H62        18.7669  -22.2275  -41.0410 H         1 UNK         0.0903 
     63 H63        18.0536  -23.6481  -40.2753 H         1 UNK         0.0903 
     64 H64        17.0248  -22.2998  -40.7609 H         1 UNK         0.0903 
     65 H65        18.0133  -25.3683  -41.6978 H         1 UNK         0.3096 
     66 H66        16.8740  -25.2058  -44.3228 H         1 UNK         0.1121 
     67 H67        16.8581  -27.2197  -42.6468 H         1 UNK         0.0849 
     68 H68        18.4721  -27.5663  -43.2082 H         1 UNK         0.0849 
     69 H69        15.7403  -29.6057  -43.4479 H         1 UNK         0.0865 
     70 H70        16.1691  -30.3190  -44.9827 H         1 UNK         0.0865 
     71 H71        17.1654  -29.9575  -41.5726 H         1 UNK         0.1346 
     72 H72        21.1836  -31.3606  -42.0854 H         1 UNK         0.1412 
     73 H73        18.7346  -30.5756  -45.5124 H         1 UNK         0.1426 
     74 H74        22.0721  -31.8159  -44.2332 H         1 UNK         0.0716 
     75 H75        20.8766  -32.3333  -45.3923 H         1 UNK         0.0716 
     76 H76        23.4733  -29.3696  -44.5279 H         1 UNK         0.0695 
     77 H77        21.9087  -28.9029  -43.8952 H         1 UNK         0.0695 
     78 H78        23.3189  -27.6650  -46.3104 H         1 UNK         0.0983 
     79 H79        20.5665  -27.3538  -45.4292 H         1 UNK         0.3095 
     80 H80        19.9409  -24.3970  -47.1582 H         1 UNK         0.0454 
     81 H81        18.2983  -25.5611  -48.5967 H         1 UNK         0.0851 
     82 H82        19.0719  -27.1148  -48.2787 H         1 UNK         0.0851 
     83 H83        19.9205  -25.8714  -49.1864 H         1 UNK         0.0851 
     84 H84        17.9980  -26.1338  -46.2286 H         1 UNK         0.2976 
     85 H85        21.9906  -25.2197  -44.6427 H         1 UNK         0.3116 
     86 H86        22.6996  -23.5186  -43.4328 H         1 UNK         0.0646 
     87 H87        25.0012  -23.6809  -44.4268 H         1 UNK         0.0847 
     88 H88        25.0158  -23.1299  -42.7588 H         1 UNK         0.0847 
     89 H89        25.4766  -24.7788  -43.1309 H         1 UNK         0.0847 
     90 H90        21.0438  -25.0953  -42.4518 H         1 UNK         0.3040 
     91 H91        19.9811  -25.8930  -40.6880 H         1 UNK         0.1015 
     92 H92        22.1436  -24.6423  -38.9045 H         1 UNK         0.0786 
     93 H93        20.5458  -25.1828  -38.3939 H         1 UNK         0.0786 
     94 H94        20.7016  -23.8281  -39.4919 H         1 UNK         0.0786 
     95 H95        22.1317  -26.6934  -38.3148 H         1 UNK         0.3172 
     96 H96        21.7084  -29.4576  -38.5818 H         1 UNK         0.0595 
     97 H97        22.1025  -28.3580  -36.4071 H         1 UNK         0.0839 
     98 H98        23.7539  -27.9477  -36.8762 H         1 UNK         0.0839 
     99 H99        23.2886  -29.6279  -36.6545 H         1 UNK         0.0839 
    100 H100       22.7073  -31.0410  -39.6429 H         1 UNK         0.2998 
    101 H101       25.4824  -31.1774  -40.2748 H         1 UNK         0.0822 
    102 H102       25.2844  -31.0653  -42.7671 H         1 UNK         0.0787 
    103 H103       23.5660  -30.6796  -42.6280 H         1 UNK         0.0787 
    104 H104       24.7831  -29.5364  -42.0849 H         1 UNK         0.0787 
    105 H105       24.4622  -32.8683  -42.7133 H         1 UNK         0.3055 
    106 H106       23.8940  -35.3585  -41.2675 H         1 UNK         0.1106 
    107 H107       25.4603  -35.3585  -43.1939 H         1 UNK         0.0828 
    108 H108       24.0542  -36.3469  -43.5495 H         1 UNK         0.0828 
    109 H109       24.1954  -34.7445  -44.2587 H         1 UNK         0.0828 
    110 H110       21.9259  -34.1371  -40.3799 H         1 UNK         0.2931 
    111 H111       19.6572  -33.6361  -41.9875 H         1 UNK         0.0412 
    112 H112       17.6365  -34.7530  -42.2718 H         1 UNK         0.3472 
    113 H113       17.5277  -36.4756  -42.0180 H         1 UNK         0.3472 
    114 H114       18.4327  -33.3281  -39.8816 H         1 UNK         0.0970 
    115 H115       19.6345  -34.2151  -38.9854 H         1 UNK         0.0970 
    116 H116       18.3325  -30.8426  -39.6705 H         1 UNK         0.0612 
    117 H117       19.6830  -29.7483  -39.8153 H         1 UNK         0.0612 
@<TRIPOS>BOND
     1    1    2 1    
     2    1   62 1    
     3    1   63 1    
     4    1   64 1    
     5    2    3 2    
     6    2    4 am   BACKBONE|DICT|INTERRES
     7    4    5 1    
     8    4   65 1    
     9    5    6 1    
    10    5   25 1    
    11    5   66 1    
    12    6    7 1    
    13    6   67 1    
    14    6   68 1    
    15    7    8 1    
    16    8    9 1    
    17    8   69 1    
    18    8   70 1    
    19    9   10 ar   
    20    9   14 ar   
    21   10   11 ar   
    22   10   71 1    
    23   11   12 ar   
    24   11   61 1    
    25   12   13 ar   
    26   12   72 1    
    27   13   14 ar   
    28   13   15 1    
    29   14   73 1    
    30   15   16 1    
    31   15   74 1    
    32   15   75 1    
    33   16   17 1    
    34   17   18 1    
    35   17   76 1    
    36   17   77 1    
    37   18   19 1    
    38   18   27 1    
    39   18   78 1    
    40   19   20 am   BACKBONE|DICT|INTERRES
    41   19   79 1    
    42   20   21 2    
    43   20   22 1    
    44   22   23 1    
    45   22   24 1    
    46   22   80 1    
    47   23   81 1    
    48   23   82 1    
    49   23   83 1    
    50   24   25 am   BACKBONE|DICT|INTERRES
    51   24   84 1    
    52   25   26 2    
    53   27   28 2    
    54   27   29 am   BACKBONE|DICT|INTERRES
    55   29   30 1    
    56   29   85 1    
    57   30   31 1    
    58   30   32 1    
    59   30   86 1    
    60   31   87 1    
    61   31   88 1    
    62   31   89 1    
    63   32   33 2    
    64   32   34 am   BACKBONE|DICT|INTERRES
    65   34   35 1    
    66   34   90 1    
    67   35   36 1    
    68   35   37 1    
    69   35   91 1    
    70   36   92 1    
    71   36   93 1    
    72   36   94 1    
    73   37   38 2    
    74   37   39 am   BACKBONE|DICT|INTERRES
    75   39   40 1    
    76   39   95 1    
    77   40   41 1    
    78   40   42 1    
    79   40   96 1    
    80   41   97 1    
    81   41   98 1    
    82   41   99 1    
    83   42   43 2    
    84   42   44 am   BACKBONE|DICT|INTERRES
    85   44   45 1    
    86   44  100 1    
    87   45   46 1    
    88   45   47 1    
    89   45  101 1    
    90   46  102 1    
    91   46  103 1    
    92   46  104 1    
    93   47   48 2    
    94   47   49 am   BACKBONE|DICT|INTERRES
    95   49   50 1    
    96   49  105 1    
    97   50   51 1    
    98   50   52 1    
    99   50  106 1    
   100   51  107 1    
   101   51  108 1    
   102   51  109 1    
   103   52   53 2    
   104   52   54 am   BACKBONE|DICT|INTERRES
   105   54   55 1    
   106   54  110 1    
   107   55   56 1    
   108   55   59 1    
   109   55  111 1    
   110   56   57 am   BACKBONE|DICT|INTERRES
   111   56   58 2    
   112   57  112 1    
   113   57  113 1    
   114   59   60 1    
   115   59  114 1    
   116   59  115 1    
   117   60   61 1    
   118   61  116 1    
   119   61  117 1    
@<TRIPOS>SUBSTRUCTURE
     1 UNK         1 GROUP             0       ****    0 ROOT    
