@<TRIPOS>MOLECULE
3R8
117   119    1
SMALL
USER_CHARGES


@<TRIPOS>ATOM
      1 CA         16.7665  -22.5333  -47.4002 C.3       0 UNK        -0.2013 
      2 C          17.7946  -23.6500  -47.3015 C.2       0 UNK         0.4866 
      3 O          18.9530  -23.4499  -47.6672 O.2       0 UNK        -0.5176 
      4 N          17.3794  -24.8259  -46.8130 N.am      1 UNK        -0.4884 
      5 CA         18.2328  -26.0049  -46.6113 C.3       1 UNK         0.0853 
      6 C6         17.4005  -27.2986  -46.4288 C.3       10 UNK        -0.0849 
      7 S7         16.1106  -27.1747  -45.1393 S.3       10 UNK        -0.2776 
      8 C8         15.4273  -28.8598  -45.1736 C.3       10 UNK         0.0316 
      9 C9         16.3359  -29.8442  -44.4536 C.ar      10 UNK        -0.0863 
     10 C10        17.2109  -30.6637  -45.1723 C.ar      10 UNK        -0.1009 
     11 C11        18.0343  -31.5789  -44.5084 C.ar      10 UNK        -0.0712 
     12 C12        17.9749  -31.6712  -43.1137 C.ar      10 UNK        -0.0894 
     13 C13        17.1106  -30.8481  -42.3845 C.ar      10 UNK        -0.0745 
     14 C14        16.2898  -29.9418  -43.0610 C.ar      10 UNK        -0.0972 
     15 C15        17.0441  -30.9510  -40.8676 C.3       10 UNK         0.0209 
     16 S16        18.4912  -30.2022  -40.0542 S.3       10 UNK        -0.2568 
     17 C17        18.3024  -28.4230  -40.4286 C.3       10 UNK        -0.0983 
     18 CA         19.5877  -27.8171  -41.0492 C.3       3 UNK         0.0876 
     19 N          19.2993  -26.6093  -41.8406 N.am      3 UNK        -0.4424 
     20 C          20.2105  -25.8682  -42.4891 C.2       2 UNK         0.4918 
     21 O          21.4198  -26.1034  -42.4715 O.2       2 UNK        -0.4875 
     22 CA         19.6743  -24.6556  -43.2718 C.3       2 UNK         0.0481 
     23 CB         20.7959  -23.6791  -43.6842 C.3       2 UNK        -0.1831 
     24 N          18.8811  -25.0434  -44.4429 N.am      2 UNK        -0.4498 
     25 C          19.2581  -25.8225  -45.4714 C.2       1 UNK         0.5027 
     26 O          20.3576  -26.3691  -45.5665 O.2       1 UNK        -0.4969 
     27 C          20.6816  -27.6036  -39.9751 C.2       3 UNK         0.5005 
     28 O          21.5293  -28.4752  -39.7874 O.2       3 UNK        -0.5279 
     29 N          20.6845  -26.4243  -39.3348 N.am      4 UNK        -0.4463 
     30 CA         21.6876  -26.0118  -38.3474 C.3       4 UNK         0.0283 
     31 CB         21.2492  -24.6874  -37.7021 C.3       4 UNK        -0.1875 
     32 C          23.1153  -25.8835  -38.9145 C.2       4 UNK         0.4949 
     33 O          24.0732  -26.0951  -38.1708 O.2       4 UNK        -0.5039 
     34 N          23.2366  -25.5460  -40.2059 N.am      5 UNK        -0.4663 
     35 CA         24.5108  -25.4779  -40.9242 C.3       5 UNK         0.0242 
     36 CB         24.4345  -24.3866  -42.0050 C.3       5 UNK        -0.1982 
     37 C          24.8732  -26.8344  -41.5476 C.2       5 UNK         0.5017 
     38 O          26.0448  -27.2125  -41.5266 O.2       5 UNK        -0.5012 
     39 N          23.8669  -27.5392  -42.0862 N.am      6 UNK        -0.4439 
     40 CA         24.0010  -28.8578  -42.7121 C.3       6 UNK         0.0297 
     41 CB         22.7064  -29.1953  -43.4659 C.3       6 UNK        -0.2006 
     42 C          24.3540  -29.9814  -41.7202 C.2       6 UNK         0.4892 
     43 O          24.9920  -30.9546  -42.1269 O.2       6 UNK        -0.5089 
     44 N          23.9385  -29.8281  -40.4532 N.am      7 UNK        -0.4243 
     45 CA         24.1633  -30.7232  -39.3158 C.3       7 UNK         0.0196 
     46 CB         25.6593  -30.7593  -38.9289 C.3       7 UNK        -0.2007 
     47 C          23.5451  -32.1079  -39.5664 C.2       7 UNK         0.5020 
     48 O          22.3338  -32.2637  -39.4125 O.2       7 UNK        -0.5147 
     49 N          24.3739  -33.0816  -39.9644 N.am      8 UNK        -0.4734 
     50 CA         23.9424  -34.4215  -40.3692 C.3       8 UNK         0.0238 
     51 CB         25.1684  -35.3450  -40.4551 C.3       8 UNK        -0.1912 
     52 C          23.1651  -34.4316  -41.6984 C.2       8 UNK         0.5038 
     53 O          22.3398  -35.3245  -41.8947 O.2       8 UNK        -0.5046 
     54 N          23.4344  -33.4499  -42.5742 N.am      9 UNK        -0.4200 
     55 CA         22.8015  -33.2784  -43.8921 C.3       9 UNK         0.0839 
     56 C          23.0675  -34.4564  -44.8833 C.2       9 UNK         0.5513 
     57 N          24.2110  -35.1260  -44.7924 N.am      9 UNK        -0.7519 
     58 O          22.2509  -34.7686  -45.7460 O.2       9 UNK        -0.4960 
     59 C59        21.3065  -32.8651  -43.7564 C.3       10 UNK        -0.0876 
     60 S60        20.6998  -31.9053  -45.1881 S.3       10 UNK        -0.2414 
     61 C61        18.9743  -32.4721  -45.3056 C.3       10 UNK         0.0169 
     62 H62        17.0819  -21.6792  -46.8015 H         1 UNK         0.0903 
     63 H63        16.6665  -22.2059  -48.4348 H         1 UNK         0.0903 
     64 H64        15.7846  -22.8498  -47.0486 H         1 UNK         0.0903 
     65 H65        16.4151  -24.9422  -46.5313 H         1 UNK         0.3096 
     66 H66        18.8234  -26.1306  -47.5222 H         1 UNK         0.1121 
     67 H67        16.9089  -27.5442  -47.3715 H         1 UNK         0.0849 
     68 H68        18.0547  -28.1444  -46.2085 H         1 UNK         0.0849 
     69 H69        14.4472  -28.8522  -44.6942 H         1 UNK         0.0865 
     70 H70        15.2554  -29.1705  -46.2055 H         1 UNK         0.0865 
     71 H71        17.2497  -30.5904  -46.2506 H         1 UNK         0.1346 
     72 H72        18.6065  -32.3775  -42.5930 H         1 UNK         0.1412 
     73 H73        15.6133  -29.3071  -42.5046 H         1 UNK         0.1426 
     74 H74        16.1356  -30.4839  -40.4839 H         1 UNK         0.0716 
     75 H75        16.9878  -32.0025  -40.5825 H         1 UNK         0.0716 
     76 H76        17.4656  -28.3006  -41.1159 H         1 UNK         0.0695 
     77 H77        18.0113  -27.8957  -39.5181 H         1 UNK         0.0695 
     78 H78        19.9836  -28.5398  -41.7647 H         1 UNK         0.0983 
     79 H79        18.3268  -26.3506  -41.9227 H         1 UNK         0.3095 
     80 H80        19.0016  -24.1177  -42.6022 H         1 UNK         0.0454 
     81 H81        21.5160  -24.1469  -44.3567 H         1 UNK         0.0851 
     82 H82        20.3917  -22.8012  -44.1879 H         1 UNK         0.0851 
     83 H83        21.3478  -23.3273  -42.8119 H         1 UNK         0.0851 
     84 H84        17.9423  -24.6715  -44.4794 H         1 UNK         0.2976 
     85 H85        19.9568  -25.7591  -39.5532 H         1 UNK         0.3116 
     86 H86        21.7157  -26.7769  -37.5685 H         1 UNK         0.0646 
     87 H87        21.9636  -24.3697  -36.9411 H         1 UNK         0.0847 
     88 H88        20.2805  -24.7843  -37.2117 H         1 UNK         0.0847 
     89 H89        21.1777  -23.8835  -38.4358 H         1 UNK         0.0847 
     90 H90        22.3984  -25.4479  -40.7659 H         1 UNK         0.3040 
     91 H91        25.3084  -25.2063  -40.2286 H         1 UNK         0.1015 
     92 H92        24.2000  -23.4146  -41.5710 H         1 UNK         0.0786 
     93 H93        23.6774  -24.6095  -42.7575 H         1 UNK         0.0786 
     94 H94        25.3886  -24.2880  -42.5245 H         1 UNK         0.0786 
     95 H95        22.9439  -27.1121  -42.1127 H         1 UNK         0.3172 
     96 H96        24.8110  -28.7936  -43.4415 H         1 UNK         0.0595 
     97 H97        22.4048  -28.3881  -44.1345 H         1 UNK         0.0839 
     98 H98        22.8417  -30.0861  -44.0781 H         1 UNK         0.0839 
     99 H99        21.8806  -29.3933  -42.7831 H         1 UNK         0.0839 
    100 H100       23.2921  -29.0656  -40.2642 H         1 UNK         0.2998 
    101 H101       23.6169  -30.2913  -38.4756 H         1 UNK         0.0822 
    102 H102       26.0058  -29.7681  -38.6356 H         1 UNK         0.0787 
    103 H103       25.8288  -31.4221  -38.0792 H         1 UNK         0.0787 
    104 H104       26.2975  -31.0972  -39.7457 H         1 UNK         0.0787 
    105 H105       25.3500  -32.8533  -40.0904 H         1 UNK         0.3055 
    106 H106       23.2720  -34.8103  -39.5991 H         1 UNK         0.1106 
    107 H107       24.8748  -36.3575  -40.7362 H         1 UNK         0.0828 
    108 H108       25.8875  -34.9966  -41.1975 H         1 UNK         0.0828 
    109 H109       25.6816  -35.4139  -39.4958 H         1 UNK         0.0828 
    110 H110       24.1203  -32.7446  -42.3223 H         1 UNK         0.2931 
    111 H111       23.3311  -32.4316  -44.3293 H         1 UNK         0.0412 
    112 H112       24.3899  -35.8861  -45.4299 H         1 UNK         0.3472 
    113 H113       24.8953  -34.8791  -44.0953 H         1 UNK         0.3472 
    114 H114       21.1720  -32.2328  -42.8769 H         1 UNK         0.0970 
    115 H115       20.6860  -33.7464  -43.5877 H         1 UNK         0.0970 
    116 H116       18.6887  -32.4718  -46.3585 H         1 UNK         0.0612 
    117 H117       18.8828  -33.5070  -44.9738 H         1 UNK         0.0612 
@<TRIPOS>BOND
     1    1    2 1    
     2    1   62 1    
     3    1   63 1    
     4    1   64 1    
     5    2    3 2    
     6    2    4 am   BACKBONE|DICT|INTERRES
     7    4    5 1    
     8    4   65 1    
     9    5    6 1    
    10    5   25 1    
    11    5   66 1    
    12    6    7 1    
    13    6   67 1    
    14    6   68 1    
    15    7    8 1    
    16    8    9 1    
    17    8   69 1    
    18    8   70 1    
    19    9   10 ar   
    20    9   14 ar   
    21   10   11 ar   
    22   10   71 1    
    23   11   12 ar   
    24   11   61 1    
    25   12   13 ar   
    26   12   72 1    
    27   13   14 ar   
    28   13   15 1    
    29   14   73 1    
    30   15   16 1    
    31   15   74 1    
    32   15   75 1    
    33   16   17 1    
    34   17   18 1    
    35   17   76 1    
    36   17   77 1    
    37   18   19 1    
    38   18   27 1    
    39   18   78 1    
    40   19   20 am   BACKBONE|DICT|INTERRES
    41   19   79 1    
    42   20   21 2    
    43   20   22 1    
    44   22   23 1    
    45   22   24 1    
    46   22   80 1    
    47   23   81 1    
    48   23   82 1    
    49   23   83 1    
    50   24   25 am   BACKBONE|DICT|INTERRES
    51   24   84 1    
    52   25   26 2    
    53   27   28 2    
    54   27   29 am   BACKBONE|DICT|INTERRES
    55   29   30 1    
    56   29   85 1    
    57   30   31 1    
    58   30   32 1    
    59   30   86 1    
    60   31   87 1    
    61   31   88 1    
    62   31   89 1    
    63   32   33 2    
    64   32   34 am   BACKBONE|DICT|INTERRES
    65   34   35 1    
    66   34   90 1    
    67   35   36 1    
    68   35   37 1    
    69   35   91 1    
    70   36   92 1    
    71   36   93 1    
    72   36   94 1    
    73   37   38 2    
    74   37   39 am   BACKBONE|DICT|INTERRES
    75   39   40 1    
    76   39   95 1    
    77   40   41 1    
    78   40   42 1    
    79   40   96 1    
    80   41   97 1    
    81   41   98 1    
    82   41   99 1    
    83   42   43 2    
    84   42   44 am   BACKBONE|DICT|INTERRES
    85   44   45 1    
    86   44  100 1    
    87   45   46 1    
    88   45   47 1    
    89   45  101 1    
    90   46  102 1    
    91   46  103 1    
    92   46  104 1    
    93   47   48 2    
    94   47   49 am   BACKBONE|DICT|INTERRES
    95   49   50 1    
    96   49  105 1    
    97   50   51 1    
    98   50   52 1    
    99   50  106 1    
   100   51  107 1    
   101   51  108 1    
   102   51  109 1    
   103   52   53 2    
   104   52   54 am   BACKBONE|DICT|INTERRES
   105   54   55 1    
   106   54  110 1    
   107   55   56 1    
   108   55   59 1    
   109   55  111 1    
   110   56   57 am   BACKBONE|DICT|INTERRES
   111   56   58 2    
   112   57  112 1    
   113   57  113 1    
   114   59   60 1    
   115   59  114 1    
   116   59  115 1    
   117   60   61 1    
   118   61  116 1    
   119   61  117 1    
@<TRIPOS>SUBSTRUCTURE
     1 UNK         1 GROUP             0       ****    0 ROOT    
