@<TRIPOS>MOLECULE
3R8
117   119    1
SMALL
USER_CHARGES


@<TRIPOS>ATOM
      1 CA         20.2559  -22.2724  -47.8551 C.3       0 UNK        -0.2013 
      2 C          20.4863  -23.0061  -46.5426 C.2       0 UNK         0.4866 
      3 O          20.8023  -22.3745  -45.5343 O.2       0 UNK        -0.5176 
      4 N          20.3310  -24.3363  -46.5460 N.am      1 UNK        -0.4884 
      5 CA         20.4941  -25.2038  -45.3720 C.3       1 UNK         0.0853 
      6 C6         20.7299  -26.6845  -45.7800 C.3       10 UNK        -0.0849 
      7 S7         19.4198  -27.3832  -46.8486 S.3       10 UNK        -0.2776 
      8 C8         19.7334  -29.1743  -46.7223 C.3       10 UNK         0.0316 
      9 C9         19.2686  -29.7702  -45.3978 C.ar      10 UNK        -0.0863 
     10 C10        20.2004  -30.1075  -44.4109 C.ar      10 UNK        -0.1009 
     11 C11        19.7852  -30.7033  -43.2160 C.ar      10 UNK        -0.0712 
     12 C12        18.4256  -30.9536  -43.0077 C.ar      10 UNK        -0.0894 
     13 C13        17.4821  -30.6263  -43.9860 C.ar      10 UNK        -0.0745 
     14 C14        17.9110  -30.0341  -45.1793 C.ar      10 UNK        -0.0972 
     15 C15        16.0059  -30.9328  -43.7556 C.3       10 UNK         0.0209 
     16 S16        15.0195  -29.4465  -43.3730 S.3       10 UNK        -0.2568 
     17 C17        15.7643  -28.8715  -41.8105 C.3       10 UNK        -0.0983 
     18 CA         16.9251  -27.8550  -42.0090 C.3       3 UNK         0.0876 
     19 N          16.5160  -26.5503  -42.5360 N.am      3 UNK        -0.4424 
     20 C          16.5783  -26.2071  -43.8267 C.2       2 UNK         0.4918 
     21 O          16.5503  -27.0036  -44.7633 O.2       2 UNK        -0.4875 
     22 CA         16.8541  -24.7246  -44.1468 C.3       2 UNK         0.0481 
     23 CB         16.7870  -23.7688  -42.9330 C.3       2 UNK        -0.1831 
     24 N          18.1571  -24.6281  -44.8200 N.am      2 UNK        -0.4498 
     25 C          19.3347  -25.0905  -44.3596 C.2       1 UNK         0.5027 
     26 O          19.5189  -25.4708  -43.2001 O.2       1 UNK        -0.4969 
     27 C          17.7316  -27.5916  -40.7195 C.2       3 UNK         0.5005 
     28 O          17.5020  -28.2426  -39.6989 O.2       3 UNK        -0.5279 
     29 N          18.6317  -26.5978  -40.7737 N.am      4 UNK        -0.4463 
     30 CA         19.4015  -26.0843  -39.6363 C.3       4 UNK         0.0283 
     31 CB         19.1500  -24.5703  -39.5256 C.3       4 UNK        -0.1875 
     32 C          20.9084  -26.3641  -39.7643 C.2       4 UNK         0.4949 
     33 O          21.6521  -26.0581  -38.8325 O.2       4 UNK        -0.5039 
     34 N          21.3452  -26.9291  -40.8993 N.am      5 UNK        -0.4663 
     35 CA         22.7548  -27.1795  -41.2245 C.3       5 UNK         0.0242 
     36 CB         22.8858  -27.3581  -42.7432 C.3       5 UNK        -0.1982 
     37 C          23.4032  -28.3497  -40.4551 C.2       5 UNK         0.5017 
     38 O          24.6167  -28.5308  -40.5669 O.2       5 UNK        -0.5012 
     39 N          22.5995  -29.0998  -39.6845 N.am      6 UNK        -0.4439 
     40 CA         22.9809  -30.1306  -38.7113 C.3       6 UNK         0.0297 
     41 CB         23.5501  -29.4630  -37.4392 C.3       6 UNK        -0.2006 
     42 C          23.9018  -31.2157  -39.3000 C.2       6 UNK         0.4892 
     43 O          23.4177  -32.0884  -40.0185 O.2       6 UNK        -0.5089 
     44 N          25.2074  -31.1379  -39.0038 N.am      7 UNK        -0.4243 
     45 CA         26.2481  -32.0718  -39.4472 C.3       7 UNK         0.0196 
     46 CB         27.5977  -31.6390  -38.8526 C.3       7 UNK        -0.2007 
     47 C          26.3621  -32.2328  -40.9743 C.2       7 UNK         0.5020 
     48 O          26.8219  -33.2805  -41.4287 O.2       7 UNK        -0.5147 
     49 N          25.9106  -31.2283  -41.7405 N.am      8 UNK        -0.4734 
     50 CA         25.8546  -31.2508  -43.2062 C.3       8 UNK         0.0238 
     51 CB         25.3979  -29.8765  -43.7131 C.3       8 UNK        -0.1912 
     52 C          24.9470  -32.3496  -43.7929 C.2       8 UNK         0.5038 
     53 O          25.1811  -32.7577  -44.9312 O.2       8 UNK        -0.5046 
     54 N          23.9497  -32.8065  -43.0230 N.am      9 UNK        -0.4200 
     55 CA         23.0658  -33.9308  -43.3664 C.3       9 UNK         0.0839 
     56 C          23.3050  -35.1895  -42.4818 C.2       9 UNK         0.5513 
     57 N          24.3811  -35.2629  -41.7054 N.am      9 UNK        -0.7519 
     58 O          22.5216  -36.1350  -42.5237 O.2       9 UNK        -0.4960 
     59 C59        21.5783  -33.4930  -43.4574 C.3       10 UNK        -0.0876 
     60 S60        20.8570  -32.8948  -41.8890 S.3       10 UNK        -0.2414 
     61 C61        20.8027  -31.0931  -42.1529 C.3       10 UNK         0.0169 
     62 H62        19.9852  -22.9536  -48.6617 H         1 UNK         0.0903 
     63 H63        19.4530  -21.5444  -47.7421 H         1 UNK         0.0903 
     64 H64        21.1595  -21.7399  -48.1506 H         1 UNK         0.0903 
     65 H65        20.0711  -24.8128  -47.3994 H         1 UNK         0.3096 
     66 H66        21.3860  -24.8670  -44.8386 H         1 UNK         0.1121 
     67 H67        21.6795  -26.7697  -46.3105 H         1 UNK         0.0849 
     68 H68        20.8309  -27.3111  -44.8930 H         1 UNK         0.0849 
     69 H69        19.2106  -29.6755  -47.5382 H         1 UNK         0.0865 
     70 H70        20.7948  -29.3684  -46.8846 H         1 UNK         0.0865 
     71 H71        21.2521  -29.9234  -44.5818 H         1 UNK         0.1346 
     72 H72        18.1061  -31.4181  -42.0847 H         1 UNK         0.1412 
     73 H73        17.1851  -29.7733  -45.9376 H         1 UNK         0.1426 
     74 H74        15.8830  -31.6598  -42.9513 H         1 UNK         0.0716 
     75 H75        15.5955  -31.4019  -44.6509 H         1 UNK         0.0716 
     76 H76        16.1078  -29.7539  -41.2674 H         1 UNK         0.0695 
     77 H77        14.9778  -28.4281  -41.1978 H         1 UNK         0.0695 
     78 H78        17.6488  -28.2860  -42.7018 H         1 UNK         0.0983 
     79 H79        16.5053  -25.8085  -41.8506 H         1 UNK         0.3095 
     80 H80        16.0970  -24.4105  -44.8666 H         1 UNK         0.0454 
     81 H81        15.8060  -23.8031  -42.4575 H         1 UNK         0.0851 
     82 H82        16.9487  -22.7375  -43.2467 H         1 UNK         0.0851 
     83 H83        17.5362  -23.9949  -42.1745 H         1 UNK         0.0851 
     84 H84        18.1234  -24.3758  -45.7974 H         1 UNK         0.2976 
     85 H85        18.8157  -26.1446  -41.6697 H         1 UNK         0.3116 
     86 H86        19.0701  -26.5519  -38.7070 H         1 UNK         0.0646 
     87 H87        18.0907  -24.3526  -39.3891 H         1 UNK         0.0847 
     88 H88        19.4908  -24.0392  -40.4155 H         1 UNK         0.0847 
     89 H89        19.6777  -24.1454  -38.6705 H         1 UNK         0.0847 
     90 H90        20.6700  -27.1270  -41.6236 H         1 UNK         0.3040 
     91 H91        23.3202  -26.2863  -40.9486 H         1 UNK         0.1015 
     92 H92        23.9333  -27.4292  -43.0364 H         1 UNK         0.0786 
     93 H93        22.4715  -26.5017  -43.2734 H         1 UNK         0.0786 
     94 H94        22.3751  -28.2556  -43.0916 H         1 UNK         0.0786 
     95 H95        21.6172  -28.8684  -39.7066 H         1 UNK         0.3172 
     96 H96        22.0591  -30.6407  -38.4273 H         1 UNK         0.0595 
     97 H97        24.4240  -28.8453  -37.6492 H         1 UNK         0.0839 
     98 H98        23.8368  -30.2075  -36.6949 H         1 UNK         0.0839 
     99 H99        22.8042  -28.8190  -36.9728 H         1 UNK         0.0839 
    100 H100       25.5138  -30.3580  -38.4407 H         1 UNK         0.2998 
    101 H101       25.9931  -33.0533  -39.0421 H         1 UNK         0.0822 
    102 H102       27.5661  -31.6229  -37.7629 H         1 UNK         0.0787 
    103 H103       28.3916  -32.3298  -39.1410 H         1 UNK         0.0787 
    104 H104       27.8891  -30.6456  -39.1966 H         1 UNK         0.0787 
    105 H105       25.5413  -30.4033  -41.2798 H         1 UNK         0.3055 
    106 H106       26.8674  -31.4365  -43.5705 H         1 UNK         0.1106 
    107 H107       26.0181  -29.0727  -43.3158 H         1 UNK         0.0828 
    108 H108       25.4516  -29.8228  -44.8013 H         1 UNK         0.0828 
    109 H109       24.3645  -29.6831  -43.4289 H         1 UNK         0.0828 
    110 H110       23.8383  -32.4433  -42.0819 H         1 UNK         0.2931 
    111 H111       23.3232  -34.2817  -44.3669 H         1 UNK         0.0412 
    112 H112       24.5268  -36.0890  -41.1470 H         1 UNK         0.3472 
    113 H113       25.0674  -34.5199  -41.6945 H         1 UNK         0.3472 
    114 H114       21.4765  -32.7236  -44.2230 H         1 UNK         0.0970 
    115 H115       20.9651  -34.3241  -43.8101 H         1 UNK         0.0970 
    116 H116       21.8022  -30.7380  -42.4087 H         1 UNK         0.0612 
    117 H117       20.5350  -30.6107  -41.2123 H         1 UNK         0.0612 
@<TRIPOS>BOND
     1    1    2 1    
     2    1   62 1    
     3    1   63 1    
     4    1   64 1    
     5    2    3 2    
     6    2    4 am   BACKBONE|DICT|INTERRES
     7    4    5 1    
     8    4   65 1    
     9    5    6 1    
    10    5   25 1    
    11    5   66 1    
    12    6    7 1    
    13    6   67 1    
    14    6   68 1    
    15    7    8 1    
    16    8    9 1    
    17    8   69 1    
    18    8   70 1    
    19    9   10 ar   
    20    9   14 ar   
    21   10   11 ar   
    22   10   71 1    
    23   11   12 ar   
    24   11   61 1    
    25   12   13 ar   
    26   12   72 1    
    27   13   14 ar   
    28   13   15 1    
    29   14   73 1    
    30   15   16 1    
    31   15   74 1    
    32   15   75 1    
    33   16   17 1    
    34   17   18 1    
    35   17   76 1    
    36   17   77 1    
    37   18   19 1    
    38   18   27 1    
    39   18   78 1    
    40   19   20 am   BACKBONE|DICT|INTERRES
    41   19   79 1    
    42   20   21 2    
    43   20   22 1    
    44   22   23 1    
    45   22   24 1    
    46   22   80 1    
    47   23   81 1    
    48   23   82 1    
    49   23   83 1    
    50   24   25 am   BACKBONE|DICT|INTERRES
    51   24   84 1    
    52   25   26 2    
    53   27   28 2    
    54   27   29 am   BACKBONE|DICT|INTERRES
    55   29   30 1    
    56   29   85 1    
    57   30   31 1    
    58   30   32 1    
    59   30   86 1    
    60   31   87 1    
    61   31   88 1    
    62   31   89 1    
    63   32   33 2    
    64   32   34 am   BACKBONE|DICT|INTERRES
    65   34   35 1    
    66   34   90 1    
    67   35   36 1    
    68   35   37 1    
    69   35   91 1    
    70   36   92 1    
    71   36   93 1    
    72   36   94 1    
    73   37   38 2    
    74   37   39 am   BACKBONE|DICT|INTERRES
    75   39   40 1    
    76   39   95 1    
    77   40   41 1    
    78   40   42 1    
    79   40   96 1    
    80   41   97 1    
    81   41   98 1    
    82   41   99 1    
    83   42   43 2    
    84   42   44 am   BACKBONE|DICT|INTERRES
    85   44   45 1    
    86   44  100 1    
    87   45   46 1    
    88   45   47 1    
    89   45  101 1    
    90   46  102 1    
    91   46  103 1    
    92   46  104 1    
    93   47   48 2    
    94   47   49 am   BACKBONE|DICT|INTERRES
    95   49   50 1    
    96   49  105 1    
    97   50   51 1    
    98   50   52 1    
    99   50  106 1    
   100   51  107 1    
   101   51  108 1    
   102   51  109 1    
   103   52   53 2    
   104   52   54 am   BACKBONE|DICT|INTERRES
   105   54   55 1    
   106   54  110 1    
   107   55   56 1    
   108   55   59 1    
   109   55  111 1    
   110   56   57 am   BACKBONE|DICT|INTERRES
   111   56   58 2    
   112   57  112 1    
   113   57  113 1    
   114   59   60 1    
   115   59  114 1    
   116   59  115 1    
   117   60   61 1    
   118   61  116 1    
   119   61  117 1    
@<TRIPOS>SUBSTRUCTURE
     1 UNK         1 GROUP             0       ****    0 ROOT    
