@<TRIPOS>MOLECULE
3R8
117   119    1
SMALL
USER_CHARGES


@<TRIPOS>ATOM
      1 CA         15.7305  -25.4768  -46.2410 C.3       0 UNK        -0.2013 
      2 C          17.1759  -25.3376  -46.6926 C.2       0 UNK         0.4866 
      3 O          17.5144  -24.3748  -47.3803 O.2       0 UNK        -0.5176 
      4 N          18.0374  -26.2843  -46.3022 N.am      1 UNK        -0.4884 
      5 CA         19.4447  -26.3794  -46.7238 C.3       1 UNK         0.0853 
      6 C6         19.9044  -27.8565  -46.8944 C.3       10 UNK        -0.0849 
      7 S7         18.7311  -28.8808  -47.8534 S.3       10 UNK        -0.2776 
      8 C8         18.7089  -30.4509  -46.9161 C.3       10 UNK         0.0316 
      9 C9         18.3982  -30.2891  -45.4293 C.ar      10 UNK        -0.0863 
     10 C10        19.2216  -30.9038  -44.4792 C.ar      10 UNK        -0.1009 
     11 C11        18.9555  -30.7700  -43.1137 C.ar      10 UNK        -0.0712 
     12 C12        17.8583  -30.0144  -42.6980 C.ar      10 UNK        -0.0894 
     13 C13        17.0342  -29.3840  -43.6334 C.ar      10 UNK        -0.0745 
     14 C14        17.2978  -29.5387  -44.9984 C.ar      10 UNK        -0.0972 
     15 C15        15.8623  -28.5352  -43.1662 C.3       10 UNK         0.0209 
     16 S16        16.3511  -26.7977  -42.9231 S.3       10 UNK        -0.2568 
     17 C17        17.3143  -26.8701  -41.3715 C.3       10 UNK        -0.0983 
     18 CA         18.8417  -26.7415  -41.6016 C.3       3 UNK         0.0876 
     19 N          19.1618  -25.5300  -42.3683 N.am      3 UNK        -0.4424 
     20 C          20.3726  -25.0662  -42.7043 C.2       2 UNK         0.4918 
     21 O          21.4305  -25.4834  -42.2354 O.2       2 UNK        -0.4875 
     22 CA         20.3741  -24.0052  -43.8180 C.3       2 UNK         0.0481 
     23 CB         21.7519  -23.3413  -44.0291 C.3       2 UNK        -0.1831 
     24 N          19.8464  -24.6068  -45.0505 N.am      2 UNK        -0.4498 
     25 C          20.3820  -25.6180  -45.7566 C.2       1 UNK         0.5027 
     26 O          21.5475  -25.9951  -45.6302 O.2       1 UNK        -0.4969 
     27 C          19.5970  -26.9042  -40.2651 C.2       3 UNK         0.5005 
     28 O          19.9067  -28.0337  -39.8861 O.2       3 UNK        -0.5279 
     29 N          19.8861  -25.7875  -39.5821 N.am      4 UNK        -0.4463 
     30 CA         20.6412  -25.7573  -38.3261 C.3       4 UNK         0.0283 
     31 CB         20.4002  -24.4099  -37.6261 C.3       4 UNK        -0.1875 
     32 C          22.1522  -26.0011  -38.5050 C.2       4 UNK         0.4949 
     33 O          22.7962  -26.4637  -37.5630 O.2       4 UNK        -0.5039 
     34 N          22.6940  -25.6707  -39.6845 N.am      5 UNK        -0.4663 
     35 CA         24.1141  -25.8011  -40.0222 C.3       5 UNK         0.0242 
     36 CB         24.5634  -24.5277  -40.7585 C.3       5 UNK        -0.1982 
     37 C          24.4025  -27.0386  -40.8878 C.2       5 UNK         0.5017 
     38 O          25.5388  -27.5128  -40.8826 O.2       5 UNK        -0.5012 
     39 N          23.3920  -27.5162  -41.6288 N.am      6 UNK        -0.4439 
     40 CA         23.4416  -28.6482  -42.5555 C.3       6 UNK         0.0297 
     41 CB         22.0634  -28.8074  -43.2181 C.3       6 UNK        -0.2006 
     42 C          23.8931  -29.9580  -41.8835 C.2       6 UNK         0.4892 
     43 O          23.1221  -30.5717  -41.1435 O.2       6 UNK        -0.5089 
     44 N          25.1351  -30.3657  -42.1756 N.am      7 UNK        -0.4243 
     45 CA         25.8007  -31.5477  -41.6164 C.3       7 UNK         0.0196 
     46 CB         27.3133  -31.4250  -41.8690 C.3       7 UNK        -0.2007 
     47 C          25.2696  -32.8940  -42.1456 C.2       7 UNK         0.5020 
     48 O          25.6737  -33.9381  -41.6338 O.2       7 UNK        -0.5147 
     49 N          24.3903  -32.8622  -43.1572 N.am      8 UNK        -0.4734 
     50 CA         23.7350  -34.0370  -43.7417 C.3       8 UNK         0.0238 
     51 CB         22.9796  -33.6105  -45.0115 C.3       8 UNK        -0.1912 
     52 C          22.7828  -34.7613  -42.7715 C.2       8 UNK         0.5038 
     53 O          22.5830  -35.9679  -42.9177 O.2       8 UNK        -0.5046 
     54 N          22.2165  -34.0190  -41.8128 N.am      9 UNK        -0.4200 
     55 CA         21.3606  -34.5443  -40.7442 C.3       9 UNK         0.0839 
     56 C          22.2225  -35.1101  -39.5873 C.2       9 UNK         0.5513 
     57 N          21.9194  -36.3104  -39.1131 N.am      9 UNK        -0.7519 
     58 O          23.1321  -34.4512  -39.0883 O.2       9 UNK        -0.4960 
     59 C59        20.3795  -33.4637  -40.2271 C.3       10 UNK        -0.0876 
     60 S60        19.1546  -32.9911  -41.4933 S.3       10 UNK        -0.2414 
     61 C61        19.8575  -31.4230  -42.0798 C.3       10 UNK         0.0169 
     62 H62        15.5164  -26.4804  -45.8742 H         1 UNK         0.0903 
     63 H63        15.5143  -24.7665  -45.4435 H         1 UNK         0.0903 
     64 H64        15.0552  -25.2740  -47.0717 H         1 UNK         0.0903 
     65 H65        17.7168  -27.0369  -45.7092 H         1 UNK         0.3096 
     66 H66        19.5527  -25.8947  -47.6968 H         1 UNK         0.1121 
     67 H67        20.8693  -27.8937  -47.4037 H         1 UNK         0.0849 
     68 H68        20.0713  -28.3121  -45.9173 H         1 UNK         0.0849 
     69 H69        19.6730  -30.9428  -47.0550 H         1 UNK         0.0865 
     70 H70        17.9633  -31.1128  -47.3584 H         1 UNK         0.0865 
     71 H71        20.0718  -31.4894  -44.8004 H         1 UNK         0.1346 
     72 H72        17.6552  -29.9124  -41.6410 H         1 UNK         0.1412 
     73 H73        16.6529  -29.0678  -45.7277 H         1 UNK         0.1426 
     74 H74        15.4399  -28.9355  -42.2433 H         1 UNK         0.0716 
     75 H75        15.0613  -28.5730  -43.9061 H         1 UNK         0.0716 
     76 H76        17.0745  -27.7925  -40.8403 H         1 UNK         0.0695 
     77 H77        16.9620  -26.0605  -40.7294 H         1 UNK         0.0695 
     78 H78        19.1593  -27.5761  -42.2288 H         1 UNK         0.0983 
     79 H79        18.3608  -25.1075  -42.8146 H         1 UNK         0.3095 
     80 H80        19.6730  -23.2233  -43.5228 H         1 UNK         0.0454 
     81 H81        22.0600  -22.8035  -43.1319 H         1 UNK         0.0851 
     82 H82        21.7242  -22.6215  -44.8467 H         1 UNK         0.0851 
     83 H83        22.5354  -24.0671  -44.2477 H         1 UNK         0.0851 
     84 H84        18.8934  -24.3620  -45.2825 H         1 UNK         0.2976 
     85 H85        19.5943  -24.9003  -39.9667 H         1 UNK         0.3116 
     86 H86        20.2572  -26.5478  -37.6773 H         1 UNK         0.0646 
     87 H87        20.9248  -24.3680  -36.6704 H         1 UNK         0.0847 
     88 H88        19.3417  -24.2527  -37.4184 H         1 UNK         0.0847 
     89 H89        20.7545  -23.5718  -38.2276 H         1 UNK         0.0847 
     90 H90        22.0856  -25.3506  -40.4319 H         1 UNK         0.3040 
     91 H91        24.7106  -25.8945  -39.1118 H         1 UNK         0.1015 
     92 H92        24.4187  -23.6413  -40.1405 H         1 UNK         0.0786 
     93 H93        24.0113  -24.3822  -41.6882 H         1 UNK         0.0786 
     94 H94        25.6233  -24.5759  -41.0121 H         1 UNK         0.0786 
     95 H95        22.5242  -26.9920  -41.6157 H         1 UNK         0.3172 
     96 H96        24.1573  -28.3939  -43.3398 H         1 UNK         0.0595 
     97 H97        21.2803  -28.9610  -42.4758 H         1 UNK         0.0839 
     98 H98        22.0463  -29.6586  -43.8995 H         1 UNK         0.0839 
     99 H99        21.7988  -27.9241  -43.7982 H         1 UNK         0.0839 
    100 H100       25.6980  -29.7828  -42.7790 H         1 UNK         0.2998 
    101 H101       25.6341  -31.5456  -40.5369 H         1 UNK         0.0822 
    102 H102       27.7158  -30.5112  -41.4310 H         1 UNK         0.0787 
    103 H103       27.8552  -32.2600  -41.4225 H         1 UNK         0.0787 
    104 H104       27.5450  -31.4189  -42.9348 H         1 UNK         0.0787 
    105 H105       24.1336  -31.9602  -43.5301 H         1 UNK         0.3055 
    106 H106       24.5129  -34.7501  -44.0239 H         1 UNK         0.1106 
    107 H107       22.1994  -32.8809  -44.7920 H         1 UNK         0.0828 
    108 H108       23.6537  -33.1727  -45.7479 H         1 UNK         0.0828 
    109 H109       22.4990  -34.4676  -45.4855 H         1 UNK         0.0828 
    110 H110       22.4868  -33.0493  -41.7305 H         1 UNK         0.2931 
    111 H111       20.7620  -35.3611  -41.1543 H         1 UNK         0.0412 
    112 H112       22.4589  -36.6873  -38.3490 H         1 UNK         0.3472 
    113 H113       21.1687  -36.8535  -39.5118 H         1 UNK         0.3472 
    114 H114       20.9189  -32.5821  -39.8738 H         1 UNK         0.0970 
    115 H115       19.8222  -33.8392  -39.3667 H         1 UNK         0.0970 
    116 H116       19.9986  -30.7467  -41.2348 H         1 UNK         0.0612 
    117 H117       20.8467  -31.6044  -42.5012 H         1 UNK         0.0612 
@<TRIPOS>BOND
     1    1    2 1    
     2    1   62 1    
     3    1   63 1    
     4    1   64 1    
     5    2    3 2    
     6    2    4 am   BACKBONE|DICT|INTERRES
     7    4    5 1    
     8    4   65 1    
     9    5    6 1    
    10    5   25 1    
    11    5   66 1    
    12    6    7 1    
    13    6   67 1    
    14    6   68 1    
    15    7    8 1    
    16    8    9 1    
    17    8   69 1    
    18    8   70 1    
    19    9   10 ar   
    20    9   14 ar   
    21   10   11 ar   
    22   10   71 1    
    23   11   12 ar   
    24   11   61 1    
    25   12   13 ar   
    26   12   72 1    
    27   13   14 ar   
    28   13   15 1    
    29   14   73 1    
    30   15   16 1    
    31   15   74 1    
    32   15   75 1    
    33   16   17 1    
    34   17   18 1    
    35   17   76 1    
    36   17   77 1    
    37   18   19 1    
    38   18   27 1    
    39   18   78 1    
    40   19   20 am   BACKBONE|DICT|INTERRES
    41   19   79 1    
    42   20   21 2    
    43   20   22 1    
    44   22   23 1    
    45   22   24 1    
    46   22   80 1    
    47   23   81 1    
    48   23   82 1    
    49   23   83 1    
    50   24   25 am   BACKBONE|DICT|INTERRES
    51   24   84 1    
    52   25   26 2    
    53   27   28 2    
    54   27   29 am   BACKBONE|DICT|INTERRES
    55   29   30 1    
    56   29   85 1    
    57   30   31 1    
    58   30   32 1    
    59   30   86 1    
    60   31   87 1    
    61   31   88 1    
    62   31   89 1    
    63   32   33 2    
    64   32   34 am   BACKBONE|DICT|INTERRES
    65   34   35 1    
    66   34   90 1    
    67   35   36 1    
    68   35   37 1    
    69   35   91 1    
    70   36   92 1    
    71   36   93 1    
    72   36   94 1    
    73   37   38 2    
    74   37   39 am   BACKBONE|DICT|INTERRES
    75   39   40 1    
    76   39   95 1    
    77   40   41 1    
    78   40   42 1    
    79   40   96 1    
    80   41   97 1    
    81   41   98 1    
    82   41   99 1    
    83   42   43 2    
    84   42   44 am   BACKBONE|DICT|INTERRES
    85   44   45 1    
    86   44  100 1    
    87   45   46 1    
    88   45   47 1    
    89   45  101 1    
    90   46  102 1    
    91   46  103 1    
    92   46  104 1    
    93   47   48 2    
    94   47   49 am   BACKBONE|DICT|INTERRES
    95   49   50 1    
    96   49  105 1    
    97   50   51 1    
    98   50   52 1    
    99   50  106 1    
   100   51  107 1    
   101   51  108 1    
   102   51  109 1    
   103   52   53 2    
   104   52   54 am   BACKBONE|DICT|INTERRES
   105   54   55 1    
   106   54  110 1    
   107   55   56 1    
   108   55   59 1    
   109   55  111 1    
   110   56   57 am   BACKBONE|DICT|INTERRES
   111   56   58 2    
   112   57  112 1    
   113   57  113 1    
   114   59   60 1    
   115   59  114 1    
   116   59  115 1    
   117   60   61 1    
   118   61  116 1    
   119   61  117 1    
@<TRIPOS>SUBSTRUCTURE
     1 UNK         1 GROUP             0       ****    0 ROOT    
