@<TRIPOS>MOLECULE
3R8
117   119    1
SMALL
USER_CHARGES


@<TRIPOS>ATOM
      1 CA         19.0894  -25.1085  -51.2442 C.3       0 UNK        -0.2013 
      2 C          19.2679  -25.9855  -50.0137 C.2       0 UNK         0.4866 
      3 O          20.3113  -26.6220  -49.8619 O.2       0 UNK        -0.5176 
      4 N          18.2556  -26.0312  -49.1384 N.am      1 UNK        -0.4884 
      5 CA         18.2848  -26.7642  -47.8687 C.3       1 UNK         0.0853 
      6 C6         16.8493  -26.9839  -47.3248 C.3       10 UNK        -0.0849 
      7 S7         16.7566  -28.3505  -46.1187 S.3       10 UNK        -0.2776 
      8 C8         16.4610  -27.4336  -44.5637 C.3       10 UNK         0.0316 
      9 C9         16.5961  -28.2456  -43.2715 C.ar      10 UNK        -0.0863 
     10 C10        16.7832  -29.6362  -43.2538 C.ar      10 UNK        -0.1009 
     11 C11        16.9296  -30.3230  -42.0451 C.ar      10 UNK        -0.0712 
     12 C12        16.8647  -29.6197  -40.8412 C.ar      10 UNK        -0.0894 
     13 C13        16.7149  -28.2319  -40.8402 C.ar      10 UNK        -0.0745 
     14 C14        16.5613  -27.5550  -42.0543 C.ar      10 UNK        -0.0972 
     15 C15        16.8108  -27.4657  -39.5298 C.3       10 UNK         0.0209 
     16 S16        18.5052  -27.5374  -38.8509 S.3       10 UNK        -0.2568 
     17 C17        19.4626  -26.6508  -40.1281 C.3       10 UNK        -0.0983 
     18 CA         20.0397  -27.5786  -41.2324 C.3       3 UNK         0.0876 
     19 N          20.2884  -26.8151  -42.4558 N.am      3 UNK        -0.4424 
     20 C          20.3936  -27.3458  -43.6777 C.2       2 UNK         0.4918 
     21 O          20.3156  -28.5510  -43.9247 O.2       2 UNK        -0.4875 
     22 CA         20.6067  -26.3545  -44.8255 C.3       2 UNK         0.0481 
     23 CB         22.0912  -26.2476  -45.2102 C.3       2 UNK        -0.1831 
     24 N          19.8259  -26.8197  -45.9657 N.am      2 UNK        -0.4498 
     25 C          19.1808  -26.0408  -46.8394 C.2       1 UNK         0.5027 
     26 O          19.2364  -24.8077  -46.8323 O.2       1 UNK        -0.4969 
     27 C          21.3082  -28.3192  -40.7695 C.2       3 UNK         0.5005 
     28 O          22.4206  -27.8897  -41.0860 O.2       3 UNK        -0.5279 
     29 N          21.1268  -29.3821  -39.9729 N.am      4 UNK        -0.4463 
     30 CA         22.1894  -30.2211  -39.4003 C.3       4 UNK         0.0283 
     31 CB         21.5540  -31.4040  -38.6521 C.3       4 UNK        -0.1875 
     32 C          23.1903  -29.4829  -38.4882 C.2       4 UNK         0.4949 
     33 O          24.2677  -30.0139  -38.2230 O.2       4 UNK        -0.5039 
     34 N          22.8357  -28.2724  -38.0370 N.am      5 UNK        -0.4663 
     35 CA         23.7332  -27.3489  -37.3409 C.3       5 UNK         0.0242 
     36 CB         22.8932  -26.2419  -36.6831 C.3       5 UNK        -0.1982 
     37 C          24.8073  -26.7327  -38.2609 C.2       5 UNK         0.5017 
     38 O          25.8456  -26.3068  -37.7535 O.2       5 UNK        -0.5012 
     39 N          24.5410  -26.6804  -39.5743 N.am      6 UNK        -0.4439 
     40 CA         25.4264  -26.1165  -40.5956 C.3       6 UNK         0.0297 
     41 CB         24.6749  -25.0104  -41.3563 C.3       6 UNK        -0.2006 
     42 C          25.9255  -27.1888  -41.5767 C.2       6 UNK         0.4892 
     43 O          27.0990  -27.1563  -41.9497 O.2       6 UNK        -0.5089 
     44 N          25.0348  -28.1003  -41.9854 N.am      7 UNK        -0.4243 
     45 CA         25.2874  -29.1723  -42.9447 C.3       7 UNK         0.0196 
     46 CB         24.4669  -28.8946  -44.2217 C.3       7 UNK        -0.2007 
     47 C          24.9791  -30.5228  -42.2776 C.2       7 UNK         0.5020 
     48 O          25.5383  -30.8112  -41.2196 O.2       7 UNK        -0.5147 
     49 N          24.1141  -31.3334  -42.8948 N.am      8 UNK        -0.4734 
     50 CA         23.6547  -32.6319  -42.4101 C.3       8 UNK         0.0238 
     51 CB         24.6743  -33.7245  -42.7817 C.3       8 UNK        -0.1912 
     52 C          22.2845  -32.9203  -43.0347 C.2       8 UNK         0.5038 
     53 O          21.9838  -32.3820  -44.1042 O.2       8 UNK        -0.5046 
     54 N          21.5010  -33.7735  -42.3693 N.am      9 UNK        -0.4200 
     55 CA         20.1716  -34.2245  -42.8059 C.3       9 UNK         0.0839 
     56 C          20.2034  -35.7394  -43.1280 C.2       9 UNK         0.5513 
     57 N          19.4149  -36.1841  -44.0962 N.am      9 UNK        -0.7519 
     58 O          20.9076  -36.5185  -42.4878 O.2       9 UNK        -0.4960 
     59 C59        19.0904  -33.9165  -41.7374 C.3       10 UNK        -0.0876 
     60 S60        18.9135  -32.1246  -41.4502 S.3       10 UNK        -0.2414 
     61 C61        17.2179  -31.8156  -42.0333 C.3       10 UNK         0.0169 
     62 H62        19.1788  -25.7088  -52.1492 H         1 UNK         0.0903 
     63 H63        18.1165  -24.6174  -51.2581 H         1 UNK         0.0903 
     64 H64        19.8588  -24.3372  -51.2693 H         1 UNK         0.0903 
     65 H65        17.4379  -25.4595  -49.2976 H         1 UNK         0.3096 
     66 H66        18.7273  -27.7421  -48.0752 H         1 UNK         0.1121 
     67 H67        16.4358  -26.0655  -46.9026 H         1 UNK         0.0849 
     68 H68        16.1828  -27.2550  -48.1455 H         1 UNK         0.0849 
     69 H69        17.1608  -26.5978  -44.5174 H         1 UNK         0.0865 
     70 H70        15.4608  -26.9996  -44.6016 H         1 UNK         0.0865 
     71 H71        16.8405  -30.1959  -44.1757 H         1 UNK         0.1346 
     72 H72        17.0017  -30.1455  -39.9058 H         1 UNK         0.1412 
     73 H73        16.4502  -26.4789  -42.0537 H         1 UNK         0.1426 
     74 H74        16.1181  -27.8982  -38.8064 H         1 UNK         0.0716 
     75 H75        16.5128  -26.4240  -39.6588 H         1 UNK         0.0716 
     76 H76        20.2549  -26.0783  -39.6415 H         1 UNK         0.0695 
     77 H77        18.7986  -25.9062  -40.5706 H         1 UNK         0.0695 
     78 H78        19.3056  -28.3441  -41.4856 H         1 UNK         0.0983 
     79 H79        20.4143  -25.8206  -42.3415 H         1 UNK         0.3095 
     80 H80        20.2475  -25.3736  -44.5060 H         1 UNK         0.0454 
     81 H81        22.4680  -27.1878  -45.6130 H         1 UNK         0.0851 
     82 H82        22.7055  -25.9883  -44.3467 H         1 UNK         0.0851 
     83 H83        22.2477  -25.4769  -45.9650 H         1 UNK         0.0851 
     84 H84        19.6772  -27.8218  -45.9832 H         1 UNK         0.2976 
     85 H85        20.1785  -29.6435  -39.7391 H         1 UNK         0.3116 
     86 H86        22.7654  -30.6179  -40.2362 H         1 UNK         0.0646 
     87 H87        20.9090  -31.0679  -37.8394 H         1 UNK         0.0847 
     88 H88        22.3186  -32.0482  -38.2154 H         1 UNK         0.0847 
     89 H89        20.9597  -32.0263  -39.3198 H         1 UNK         0.0847 
     90 H90        21.9168  -27.9278  -38.2738 H         1 UNK         0.3040 
     91 H91        24.2537  -27.9008  -36.5548 H         1 UNK         0.1015 
     92 H92        22.1746  -26.6560  -35.9754 H         1 UNK         0.0786 
     93 H93        22.3409  -25.6598  -37.4221 H         1 UNK         0.0786 
     94 H94        23.5273  -25.5480  -36.1293 H         1 UNK         0.0786 
     95 H95        23.6761  -27.0939  -39.9122 H         1 UNK         0.3172 
     96 H96        26.3054  -25.6652  -40.1310 H         1 UNK         0.0595 
     97 H97        23.7747  -25.3909  -41.8412 H         1 UNK         0.0839 
     98 H98        25.3042  -24.5726  -42.1324 H         1 UNK         0.0839 
     99 H99        24.3778  -24.2030  -40.6870 H         1 UNK         0.0839 
    100 H100       24.0842  -28.0577  -41.6198 H         1 UNK         0.2998 
    101 H101       26.3439  -29.1996  -43.2191 H         1 UNK         0.0822 
    102 H102       24.7356  -27.9295  -44.6516 H         1 UNK         0.0787 
    103 H103       24.6559  -29.6454  -44.9901 H         1 UNK         0.0787 
    104 H104       23.3946  -28.8786  -44.0191 H         1 UNK         0.0787 
    105 H105       23.6477  -31.0232  -43.7394 H         1 UNK         0.3055 
    106 H106       23.5416  -32.5931  -41.3245 H         1 UNK         0.1106 
    107 H107       24.3422  -34.7056  -42.4398 H         1 UNK         0.0828 
    108 H108       24.8209  -33.7867  -43.8607 H         1 UNK         0.0828 
    109 H109       25.6448  -33.5354  -42.3227 H         1 UNK         0.0828 
    110 H110       21.8552  -34.2283  -41.5403 H         1 UNK         0.2931 
    111 H111       19.8885  -33.7034  -43.7230 H         1 UNK         0.0412 
    112 H112       18.8281  -35.5548  -44.6225 H         1 UNK         0.3472 
    113 H113       19.4112  -37.1692  -44.3120 H         1 UNK         0.3472 
    114 H114       19.3393  -34.3937  -40.7877 H         1 UNK         0.0970 
    115 H115       18.1249  -34.3288  -42.0370 H         1 UNK         0.0970 
    116 H116       16.5073  -32.3240  -41.3801 H         1 UNK         0.0612 
    117 H117       17.0951  -32.2412  -43.0305 H         1 UNK         0.0612 
@<TRIPOS>BOND
     1    1    2 1    
     2    1   62 1    
     3    1   63 1    
     4    1   64 1    
     5    2    3 2    
     6    2    4 am   BACKBONE|DICT|INTERRES
     7    4    5 1    
     8    4   65 1    
     9    5    6 1    
    10    5   25 1    
    11    5   66 1    
    12    6    7 1    
    13    6   67 1    
    14    6   68 1    
    15    7    8 1    
    16    8    9 1    
    17    8   69 1    
    18    8   70 1    
    19    9   10 ar   
    20    9   14 ar   
    21   10   11 ar   
    22   10   71 1    
    23   11   12 ar   
    24   11   61 1    
    25   12   13 ar   
    26   12   72 1    
    27   13   14 ar   
    28   13   15 1    
    29   14   73 1    
    30   15   16 1    
    31   15   74 1    
    32   15   75 1    
    33   16   17 1    
    34   17   18 1    
    35   17   76 1    
    36   17   77 1    
    37   18   19 1    
    38   18   27 1    
    39   18   78 1    
    40   19   20 am   BACKBONE|DICT|INTERRES
    41   19   79 1    
    42   20   21 2    
    43   20   22 1    
    44   22   23 1    
    45   22   24 1    
    46   22   80 1    
    47   23   81 1    
    48   23   82 1    
    49   23   83 1    
    50   24   25 am   BACKBONE|DICT|INTERRES
    51   24   84 1    
    52   25   26 2    
    53   27   28 2    
    54   27   29 am   BACKBONE|DICT|INTERRES
    55   29   30 1    
    56   29   85 1    
    57   30   31 1    
    58   30   32 1    
    59   30   86 1    
    60   31   87 1    
    61   31   88 1    
    62   31   89 1    
    63   32   33 2    
    64   32   34 am   BACKBONE|DICT|INTERRES
    65   34   35 1    
    66   34   90 1    
    67   35   36 1    
    68   35   37 1    
    69   35   91 1    
    70   36   92 1    
    71   36   93 1    
    72   36   94 1    
    73   37   38 2    
    74   37   39 am   BACKBONE|DICT|INTERRES
    75   39   40 1    
    76   39   95 1    
    77   40   41 1    
    78   40   42 1    
    79   40   96 1    
    80   41   97 1    
    81   41   98 1    
    82   41   99 1    
    83   42   43 2    
    84   42   44 am   BACKBONE|DICT|INTERRES
    85   44   45 1    
    86   44  100 1    
    87   45   46 1    
    88   45   47 1    
    89   45  101 1    
    90   46  102 1    
    91   46  103 1    
    92   46  104 1    
    93   47   48 2    
    94   47   49 am   BACKBONE|DICT|INTERRES
    95   49   50 1    
    96   49  105 1    
    97   50   51 1    
    98   50   52 1    
    99   50  106 1    
   100   51  107 1    
   101   51  108 1    
   102   51  109 1    
   103   52   53 2    
   104   52   54 am   BACKBONE|DICT|INTERRES
   105   54   55 1    
   106   54  110 1    
   107   55   56 1    
   108   55   59 1    
   109   55  111 1    
   110   56   57 am   BACKBONE|DICT|INTERRES
   111   56   58 2    
   112   57  112 1    
   113   57  113 1    
   114   59   60 1    
   115   59  114 1    
   116   59  115 1    
   117   60   61 1    
   118   61  116 1    
   119   61  117 1    
@<TRIPOS>SUBSTRUCTURE
     1 UNK         1 GROUP             0       ****    0 ROOT    
