@<TRIPOS>MOLECULE
3R8
117   119    1
SMALL
USER_CHARGES


@<TRIPOS>ATOM
      1 CA         16.2111  -23.0523  -48.3473 C.3       0 UNK        -0.2013 
      2 C          15.8106  -24.0903  -47.3089 C.2       0 UNK         0.4866 
      3 O          14.8244  -23.8875  -46.6002 O.2       0 UNK        -0.5176 
      4 N          16.5674  -25.1950  -47.2298 N.am      1 UNK        -0.4884 
      5 CA         16.4271  -26.3105  -46.2808 C.3       1 UNK         0.0853 
      6 C6         15.0110  -26.9590  -46.3204 C.3       10 UNK        -0.0849 
      7 S7         14.8369  -28.6254  -45.5848 S.3       10 UNK        -0.2776 
      8 C8         15.9935  -29.6564  -46.5451 C.3       10 UNK         0.0316 
      9 C9         17.3486  -29.7835  -45.8583 C.ar      10 UNK        -0.0863 
     10 C10        17.4485  -30.4200  -44.6157 C.ar      10 UNK        -0.1009 
     11 C11        18.6896  -30.5761  -43.9896 C.ar      10 UNK        -0.0712 
     12 C12        19.8345  -30.0849  -44.6196 C.ar      10 UNK        -0.0894 
     13 C13        19.7513  -29.4356  -45.8531 C.ar      10 UNK        -0.0745 
     14 C14        18.5074  -29.3007  -46.4746 C.ar      10 UNK        -0.0972 
     15 C15        21.0053  -28.9029  -46.5294 C.3       10 UNK         0.0209 
     16 S16        21.3328  -27.1699  -46.0759 S.3       10 UNK        -0.2568 
     17 C17        22.1026  -27.3422  -44.4289 C.3       10 UNK        -0.0983 
     18 CA         21.3392  -26.5802  -43.3174 C.3       3 UNK         0.0876 
     19 N          19.9291  -26.9885  -43.2283 N.am      3 UNK        -0.4424 
     20 C          18.9806  -26.3432  -42.5352 C.2       2 UNK         0.4918 
     21 O          19.1895  -25.3321  -41.8629 O.2       2 UNK        -0.4875 
     22 CA         17.5631  -26.9358  -42.6312 C.3       2 UNK         0.0481 
     23 CB         16.5479  -26.2281  -41.7101 C.3       2 UNK        -0.1831 
     24 N          17.0738  -26.9718  -44.0127 N.am      2 UNK        -0.4498 
     25 C          16.9162  -25.9421  -44.8587 C.2       1 UNK         0.5027 
     26 O          17.1688  -24.7707  -44.5653 O.2       1 UNK        -0.4969 
     27 C          22.1052  -26.6788  -41.9767 C.2       3 UNK         0.5005 
     28 O          23.1907  -26.1045  -41.8664 O.2       3 UNK        -0.5279 
     29 N          21.5371  -27.3901  -40.9899 N.am      4 UNK        -0.4463 
     30 CA         22.0564  -27.6055  -39.6374 C.3       4 UNK         0.0283 
     31 CB         22.0880  -26.2814  -38.8398 C.3       4 UNK        -0.1875 
     32 C          23.3916  -28.3686  -39.6690 C.2       4 UNK         0.4949 
     33 O          23.4957  -29.3394  -40.4164 O.2       4 UNK        -0.5039 
     34 N          24.3795  -27.9359  -38.8719 N.am      5 UNK        -0.4663 
     35 CA         25.6735  -28.5971  -38.6421 C.3       5 UNK         0.0242 
     36 CB         26.4641  -27.7839  -37.6035 C.3       5 UNK        -0.1982 
     37 C          26.5393  -28.8602  -39.8911 C.2       5 UNK         0.5017 
     38 O          27.4714  -29.6614  -39.8124 O.2       5 UNK        -0.5012 
     39 N          26.2195  -28.2085  -41.0167 N.am      6 UNK        -0.4439 
     40 CA         26.7952  -28.4848  -42.3346 C.3       6 UNK         0.0297 
     41 CB         26.4793  -27.3032  -43.2668 C.3       6 UNK        -0.2006 
     42 C          26.3003  -29.8080  -42.9587 C.2       6 UNK         0.4892 
     43 O          26.8948  -30.2583  -43.9392 O.2       6 UNK        -0.5089 
     44 N          25.2256  -30.3912  -42.4133 N.am      7 UNK        -0.4243 
     45 CA         24.5531  -31.5898  -42.9031 C.3       7 UNK         0.0196 
     46 CB         23.3159  -31.1397  -43.6975 C.3       7 UNK        -0.2007 
     47 C          24.1690  -32.5080  -41.7298 C.2       7 UNK         0.5020 
     48 O          24.5700  -32.2743  -40.5873 O.2       7 UNK        -0.5147 
     49 N          23.3871  -33.5523  -42.0368 N.am      8 UNK        -0.4734 
     50 CA         22.9158  -34.5687  -41.0885 C.3       8 UNK         0.0238 
     51 CB         22.2313  -35.7036  -41.8682 C.3       8 UNK        -0.1912 
     52 C          21.9801  -34.0385  -39.9856 C.2       8 UNK         0.5038 
     53 O          21.9039  -34.6615  -38.9257 O.2       8 UNK        -0.5046 
     54 N          21.2957  -32.9146  -40.2413 N.am      9 UNK        -0.4200 
     55 CA         20.4659  -32.1982  -39.2588 C.3       9 UNK         0.0839 
     56 C          21.2597  -31.3498  -38.2208 C.2       9 UNK         0.5513 
     57 N          22.5862  -31.3251  -38.2439 N.am      9 UNK        -0.7519 
     58 O          20.6589  -30.7255  -37.3503 O.2       9 UNK        -0.4960 
     59 C59        19.2763  -31.4375  -39.9122 C.3       10 UNK        -0.0876 
     60 S60        19.6802  -30.4028  -41.3677 S.3       10 UNK        -0.2414 
     61 C61        18.7924  -31.3283  -42.6676 C.3       10 UNK         0.0169 
     62 H62        17.0881  -23.3592  -48.9170 H         1 UNK         0.0903 
     63 H63        16.4384  -22.1043  -47.8604 H         1 UNK         0.0903 
     64 H64        15.3930  -22.8877  -49.0481 H         1 UNK         0.0903 
     65 H65        17.3745  -25.2612  -47.8351 H         1 UNK         0.3096 
     66 H66        17.1388  -27.0415  -46.6525 H         1 UNK         0.1121 
     67 H67        14.2862  -26.3104  -45.8259 H         1 UNK         0.0849 
     68 H68        14.6746  -27.0340  -47.3558 H         1 UNK         0.0849 
     69 H69        15.5639  -30.6537  -46.6507 H         1 UNK         0.0865 
     70 H70        16.0921  -29.2627  -47.5581 H         1 UNK         0.0865 
     71 H71        16.5554  -30.8101  -44.1457 H         1 UNK         0.1346 
     72 H72        20.7928  -30.2183  -44.1482 H         1 UNK         0.1412 
     73 H73        18.4479  -28.8238  -47.4437 H         1 UNK         0.1426 
     74 H74        21.8695  -29.5228  -46.2857 H         1 UNK         0.0716 
     75 H75        20.8909  -28.9624  -47.6128 H         1 UNK         0.0716 
     76 H76        23.1220  -26.9615  -44.5147 H         1 UNK         0.0695 
     77 H77        22.2029  -28.3953  -44.1691 H         1 UNK         0.0695 
     78 H78        21.3417  -25.5210  -43.5846 H         1 UNK         0.0983 
     79 H79        19.6651  -27.7908  -43.7835 H         1 UNK         0.3095 
     80 H80        17.6357  -27.9739  -42.3027 H         1 UNK         0.0454 
     81 H81        15.5668  -26.6992  -41.7666 H         1 UNK         0.0851 
     82 H82        16.4290  -25.1750  -41.9667 H         1 UNK         0.0851 
     83 H83        16.8698  -26.2737  -40.6690 H         1 UNK         0.0851 
     84 H84        16.8287  -27.8920  -44.3585 H         1 UNK         0.2976 
     85 H85        20.6813  -27.8809  -41.2071 H         1 UNK         0.3116 
     86 H86        21.3449  -28.2695  -39.1443 H         1 UNK         0.0646 
     87 H87        21.1184  -25.7842  -38.8737 H         1 UNK         0.0847 
     88 H88        22.3146  -26.4565  -37.7875 H         1 UNK         0.0847 
     89 H89        22.8277  -25.5814  -39.2304 H         1 UNK         0.0847 
     90 H90        24.2032  -27.1096  -38.3189 H         1 UNK         0.3040 
     91 H91        25.4556  -29.5780  -38.2140 H         1 UNK         0.1015 
     92 H92        26.6816  -26.7770  -37.9621 H         1 UNK         0.0786 
     93 H93        27.4184  -28.2608  -37.3743 H         1 UNK         0.0786 
     94 H94        25.9170  -27.6971  -36.6645 H         1 UNK         0.0786 
     95 H95        25.4252  -27.5831  -40.9881 H         1 UNK         0.3172 
     96 H96        27.8797  -28.5572  -42.2296 H         1 UNK         0.0595 
     97 H97        26.9173  -27.4548  -44.2543 H         1 UNK         0.0839 
     98 H98        26.8820  -26.3688  -42.8755 H         1 UNK         0.0839 
     99 H99        25.4048  -27.1746  -43.4030 H         1 UNK         0.0839 
    100 H100       24.8021  -29.9864  -41.5794 H         1 UNK         0.2998 
    101 H101       25.2200  -32.1574  -43.5552 H         1 UNK         0.0822 
    102 H102       23.5910  -30.4601  -44.5043 H         1 UNK         0.0787 
    103 H103       22.7886  -31.9778  -44.1536 H         1 UNK         0.0787 
    104 H104       22.6199  -30.6183  -43.0398 H         1 UNK         0.0787 
    105 H105       23.1091  -33.6764  -42.9999 H         1 UNK         0.3055 
    106 H106       23.7940  -34.9801  -40.5854 H         1 UNK         0.1106 
    107 H107       22.9133  -36.1631  -42.5839 H         1 UNK         0.0828 
    108 H108       21.8948  -36.4931  -41.1944 H         1 UNK         0.0828 
    109 H109       21.3568  -35.3485  -42.4149 H         1 UNK         0.0828 
    110 H110       21.4376  -32.4473  -41.1239 H         1 UNK         0.2931 
    111 H111       19.9970  -32.9657  -38.6396 H         1 UNK         0.0412 
    112 H112       23.0767  -30.7895  -37.5475 H         1 UNK         0.3472 
    113 H113       23.1021  -31.7703  -38.9922 H         1 UNK         0.3472 
    114 H114       18.5252  -32.1733  -40.2018 H         1 UNK         0.0970 
    115 H115       18.7673  -30.8072  -39.1807 H         1 UNK         0.0970 
    116 H116       19.3000  -32.2788  -42.8376 H         1 UNK         0.0612 
    117 H117       17.7921  -31.5699  -42.3051 H         1 UNK         0.0612 
@<TRIPOS>BOND
     1    1    2 1    
     2    1   62 1    
     3    1   63 1    
     4    1   64 1    
     5    2    3 2    
     6    2    4 am   BACKBONE|DICT|INTERRES
     7    4    5 1    
     8    4   65 1    
     9    5    6 1    
    10    5   25 1    
    11    5   66 1    
    12    6    7 1    
    13    6   67 1    
    14    6   68 1    
    15    7    8 1    
    16    8    9 1    
    17    8   69 1    
    18    8   70 1    
    19    9   10 ar   
    20    9   14 ar   
    21   10   11 ar   
    22   10   71 1    
    23   11   12 ar   
    24   11   61 1    
    25   12   13 ar   
    26   12   72 1    
    27   13   14 ar   
    28   13   15 1    
    29   14   73 1    
    30   15   16 1    
    31   15   74 1    
    32   15   75 1    
    33   16   17 1    
    34   17   18 1    
    35   17   76 1    
    36   17   77 1    
    37   18   19 1    
    38   18   27 1    
    39   18   78 1    
    40   19   20 am   BACKBONE|DICT|INTERRES
    41   19   79 1    
    42   20   21 2    
    43   20   22 1    
    44   22   23 1    
    45   22   24 1    
    46   22   80 1    
    47   23   81 1    
    48   23   82 1    
    49   23   83 1    
    50   24   25 am   BACKBONE|DICT|INTERRES
    51   24   84 1    
    52   25   26 2    
    53   27   28 2    
    54   27   29 am   BACKBONE|DICT|INTERRES
    55   29   30 1    
    56   29   85 1    
    57   30   31 1    
    58   30   32 1    
    59   30   86 1    
    60   31   87 1    
    61   31   88 1    
    62   31   89 1    
    63   32   33 2    
    64   32   34 am   BACKBONE|DICT|INTERRES
    65   34   35 1    
    66   34   90 1    
    67   35   36 1    
    68   35   37 1    
    69   35   91 1    
    70   36   92 1    
    71   36   93 1    
    72   36   94 1    
    73   37   38 2    
    74   37   39 am   BACKBONE|DICT|INTERRES
    75   39   40 1    
    76   39   95 1    
    77   40   41 1    
    78   40   42 1    
    79   40   96 1    
    80   41   97 1    
    81   41   98 1    
    82   41   99 1    
    83   42   43 2    
    84   42   44 am   BACKBONE|DICT|INTERRES
    85   44   45 1    
    86   44  100 1    
    87   45   46 1    
    88   45   47 1    
    89   45  101 1    
    90   46  102 1    
    91   46  103 1    
    92   46  104 1    
    93   47   48 2    
    94   47   49 am   BACKBONE|DICT|INTERRES
    95   49   50 1    
    96   49  105 1    
    97   50   51 1    
    98   50   52 1    
    99   50  106 1    
   100   51  107 1    
   101   51  108 1    
   102   51  109 1    
   103   52   53 2    
   104   52   54 am   BACKBONE|DICT|INTERRES
   105   54   55 1    
   106   54  110 1    
   107   55   56 1    
   108   55   59 1    
   109   55  111 1    
   110   56   57 am   BACKBONE|DICT|INTERRES
   111   56   58 2    
   112   57  112 1    
   113   57  113 1    
   114   59   60 1    
   115   59  114 1    
   116   59  115 1    
   117   60   61 1    
   118   61  116 1    
   119   61  117 1    
@<TRIPOS>SUBSTRUCTURE
     1 UNK         1 GROUP             0       ****    0 ROOT    
