@<TRIPOS>MOLECULE
3R8
117   119    1
SMALL
USER_CHARGES


@<TRIPOS>ATOM
      1 CA         13.4430  -23.9360  -47.4208 C.3       0 UNK        -0.2013 
      2 C          14.7080  -23.4133  -46.7567 C.2       0 UNK         0.4866 
      3 O          15.1034  -22.2730  -47.0018 O.2       0 UNK        -0.5176 
      4 N          15.3423  -24.2341  -45.9155 N.am      1 UNK        -0.4884 
      5 CA         16.5624  -23.9188  -45.1739 C.3       1 UNK         0.0853 
      6 C6         17.8398  -23.9919  -46.0582 C.3       10 UNK        -0.0849 
      7 S7         18.1195  -25.6119  -46.8647 S.3       10 UNK        -0.2776 
      8 C8         19.5000  -26.2669  -45.8662 C.3       10 UNK         0.0316 
      9 C9         19.4218  -27.7660  -45.5897 C.ar      10 UNK        -0.0863 
     10 C10        20.6071  -28.4942  -45.4563 C.ar      10 UNK        -0.1009 
     11 C11        20.5857  -29.8424  -45.0890 C.ar      10 UNK        -0.0712 
     12 C12        19.3574  -30.4797  -44.8927 C.ar      10 UNK        -0.0894 
     13 C13        18.1630  -29.7618  -45.0039 C.ar      10 UNK        -0.0745 
     14 C14        18.2002  -28.4109  -45.3631 C.ar      10 UNK        -0.0972 
     15 C15        16.8401  -30.4155  -44.6354 C.3       10 UNK         0.0209 
     16 S16        16.1497  -29.7066  -43.1011 S.3       10 UNK        -0.2568 
     17 C17        17.4645  -30.0446  -41.8750 C.3       10 UNK        -0.0983 
     18 CA         18.5156  -28.9040  -41.7584 C.3       3 UNK         0.0876 
     19 N          17.9006  -27.5919  -41.5240 N.am      3 UNK        -0.4424 
     20 C          18.4333  -26.4180  -41.8827 C.2       2 UNK         0.4918 
     21 O          19.5695  -26.2925  -42.3461 O.2       2 UNK        -0.4875 
     22 CA         17.5684  -25.1679  -41.6648 C.3       2 UNK         0.0481 
     23 CB         18.2041  -24.2500  -40.6081 C.3       2 UNK        -0.1831 
     24 N          17.3925  -24.4253  -42.9156 N.am      2 UNK        -0.4498 
     25 C          16.6170  -24.8297  -43.9318 C.2       1 UNK         0.5027 
     26 O          15.9429  -25.8643  -43.9068 O.2       1 UNK        -0.4969 
     27 C          19.6376  -29.2215  -40.7464 C.2       3 UNK         0.5005 
     28 O          19.5847  -30.2441  -40.0607 O.2       3 UNK        -0.5279 
     29 N          20.6332  -28.3315  -40.6727 N.am      4 UNK        -0.4463 
     30 CA         21.8395  -28.4620  -39.8562 C.3       4 UNK         0.0283 
     31 CB         21.5543  -27.9938  -38.4156 C.3       4 UNK        -0.1875 
     32 C          23.0330  -27.7235  -40.4904 C.2       4 UNK         0.4949 
     33 O          23.9758  -27.3697  -39.7814 O.2       4 UNK        -0.5039 
     34 N          22.9786  -27.4739  -41.8083 N.am      5 UNK        -0.4663 
     35 CA         24.0249  -26.7607  -42.5494 C.3       5 UNK         0.0242 
     36 CB         23.4629  -26.2788  -43.8952 C.3       5 UNK        -0.1982 
     37 C          25.2857  -27.6136  -42.7701 C.2       5 UNK         0.5017 
     38 O          26.3906  -27.0709  -42.7625 O.2       5 UNK        -0.5012 
     39 N          25.0976  -28.9276  -42.9445 N.am      6 UNK        -0.4439 
     40 CA         26.1520  -29.9276  -43.1023 C.3       6 UNK         0.0297 
     41 CB         25.8791  -30.7581  -44.3710 C.3       6 UNK        -0.2006 
     42 C          26.2102  -30.7853  -41.8302 C.2       6 UNK         0.4892 
     43 O          25.9947  -31.9982  -41.8887 O.2       6 UNK        -0.5089 
     44 N          26.4670  -30.1191  -40.6946 N.am      7 UNK        -0.4243 
     45 CA         26.5092  -30.6647  -39.3344 C.3       7 UNK         0.0196 
     46 CB         27.7230  -31.6056  -39.1533 C.3       7 UNK        -0.2007 
     47 C          25.1614  -31.2981  -38.9459 C.2       7 UNK         0.5020 
     48 O          24.2256  -30.5673  -38.6270 O.2       7 UNK        -0.5147 
     49 N          25.0782  -32.6326  -38.9847 N.am      8 UNK        -0.4734 
     50 CA         23.8524  -33.3883  -38.7229 C.3       8 UNK         0.0238 
     51 CB         24.2334  -34.7976  -38.2384 C.3       8 UNK        -0.1912 
     52 C          22.9141  -33.4762  -39.9411 C.2       8 UNK         0.5038 
     53 O          21.7451  -33.8149  -39.7530 O.2       8 UNK        -0.5046 
     54 N          23.4309  -33.2175  -41.1540 N.am      9 UNK        -0.4200 
     55 CA         22.7324  -33.3875  -42.4432 C.3       9 UNK         0.0839 
     56 C          22.3014  -34.8559  -42.7573 C.2       9 UNK         0.5513 
     57 N          22.9216  -35.8656  -42.1575 N.am      9 UNK        -0.7519 
     58 O          21.4222  -35.0940  -43.5816 O.2       9 UNK        -0.4960 
     59 C59        21.5949  -32.3427  -42.6554 C.3       10 UNK        -0.0876 
     60 S60        22.2683  -30.6988  -43.0704 S.3       10 UNK        -0.2414 
     61 C61        21.8923  -30.5856  -44.8523 C.3       10 UNK         0.0169 
     62 H62        13.2145  -24.9570  -47.1151 H         1 UNK         0.0903 
     63 H63        12.5935  -23.3054  -47.1600 H         1 UNK         0.0903 
     64 H64        13.5565  -23.9246  -48.5045 H         1 UNK         0.0903 
     65 H65        14.9729  -25.1534  -45.7016 H         1 UNK         0.3096 
     66 H66        16.4645  -22.8964  -44.8009 H         1 UNK         0.1121 
     67 H67        18.7199  -23.6989  -45.4838 H         1 UNK         0.0849 
     68 H68        17.7662  -23.2464  -46.8514 H         1 UNK         0.0849 
     69 H69        20.4334  -26.0205  -46.3748 H         1 UNK         0.0865 
     70 H70        19.5360  -25.7609  -44.9022 H         1 UNK         0.0865 
     71 H71        21.5541  -27.9994  -45.6087 H         1 UNK         0.1346 
     72 H72        19.3304  -31.5181  -44.5964 H         1 UNK         0.1412 
     73 H73        17.2753  -27.8517  -45.4062 H         1 UNK         0.1426 
     74 H74        16.9544  -31.4938  -44.5137 H         1 UNK         0.0716 
     75 H75        16.1269  -30.2692  -45.4477 H         1 UNK         0.0716 
     76 H76        17.9500  -30.9871  -42.1355 H         1 UNK         0.0695 
     77 H77        16.9804  -30.2102  -40.9109 H         1 UNK         0.0695 
     78 H78        19.0341  -28.8422  -42.7130 H         1 UNK         0.0983 
     79 H79        16.9652  -27.6086  -41.1447 H         1 UNK         0.3095 
     80 H80        16.5839  -25.4709  -41.3014 H         1 UNK         0.0454 
     81 H81        19.1878  -23.8947  -40.9181 H         1 UNK         0.0851 
     82 H82        18.3329  -24.7763  -39.6614 H         1 UNK         0.0851 
     83 H83        17.5793  -23.3789  -40.4102 H         1 UNK         0.0851 
     84 H84        17.9371  -23.5808  -43.0157 H         1 UNK         0.2976 
     85 H85        20.5521  -27.4905  -41.2405 H         1 UNK         0.3116 
     86 H86        22.1200  -29.5166  -39.8285 H         1 UNK         0.0646 
     87 H87        21.2953  -26.9352  -38.3821 H         1 UNK         0.0847 
     88 H88        22.4265  -28.1409  -37.7771 H         1 UNK         0.0847 
     89 H89        20.7347  -28.5560  -37.9685 H         1 UNK         0.0847 
     90 H90        22.1907  -27.8153  -42.3400 H         1 UNK         0.3040 
     91 H91        24.3145  -25.8818  -41.9683 H         1 UNK         0.1015 
     92 H92        23.2857  -27.1117  -44.5737 H         1 UNK         0.0786 
     93 H93        24.1672  -25.6079  -44.3888 H         1 UNK         0.0786 
     94 H94        22.5268  -25.7333  -43.7703 H         1 UNK         0.0786 
     95 H95        24.1530  -29.2870  -42.8847 H         1 UNK         0.3172 
     96 H96        27.1268  -29.4495  -43.2186 H         1 UNK         0.0595 
     97 H97        25.8355  -30.1251  -45.2572 H         1 UNK         0.0839 
     98 H98        24.9401  -31.3079  -44.3061 H         1 UNK         0.0839 
     99 H99        26.6716  -31.4897  -44.5335 H         1 UNK         0.0839 
    100 H100       26.5744  -29.1158  -40.7605 H         1 UNK         0.2998 
    101 H101       26.6501  -29.8155  -38.6636 H         1 UNK         0.0822 
    102 H102       28.6574  -31.0678  -39.3147 H         1 UNK         0.0787 
    103 H103       27.7586  -32.0089  -38.1403 H         1 UNK         0.0787 
    104 H104       27.7098  -32.4483  -39.8450 H         1 UNK         0.0787 
    105 H105       25.8893  -33.1547  -39.2851 H         1 UNK         0.3055 
    106 H106       23.2941  -32.8942  -37.9239 H         1 UNK         0.1106 
    107 H107       23.3438  -35.3862  -38.0090 H         1 UNK         0.0828 
    108 H108       24.8015  -35.3460  -38.9907 H         1 UNK         0.0828 
    109 H109       24.8331  -34.7554  -37.3290 H         1 UNK         0.0828 
    110 H110       24.3986  -32.9163  -41.2243 H         1 UNK         0.2931 
    111 H111       23.4933  -33.1913  -43.1997 H         1 UNK         0.0412 
    112 H112       22.6478  -36.8113  -42.3738 H         1 UNK         0.3472 
    113 H113       23.6614  -35.6919  -41.4968 H         1 UNK         0.3472 
    114 H114       20.9689  -32.2537  -41.7666 H         1 UNK         0.0970 
    115 H115       20.9181  -32.6472  -43.4523 H         1 UNK         0.0970 
    116 H116       21.8547  -31.5780  -45.3037 H         1 UNK         0.0612 
    117 H117       22.7150  -30.0640  -45.3439 H         1 UNK         0.0612 
@<TRIPOS>BOND
     1    1    2 1    
     2    1   62 1    
     3    1   63 1    
     4    1   64 1    
     5    2    3 2    
     6    2    4 am   BACKBONE|DICT|INTERRES
     7    4    5 1    
     8    4   65 1    
     9    5    6 1    
    10    5   25 1    
    11    5   66 1    
    12    6    7 1    
    13    6   67 1    
    14    6   68 1    
    15    7    8 1    
    16    8    9 1    
    17    8   69 1    
    18    8   70 1    
    19    9   10 ar   
    20    9   14 ar   
    21   10   11 ar   
    22   10   71 1    
    23   11   12 ar   
    24   11   61 1    
    25   12   13 ar   
    26   12   72 1    
    27   13   14 ar   
    28   13   15 1    
    29   14   73 1    
    30   15   16 1    
    31   15   74 1    
    32   15   75 1    
    33   16   17 1    
    34   17   18 1    
    35   17   76 1    
    36   17   77 1    
    37   18   19 1    
    38   18   27 1    
    39   18   78 1    
    40   19   20 am   BACKBONE|DICT|INTERRES
    41   19   79 1    
    42   20   21 2    
    43   20   22 1    
    44   22   23 1    
    45   22   24 1    
    46   22   80 1    
    47   23   81 1    
    48   23   82 1    
    49   23   83 1    
    50   24   25 am   BACKBONE|DICT|INTERRES
    51   24   84 1    
    52   25   26 2    
    53   27   28 2    
    54   27   29 am   BACKBONE|DICT|INTERRES
    55   29   30 1    
    56   29   85 1    
    57   30   31 1    
    58   30   32 1    
    59   30   86 1    
    60   31   87 1    
    61   31   88 1    
    62   31   89 1    
    63   32   33 2    
    64   32   34 am   BACKBONE|DICT|INTERRES
    65   34   35 1    
    66   34   90 1    
    67   35   36 1    
    68   35   37 1    
    69   35   91 1    
    70   36   92 1    
    71   36   93 1    
    72   36   94 1    
    73   37   38 2    
    74   37   39 am   BACKBONE|DICT|INTERRES
    75   39   40 1    
    76   39   95 1    
    77   40   41 1    
    78   40   42 1    
    79   40   96 1    
    80   41   97 1    
    81   41   98 1    
    82   41   99 1    
    83   42   43 2    
    84   42   44 am   BACKBONE|DICT|INTERRES
    85   44   45 1    
    86   44  100 1    
    87   45   46 1    
    88   45   47 1    
    89   45  101 1    
    90   46  102 1    
    91   46  103 1    
    92   46  104 1    
    93   47   48 2    
    94   47   49 am   BACKBONE|DICT|INTERRES
    95   49   50 1    
    96   49  105 1    
    97   50   51 1    
    98   50   52 1    
    99   50  106 1    
   100   51  107 1    
   101   51  108 1    
   102   51  109 1    
   103   52   53 2    
   104   52   54 am   BACKBONE|DICT|INTERRES
   105   54   55 1    
   106   54  110 1    
   107   55   56 1    
   108   55   59 1    
   109   55  111 1    
   110   56   57 am   BACKBONE|DICT|INTERRES
   111   56   58 2    
   112   57  112 1    
   113   57  113 1    
   114   59   60 1    
   115   59  114 1    
   116   59  115 1    
   117   60   61 1    
   118   61  116 1    
   119   61  117 1    
@<TRIPOS>SUBSTRUCTURE
     1 UNK         1 GROUP             0       ****    0 ROOT    
