@<TRIPOS>MOLECULE
3R8
117   119    1
SMALL
USER_CHARGES


@<TRIPOS>ATOM
      1 CA         18.9997  -26.9144  -40.9348 C.3       0 UNK        -0.2013 
      2 C          18.1777  -26.2565  -42.0303 C.2       0 UNK         0.4866 
      3 O          17.6485  -25.1639  -41.8239 O.2       0 UNK        -0.5176 
      4 N          18.0785  -26.9135  -43.1929 N.am      1 UNK        -0.4884 
      5 CA         17.4420  -26.3886  -44.4070 C.3       1 UNK         0.0853 
      6 C6         16.7608  -27.5124  -45.2392 C.3       10 UNK        -0.0849 
      7 S7         15.5439  -28.4695  -44.2714 S.3       10 UNK        -0.2776 
      8 C8         16.1922  -30.1685  -44.4138 C.3       10 UNK         0.0316 
      9 C9         17.5414  -30.3415  -43.7275 C.ar      10 UNK        -0.0863 
     10 C10        17.6235  -30.3415  -42.3322 C.ar      10 UNK        -0.1009 
     11 C11        18.8510  -30.5278  -41.6895 C.ar      10 UNK        -0.0712 
     12 C12        20.0088  -30.6878  -42.4606 C.ar      10 UNK        -0.0894 
     13 C13        19.9359  -30.7296  -43.8561 C.ar      10 UNK        -0.0745 
     14 C14        18.6996  -30.5483  -44.4835 C.ar      10 UNK        -0.0972 
     15 C15        21.1767  -31.0576  -44.6788 C.3       10 UNK         0.0209 
     16 S16        21.6054  -29.7596  -45.8801 S.3       10 UNK        -0.2568 
     17 C17        22.2559  -28.4598  -44.7814 C.3       10 UNK        -0.0983 
     18 CA         22.4693  -27.1169  -45.5242 C.3       3 UNK         0.0876 
     19 N          21.2375  -26.6657  -46.1746 N.am      3 UNK        -0.4424 
     20 C          21.0930  -25.6059  -46.9816 C.2       2 UNK         0.4918 
     21 O          22.0272  -24.9084  -47.3764 O.2       2 UNK        -0.4875 
     22 CA         19.6487  -25.2472  -47.3941 C.3       2 UNK         0.0481 
     23 CB         19.3818  -25.6872  -48.8423 C.3       2 UNK        -0.1831 
     24 N          18.6138  -25.8187  -46.5174 N.am      2 UNK        -0.4498 
     25 C          18.4916  -25.5741  -45.2018 C.2       1 UNK         0.5027 
     26 O          19.2247  -24.7789  -44.6080 O.2       1 UNK        -0.4969 
     27 C          23.0491  -26.0691  -44.5502 C.2       3 UNK         0.5005 
     28 O          24.2682  -26.0275  -44.3789 O.2       3 UNK        -0.5279 
     29 N          22.1757  -25.2614  -43.9220 N.am      4 UNK        -0.4463 
     30 CA         22.4303  -24.1490  -42.9911 C.3       4 UNK         0.0283 
     31 CB         23.2007  -23.0142  -43.6921 C.3       4 UNK        -0.1875 
     32 C          23.1061  -24.5172  -41.6541 C.2       4 UNK         0.4949 
     33 O          22.7413  -23.9502  -40.6247 O.2       4 UNK        -0.5039 
     34 N          24.0709  -25.4435  -41.6804 N.am      5 UNK        -0.4663 
     35 CA         24.8785  -25.8808  -40.5365 C.3       5 UNK         0.0242 
     36 CB         26.0934  -26.6624  -41.0638 C.3       5 UNK        -0.1982 
     37 C          24.1140  -26.7252  -39.5011 C.2       5 UNK         0.5017 
     38 O          24.5927  -26.8559  -38.3741 O.2       5 UNK        -0.5012 
     39 N          22.9637  -27.2867  -39.9039 N.am      6 UNK        -0.4439 
     40 CA         22.0877  -28.1733  -39.1276 C.3       6 UNK         0.0297 
     41 CB         21.4310  -27.4187  -37.9524 C.3       6 UNK        -0.2006 
     42 C          22.7922  -29.4752  -38.6987 C.2       6 UNK         0.4892 
     43 O          22.7365  -29.8635  -37.5302 O.2       6 UNK        -0.5089 
     44 N          23.4411  -30.1208  -39.6718 N.am      7 UNK        -0.4243 
     45 CA         24.0783  -31.4274  -39.5612 C.3       7 UNK         0.0196 
     46 CB         25.5950  -31.2427  -39.3843 C.3       7 UNK        -0.2007 
     47 C          23.7601  -32.2083  -40.8407 C.2       7 UNK         0.5020 
     48 O          23.4764  -31.5883  -41.8683 O.2       7 UNK        -0.5147 
     49 N          23.8171  -33.5453  -40.7533 N.am      8 UNK        -0.4734 
     50 CA         23.4628  -34.5094  -41.8090 C.3       8 UNK         0.0238 
     51 CB         24.4317  -34.4046  -43.0076 C.3       8 UNK        -0.1912 
     52 C          21.9785  -34.4148  -42.2225 C.2       8 UNK         0.5038 
     53 O          21.6584  -34.4766  -43.4109 O.2       8 UNK        -0.5046 
     54 N          21.1058  -34.2543  -41.2192 N.am      9 UNK        -0.4200 
     55 CA         19.6541  -34.0604  -41.3696 C.3       9 UNK         0.0839 
     56 C          18.8577  -35.3291  -41.7922 C.2       9 UNK         0.5513 
     57 N          19.4479  -36.5184  -41.7960 N.am      9 UNK        -0.7519 
     58 O          17.6790  -35.2316  -42.1231 O.2       9 UNK        -0.4960 
     59 C59        19.0252  -33.4095  -40.1054 C.3       10 UNK        -0.0876 
     60 S60        19.9252  -31.9329  -39.5100 S.3       10 UNK        -0.2414 
     61 C61        18.9037  -30.5718  -40.1645 C.3       10 UNK         0.0169 
     62 H62        19.6030  -27.7305  -41.3293 H         1 UNK         0.0903 
     63 H63        19.6737  -26.1866  -40.4836 H         1 UNK         0.0903 
     64 H64        18.3461  -27.3070  -40.1564 H         1 UNK         0.0903 
     65 H65        18.4893  -27.8326  -43.2808 H         1 UNK         0.3096 
     66 H66        16.6627  -25.6785  -44.1209 H         1 UNK         0.1121 
     67 H67        17.5043  -28.1932  -45.6565 H         1 UNK         0.0849 
     68 H68        16.2229  -27.0853  -46.0877 H         1 UNK         0.0849 
     69 H69        15.4744  -30.8565  -43.9648 H         1 UNK         0.0865 
     70 H70        16.2525  -30.4433  -45.4681 H         1 UNK         0.0865 
     71 H71        16.7232  -30.2062  -41.7482 H         1 UNK         0.1346 
     72 H72        20.9599  -30.8434  -41.9709 H         1 UNK         0.1412 
     73 H73        18.6411  -30.5891  -45.5628 H         1 UNK         0.1426 
     74 H74        20.9967  -31.9880  -45.2191 H         1 UNK         0.0716 
     75 H75        22.0374  -31.2463  -44.0366 H         1 UNK         0.0716 
     76 H76        23.1950  -28.8183  -44.3545 H         1 UNK         0.0695 
     77 H77        21.5645  -28.3319  -43.9459 H         1 UNK         0.0695 
     78 H78        23.2130  -27.2694  -46.3093 H         1 UNK         0.0983 
     79 H79        20.4140  -27.2064  -45.9605 H         1 UNK         0.3095 
     80 H80        19.5589  -24.1601  -47.3448 H         1 UNK         0.0454 
     81 H81        20.1149  -25.2528  -49.5236 H         1 UNK         0.0851 
     82 H82        18.3980  -25.3636  -49.1823 H         1 UNK         0.0851 
     83 H83        19.4380  -26.7708  -48.9530 H         1 UNK         0.0851 
     84 H84        17.9789  -26.4744  -46.9493 H         1 UNK         0.2976 
     85 H85        21.1948  -25.3747  -44.1574 H         1 UNK         0.3116 
     86 H86        21.4424  -23.7608  -42.7366 H         1 UNK         0.0646 
     87 H87        24.2059  -23.3221  -43.9817 H         1 UNK         0.0847 
     88 H88        22.6813  -22.6796  -44.5902 H         1 UNK         0.0847 
     89 H89        23.3036  -22.1490  -43.0357 H         1 UNK         0.0847 
     90 H90        24.3221  -25.8124  -42.5969 H         1 UNK         0.3040 
     91 H91        25.2396  -24.9892  -40.0189 H         1 UNK         0.1015 
     92 H92        26.7413  -26.9802  -40.2455 H         1 UNK         0.0786 
     93 H93        26.6978  -26.0511  -41.7344 H         1 UNK         0.0786 
     94 H94        25.7911  -27.5584  -41.6076 H         1 UNK         0.0786 
     95 H95        22.6840  -27.1032  -40.8565 H         1 UNK         0.3172 
     96 H96        21.2933  -28.4764  -39.8075 H         1 UNK         0.0595 
     97 H97        22.1620  -27.1298  -37.1966 H         1 UNK         0.0839 
     98 H98        20.6844  -28.0423  -37.4592 H         1 UNK         0.0839 
     99 H99        20.9259  -26.5145  -38.2912 H         1 UNK         0.0839 
    100 H100       23.3884  -29.7721  -40.6203 H         1 UNK         0.2998 
    101 H101       23.6684  -31.9738  -38.7087 H         1 UNK         0.0822 
    102 H102       26.1006  -32.2049  -39.2941 H         1 UNK         0.0787 
    103 H103       26.0378  -30.7174  -40.2317 H         1 UNK         0.0787 
    104 H104       25.8200  -30.6714  -38.4834 H         1 UNK         0.0787 
    105 H105       24.0802  -33.9515  -39.8651 H         1 UNK         0.3055 
    106 H106       23.5892  -35.5034  -41.3767 H         1 UNK         0.1106 
    107 H107       25.4705  -34.4806  -42.6870 H         1 UNK         0.0828 
    108 H108       24.2547  -35.2087  -43.7229 H         1 UNK         0.0828 
    109 H109       24.3142  -33.4637  -43.5460 H         1 UNK         0.0828 
    110 H110       21.4588  -34.2022  -40.2758 H         1 UNK         0.2931 
    111 H111       19.5192  -33.3595  -42.1938 H         1 UNK         0.0412 
    112 H112       20.4146  -36.6105  -41.5288 H         1 UNK         0.3472 
    113 H113       18.9205  -37.3315  -42.0739 H         1 UNK         0.3472 
    114 H114       17.9849  -33.1387  -40.2959 H         1 UNK         0.0970 
    115 H115       19.0000  -34.1302  -39.2860 H         1 UNK         0.0970 
    116 H116       17.9002  -30.6645  -39.7464 H         1 UNK         0.0612 
    117 H117       19.3011  -29.6298  -39.7916 H         1 UNK         0.0612 
@<TRIPOS>BOND
     1    1    2 1    
     2    1   62 1    
     3    1   63 1    
     4    1   64 1    
     5    2    3 2    
     6    2    4 am   BACKBONE|DICT|INTERRES
     7    4    5 1    
     8    4   65 1    
     9    5    6 1    
    10    5   25 1    
    11    5   66 1    
    12    6    7 1    
    13    6   67 1    
    14    6   68 1    
    15    7    8 1    
    16    8    9 1    
    17    8   69 1    
    18    8   70 1    
    19    9   10 ar   
    20    9   14 ar   
    21   10   11 ar   
    22   10   71 1    
    23   11   12 ar   
    24   11   61 1    
    25   12   13 ar   
    26   12   72 1    
    27   13   14 ar   
    28   13   15 1    
    29   14   73 1    
    30   15   16 1    
    31   15   74 1    
    32   15   75 1    
    33   16   17 1    
    34   17   18 1    
    35   17   76 1    
    36   17   77 1    
    37   18   19 1    
    38   18   27 1    
    39   18   78 1    
    40   19   20 am   BACKBONE|DICT|INTERRES
    41   19   79 1    
    42   20   21 2    
    43   20   22 1    
    44   22   23 1    
    45   22   24 1    
    46   22   80 1    
    47   23   81 1    
    48   23   82 1    
    49   23   83 1    
    50   24   25 am   BACKBONE|DICT|INTERRES
    51   24   84 1    
    52   25   26 2    
    53   27   28 2    
    54   27   29 am   BACKBONE|DICT|INTERRES
    55   29   30 1    
    56   29   85 1    
    57   30   31 1    
    58   30   32 1    
    59   30   86 1    
    60   31   87 1    
    61   31   88 1    
    62   31   89 1    
    63   32   33 2    
    64   32   34 am   BACKBONE|DICT|INTERRES
    65   34   35 1    
    66   34   90 1    
    67   35   36 1    
    68   35   37 1    
    69   35   91 1    
    70   36   92 1    
    71   36   93 1    
    72   36   94 1    
    73   37   38 2    
    74   37   39 am   BACKBONE|DICT|INTERRES
    75   39   40 1    
    76   39   95 1    
    77   40   41 1    
    78   40   42 1    
    79   40   96 1    
    80   41   97 1    
    81   41   98 1    
    82   41   99 1    
    83   42   43 2    
    84   42   44 am   BACKBONE|DICT|INTERRES
    85   44   45 1    
    86   44  100 1    
    87   45   46 1    
    88   45   47 1    
    89   45  101 1    
    90   46  102 1    
    91   46  103 1    
    92   46  104 1    
    93   47   48 2    
    94   47   49 am   BACKBONE|DICT|INTERRES
    95   49   50 1    
    96   49  105 1    
    97   50   51 1    
    98   50   52 1    
    99   50  106 1    
   100   51  107 1    
   101   51  108 1    
   102   51  109 1    
   103   52   53 2    
   104   52   54 am   BACKBONE|DICT|INTERRES
   105   54   55 1    
   106   54  110 1    
   107   55   56 1    
   108   55   59 1    
   109   55  111 1    
   110   56   57 am   BACKBONE|DICT|INTERRES
   111   56   58 2    
   112   57  112 1    
   113   57  113 1    
   114   59   60 1    
   115   59  114 1    
   116   59  115 1    
   117   60   61 1    
   118   61  116 1    
   119   61  117 1    
@<TRIPOS>SUBSTRUCTURE
     1 UNK         1 GROUP             0       ****    0 ROOT    
