@<TRIPOS>MOLECULE
3R8
117   119    1
SMALL
USER_CHARGES


@<TRIPOS>ATOM
      1 CA         14.6476  -23.3085  -46.4650 C.3       0 UNK        -0.2013 
      2 C          15.9803  -24.0424  -46.4805 C.2       0 UNK         0.4866 
      3 O          16.8769  -23.6681  -47.2374 O.2       0 UNK        -0.5176 
      4 N          16.1144  -25.0901  -45.6583 N.am      1 UNK        -0.4884 
      5 CA         17.3375  -25.8849  -45.5068 C.3       1 UNK         0.0853 
      6 C6         17.0845  -27.1814  -44.6988 C.3       10 UNK        -0.0849 
      7 S7         15.8873  -28.3084  -45.4838 S.3       10 UNK        -0.2776 
      8 C8         15.4245  -29.3574  -44.0646 C.3       10 UNK         0.0316 
      9 C9         16.6320  -30.0681  -43.4661 C.ar      10 UNK        -0.0863 
     10 C10        17.1944  -31.1650  -44.1250 C.ar      10 UNK        -0.1009 
     11 C11        18.3147  -31.8081  -43.5947 C.ar      10 UNK        -0.0712 
     12 C12        18.8752  -31.3391  -42.4045 C.ar      10 UNK        -0.0894 
     13 C13        18.3257  -30.2489  -41.7245 C.ar      10 UNK        -0.0745 
     14 C14        17.1895  -29.6255  -42.2601 C.ar      10 UNK        -0.0972 
     15 C15        18.9960  -29.8209  -40.4148 C.3       10 UNK         0.0209 
     16 S16        18.3513  -28.3148  -39.6018 S.3       10 UNK        -0.2568 
     17 C17        18.8047  -26.9248  -40.7019 C.3       10 UNK        -0.0983 
     18 CA         20.2118  -26.9342  -41.3569 C.3       3 UNK         0.0876 
     19 N          20.2449  -25.9427  -42.4394 N.am      3 UNK        -0.4424 
     20 C          21.2431  -25.7006  -43.2977 C.2       2 UNK         0.4918 
     21 O          22.3722  -26.1757  -43.1826 O.2       2 UNK        -0.4875 
     22 CA         20.8992  -24.7999  -44.5027 C.3       2 UNK         0.0481 
     23 CB         22.0614  -24.6997  -45.5080 C.3       2 UNK        -0.1831 
     24 N          19.7019  -25.2899  -45.1978 N.am      2 UNK        -0.4498 
     25 C          18.4404  -25.0739  -44.7999 C.2       1 UNK         0.5027 
     26 O          18.1490  -24.3583  -43.8373 O.2       1 UNK        -0.4969 
     27 C          21.3411  -26.7660  -40.3147 C.2       3 UNK         0.5005 
     28 O          21.8017  -27.7584  -39.7501 O.2       3 UNK        -0.5279 
     29 N          21.7900  -25.5204  -40.0984 N.am      4 UNK        -0.4463 
     30 CA         22.9087  -25.1822  -39.2138 C.3       4 UNK         0.0283 
     31 CB         22.9294  -23.6632  -38.9796 C.3       4 UNK        -0.1875 
     32 C          24.2756  -25.6617  -39.7384 C.2       4 UNK         0.4949 
     33 O          25.1634  -25.9329  -38.9296 O.2       4 UNK        -0.5039 
     34 N          24.4250  -25.7494  -41.0670 N.am      5 UNK        -0.4663 
     35 CA         25.6277  -26.2466  -41.7362 C.3       5 UNK         0.0242 
     36 CB         25.8970  -25.4075  -42.9972 C.3       5 UNK        -0.1982 
     37 C          25.4673  -27.7305  -42.0896 C.2       5 UNK         0.5017 
     38 O          26.3341  -28.5385  -41.7541 O.2       5 UNK        -0.5012 
     39 N          24.3443  -28.0691  -42.7346 N.am      6 UNK        -0.4439 
     40 CA         23.9564  -29.4184  -43.1375 C.3       6 UNK         0.0297 
     41 CB         23.0186  -29.3161  -44.3566 C.3       6 UNK        -0.2006 
     42 C          23.3119  -30.1736  -41.9632 C.2       6 UNK         0.4892 
     43 O          22.1499  -30.5714  -42.0556 O.2       6 UNK        -0.5089 
     44 N          24.0771  -30.3558  -40.8779 N.am      7 UNK        -0.4243 
     45 CA         23.6795  -31.0530  -39.6517 C.3       7 UNK         0.0196 
     46 CB         24.8333  -30.9886  -38.6373 C.3       7 UNK        -0.2007 
     47 C          23.2668  -32.5050  -39.9465 C.2       7 UNK         0.5020 
     48 O          24.1277  -33.3351  -40.2469 O.2       7 UNK        -0.5147 
     49 N          21.9471  -32.7484  -39.9496 N.am      8 UNK        -0.4734 
     50 CA         21.2675  -33.9798  -40.3856 C.3       8 UNK         0.0238 
     51 CB         21.5505  -35.1289  -39.3948 C.3       8 UNK        -0.1912 
     52 C          21.5730  -34.3817  -41.8478 C.2       8 UNK         0.5038 
     53 O          21.3995  -35.5488  -42.2024 O.2       8 UNK        -0.5046 
     54 N          22.0327  -33.4182  -42.6611 N.am      9 UNK        -0.4200 
     55 CA         22.5829  -33.5999  -44.0142 C.3       9 UNK         0.0839 
     56 C          23.8286  -34.5378  -44.0770 C.2       9 UNK         0.5513 
     57 N          24.5881  -34.6922  -42.9971 N.am      9 UNK        -0.7519 
     58 O          24.1355  -35.1082  -45.1208 O.2       9 UNK        -0.4960 
     59 C59        21.4899  -33.9219  -45.0733 C.3       10 UNK        -0.0876 
     60 S60        20.3518  -32.5131  -45.3073 S.3       10 UNK        -0.2414 
     61 C61        18.9251  -33.0103  -44.2968 C.3       10 UNK         0.0169 
     62 H62        14.7966  -22.2669  -46.1818 H         1 UNK         0.0903 
     63 H63        14.1950  -23.3312  -47.4560 H         1 UNK         0.0903 
     64 H64        13.9446  -23.7539  -45.7613 H         1 UNK         0.0903 
     65 H65        15.3480  -25.3521  -45.0548 H         1 UNK         0.3096 
     66 H66        17.6895  -26.1549  -46.5052 H         1 UNK         0.1121 
     67 H67        16.7278  -26.9382  -43.6957 H         1 UNK         0.0849 
     68 H68        18.0147  -27.7388  -44.5651 H         1 UNK         0.0849 
     69 H69        14.9214  -28.7473  -43.3126 H         1 UNK         0.0865 
     70 H70        14.6927  -30.0971  -44.3930 H         1 UNK         0.0865 
     71 H71        16.7644  -31.5110  -45.0553 H         1 UNK         0.1346 
     72 H72        19.7524  -31.8268  -42.0060 H         1 UNK         0.1412 
     73 H73        16.7316  -28.7914  -41.7498 H         1 UNK         0.1426 
     74 H74        18.8753  -30.6397  -39.7044 H         1 UNK         0.0716 
     75 H75        20.0709  -29.7214  -40.5628 H         1 UNK         0.0716 
     76 H76        18.0450  -26.8946  -41.4836 H         1 UNK         0.0695 
     77 H77        18.6644  -26.0012  -40.1370 H         1 UNK         0.0695 
     78 H78        20.3727  -27.8965  -41.8453 H         1 UNK         0.0983 
     79 H79        19.3745  -25.4542  -42.6189 H         1 UNK         0.3095 
     80 H80        20.7066  -23.7969  -44.1165 H         1 UNK         0.0454 
     81 H81        22.3298  -25.6750  -45.9161 H         1 UNK         0.0851 
     82 H82        21.8101  -24.0438  -46.3416 H         1 UNK         0.0851 
     83 H83        22.9539  -24.2889  -45.0341 H         1 UNK         0.0851 
     84 H84        19.8663  -25.9214  -45.9695 H         1 UNK         0.2976 
     85 H85        21.3546  -24.7607  -40.6014 H         1 UNK         0.3116 
     86 H86        22.7367  -25.6718  -38.2527 H         1 UNK         0.0646 
     87 H87        23.0828  -23.1119  -39.9081 H         1 UNK         0.0847 
     88 H88        21.9983  -23.3165  -38.5310 H         1 UNK         0.0847 
     89 H89        23.7363  -23.3852  -38.3000 H         1 UNK         0.0847 
     90 H90        23.6228  -25.5653  -41.6579 H         1 UNK         0.3040 
     91 H91        26.4936  -26.1509  -41.0769 H         1 UNK         0.1015 
     92 H92        25.0655  -25.4466  -43.7021 H         1 UNK         0.0786 
     93 H93        26.7854  -25.7643  -43.5201 H         1 UNK         0.0786 
     94 H94        26.0694  -24.3613  -42.7440 H         1 UNK         0.0786 
     95 H95        23.6594  -27.3390  -42.9265 H         1 UNK         0.3172 
     96 H96        24.8457  -29.9740  -43.4420 H         1 UNK         0.0595 
     97 H97        22.7395  -30.3039  -44.7236 H         1 UNK         0.0839 
     98 H98        23.4950  -28.7871  -45.1819 H         1 UNK         0.0839 
     99 H99        22.0941  -28.7913  -44.1122 H         1 UNK         0.0839 
    100 H100       25.0187  -29.9824  -40.9068 H         1 UNK         0.2998 
    101 H101       22.8264  -30.5175  -39.2291 H         1 UNK         0.0822 
    102 H102       24.5667  -31.4994  -37.7111 H         1 UNK         0.0787 
    103 H103       25.7380  -31.4612  -39.0223 H         1 UNK         0.0787 
    104 H104       25.0770  -29.9572  -38.3804 H         1 UNK         0.0787 
    105 H105       21.3357  -31.9742  -39.7297 H         1 UNK         0.3055 
    106 H106       20.1968  -33.7719  -40.3525 H         1 UNK         0.1106 
    107 H107       21.3187  -34.8368  -38.3707 H         1 UNK         0.0828 
    108 H108       20.9424  -36.0050  -39.6240 H         1 UNK         0.0828 
    109 H109       22.5945  -35.4421  -39.4265 H         1 UNK         0.0828 
    110 H110       22.1021  -32.4729  -42.2955 H         1 UNK         0.2931 
    111 H111       22.9963  -32.6263  -44.2769 H         1 UNK         0.0412 
    112 H112       24.3591  -34.2264  -42.1260 H         1 UNK         0.3472 
    113 H113       25.3973  -35.2907  -43.0468 H         1 UNK         0.3472 
    114 H114       21.9424  -34.1178  -46.0467 H         1 UNK         0.0970 
    115 H115       20.9400  -34.8274  -44.8131 H         1 UNK         0.0970 
    116 H116       18.1891  -33.5015  -44.9349 H         1 UNK         0.0612 
    117 H117       19.2231  -33.7475  -43.5510 H         1 UNK         0.0612 
@<TRIPOS>BOND
     1    1    2 1    
     2    1   62 1    
     3    1   63 1    
     4    1   64 1    
     5    2    3 2    
     6    2    4 am   BACKBONE|DICT|INTERRES
     7    4    5 1    
     8    4   65 1    
     9    5    6 1    
    10    5   25 1    
    11    5   66 1    
    12    6    7 1    
    13    6   67 1    
    14    6   68 1    
    15    7    8 1    
    16    8    9 1    
    17    8   69 1    
    18    8   70 1    
    19    9   10 ar   
    20    9   14 ar   
    21   10   11 ar   
    22   10   71 1    
    23   11   12 ar   
    24   11   61 1    
    25   12   13 ar   
    26   12   72 1    
    27   13   14 ar   
    28   13   15 1    
    29   14   73 1    
    30   15   16 1    
    31   15   74 1    
    32   15   75 1    
    33   16   17 1    
    34   17   18 1    
    35   17   76 1    
    36   17   77 1    
    37   18   19 1    
    38   18   27 1    
    39   18   78 1    
    40   19   20 am   BACKBONE|DICT|INTERRES
    41   19   79 1    
    42   20   21 2    
    43   20   22 1    
    44   22   23 1    
    45   22   24 1    
    46   22   80 1    
    47   23   81 1    
    48   23   82 1    
    49   23   83 1    
    50   24   25 am   BACKBONE|DICT|INTERRES
    51   24   84 1    
    52   25   26 2    
    53   27   28 2    
    54   27   29 am   BACKBONE|DICT|INTERRES
    55   29   30 1    
    56   29   85 1    
    57   30   31 1    
    58   30   32 1    
    59   30   86 1    
    60   31   87 1    
    61   31   88 1    
    62   31   89 1    
    63   32   33 2    
    64   32   34 am   BACKBONE|DICT|INTERRES
    65   34   35 1    
    66   34   90 1    
    67   35   36 1    
    68   35   37 1    
    69   35   91 1    
    70   36   92 1    
    71   36   93 1    
    72   36   94 1    
    73   37   38 2    
    74   37   39 am   BACKBONE|DICT|INTERRES
    75   39   40 1    
    76   39   95 1    
    77   40   41 1    
    78   40   42 1    
    79   40   96 1    
    80   41   97 1    
    81   41   98 1    
    82   41   99 1    
    83   42   43 2    
    84   42   44 am   BACKBONE|DICT|INTERRES
    85   44   45 1    
    86   44  100 1    
    87   45   46 1    
    88   45   47 1    
    89   45  101 1    
    90   46  102 1    
    91   46  103 1    
    92   46  104 1    
    93   47   48 2    
    94   47   49 am   BACKBONE|DICT|INTERRES
    95   49   50 1    
    96   49  105 1    
    97   50   51 1    
    98   50   52 1    
    99   50  106 1    
   100   51  107 1    
   101   51  108 1    
   102   51  109 1    
   103   52   53 2    
   104   52   54 am   BACKBONE|DICT|INTERRES
   105   54   55 1    
   106   54  110 1    
   107   55   56 1    
   108   55   59 1    
   109   55  111 1    
   110   56   57 am   BACKBONE|DICT|INTERRES
   111   56   58 2    
   112   57  112 1    
   113   57  113 1    
   114   59   60 1    
   115   59  114 1    
   116   59  115 1    
   117   60   61 1    
   118   61  116 1    
   119   61  117 1    
@<TRIPOS>SUBSTRUCTURE
     1 UNK         1 GROUP             0       ****    0 ROOT    
