@<TRIPOS>MOLECULE
3R8
117   119    1
SMALL
USER_CHARGES


@<TRIPOS>ATOM
      1 CA         15.0192  -30.2138  -38.9528 C.3       0 UNK        -0.2013 
      2 C          15.6712  -28.9702  -39.5378 C.2       0 UNK         0.4866 
      3 O          16.2231  -28.1608  -38.7919 O.2       0 UNK        -0.5176 
      4 N          15.6139  -28.8140  -40.8668 N.am      1 UNK        -0.4884 
      5 CA         16.2648  -27.7353  -41.6192 C.3       1 UNK         0.0853 
      6 C6         15.6689  -27.6009  -43.0449 C.3       10 UNK        -0.0849 
      7 S7         15.8819  -29.0824  -44.0969 S.3       10 UNK        -0.2776 
      8 C8         17.1414  -28.5278  -45.3062 C.3       10 UNK         0.0316 
      9 C9         18.3536  -29.4479  -45.4726 C.ar      10 UNK        -0.0863 
     10 C10        18.3887  -30.7630  -44.9896 C.ar      10 UNK        -0.1009 
     11 C11        19.5241  -31.5605  -45.1646 C.ar      10 UNK        -0.0712 
     12 C12        20.6319  -31.0429  -45.8400 C.ar      10 UNK        -0.0894 
     13 C13        20.6096  -29.7385  -46.3411 C.ar      10 UNK        -0.0745 
     14 C14        19.4681  -28.9524  -46.1572 C.ar      10 UNK        -0.0972 
     15 C15        21.8120  -29.1942  -47.0988 C.3       10 UNK         0.0209 
     16 S16        22.9471  -28.2797  -46.0095 S.3       10 UNK        -0.2568 
     17 C17        22.2843  -26.5793  -46.1248 C.3       10 UNK        -0.0983 
     18 CA         22.4319  -25.7463  -44.8219 C.3       3 UNK         0.0876 
     19 N          21.7002  -26.3197  -43.6980 N.am      3 UNK        -0.4424 
     20 C          20.4084  -26.1418  -43.4247 C.2       2 UNK         0.4918 
     21 O          19.6192  -25.5262  -44.1463 O.2       2 UNK        -0.4875 
     22 CA         19.9462  -26.7045  -42.0765 C.3       2 UNK         0.0481 
     23 CB         20.4093  -25.7828  -40.9327 C.3       2 UNK        -0.1831 
     24 N          18.4903  -26.8018  -42.0324 N.am      2 UNK        -0.4498 
     25 C          17.8051  -27.8754  -41.6257 C.2       1 UNK         0.5027 
     26 O          18.3359  -28.9315  -41.2650 O.2       1 UNK        -0.4969 
     27 C          23.8881  -25.4977  -44.3753 C.2       3 UNK         0.5005 
     28 O          24.1626  -25.4437  -43.1733 O.2       3 UNK        -0.5279 
     29 N          24.8075  -25.3513  -45.3381 N.am      4 UNK        -0.4463 
     30 CA         26.2463  -25.2434  -45.0819 C.3       4 UNK         0.0283 
     31 CB         26.9373  -24.6417  -46.3165 C.3       4 UNK        -0.1875 
     32 C          26.8922  -26.5927  -44.7139 C.2       4 UNK         0.4949 
     33 O          27.9132  -26.5997  -44.0260 O.2       4 UNK        -0.5039 
     34 N          26.3121  -27.7020  -45.1946 N.am      5 UNK        -0.4663 
     35 CA         26.8554  -29.0523  -45.0296 C.3       5 UNK         0.0242 
     36 CB         26.4350  -29.9152  -46.2312 C.3       5 UNK        -0.1982 
     37 C          26.4343  -29.7308  -43.7162 C.2       5 UNK         0.5017 
     38 O          27.1674  -30.5989  -43.2403 O.2       5 UNK        -0.5012 
     39 N          25.2746  -29.3568  -43.1614 N.am      6 UNK        -0.4439 
     40 CA         24.6899  -29.9581  -41.9640 C.3       6 UNK         0.0297 
     41 CB         24.0379  -31.3086  -42.3210 C.3       6 UNK        -0.2006 
     42 C          23.6536  -29.0067  -41.3586 C.2       6 UNK         0.4892 
     43 O          23.1173  -28.1550  -42.0696 O.2       6 UNK        -0.5089 
     44 N          23.3670  -29.1999  -40.0675 N.am      7 UNK        -0.4243 
     45 CA         22.3206  -28.5099  -39.3183 C.3       7 UNK         0.0196 
     46 CB         22.9478  -27.4451  -38.4042 C.3       7 UNK        -0.2007 
     47 C          21.5337  -29.5478  -38.5132 C.2       7 UNK         0.5020 
     48 O          22.1022  -30.5768  -38.1395 O.2       7 UNK        -0.5147 
     49 N          20.2396  -29.2685  -38.2889 N.am      8 UNK        -0.4734 
     50 CA         19.2271  -30.1853  -37.7339 C.3       8 UNK         0.0238 
     51 CB         19.5046  -30.4850  -36.2454 C.3       8 UNK        -0.1912 
     52 C          19.0722  -31.4619  -38.5894 C.2       8 UNK         0.5038 
     53 O          18.8960  -32.5586  -38.0557 O.2       8 UNK        -0.5046 
     54 N          19.1898  -31.2790  -39.9072 N.am      9 UNK        -0.4200 
     55 CA         19.2265  -32.3196  -40.9334 C.3       9 UNK         0.0839 
     56 C          17.8069  -32.6601  -41.4533 C.2       9 UNK         0.5513 
     57 N          16.9545  -31.6685  -41.6794 N.am      9 UNK        -0.7519 
     58 O          17.4728  -33.8269  -41.6397 O.2       9 UNK        -0.4960 
     59 C59        20.1735  -31.8594  -42.0693 C.3       10 UNK        -0.0876 
     60 S60        20.6994  -33.1816  -43.2124 S.3       10 UNK        -0.2414 
     61 C61        19.5499  -32.9810  -44.6152 C.3       10 UNK         0.0169 
     62 H62        14.2775  -29.9339  -38.2053 H         1 UNK         0.0903 
     63 H63        14.5221  -30.8110  -39.7171 H         1 UNK         0.0903 
     64 H64        15.7706  -30.8396  -38.4720 H         1 UNK         0.0903 
     65 H65        15.1518  -29.5105  -41.4337 H         1 UNK         0.3096 
     66 H66        16.0470  -26.8062  -41.0870 H         1 UNK         0.1121 
     67 H67        14.5966  -27.4155  -42.9635 H         1 UNK         0.0849 
     68 H68        16.0621  -26.7157  -43.5467 H         1 UNK         0.0849 
     69 H69        16.6556  -28.4152  -46.2763 H         1 UNK         0.0865 
     70 H70        17.5050  -27.5366  -45.0326 H         1 UNK         0.0865 
     71 H71        17.5388  -31.1772  -44.4670 H         1 UNK         0.1346 
     72 H72        21.5122  -31.6572  -45.9718 H         1 UNK         0.1412 
     73 H73        19.4426  -27.9463  -46.5509 H         1 UNK         0.1426 
     74 H74        21.4880  -28.5573  -47.9233 H         1 UNK         0.0716 
     75 H75        22.3631  -30.0175  -47.5560 H         1 UNK         0.0716 
     76 H76        22.7629  -26.0774  -46.9667 H         1 UNK         0.0695 
     77 H77        21.2294  -26.6223  -46.3908 H         1 UNK         0.0695 
     78 H78        22.0202  -24.7530  -45.0141 H         1 UNK         0.0983 
     79 H79        22.2839  -26.8376  -43.0395 H         1 UNK         0.3095 
     80 H80        20.3971  -27.6918  -41.9605 H         1 UNK         0.0454 
     81 H81        21.4979  -25.7171  -40.8955 H         1 UNK         0.0851 
     82 H82        20.0277  -24.7683  -41.0545 H         1 UNK         0.0851 
     83 H83        20.0718  -26.1476  -39.9630 H         1 UNK         0.0851 
     84 H84        17.9974  -25.9968  -42.3947 H         1 UNK         0.2976 
     85 H85        24.5159  -25.3907  -46.3044 H         1 UNK         0.3116 
     86 H86        26.4024  -24.5619  -44.2426 H         1 UNK         0.0646 
     87 H87        28.0080  -24.5231  -46.1440 H         1 UNK         0.0847 
     88 H88        26.5391  -23.6551  -46.5539 H         1 UNK         0.0847 
     89 H89        26.8188  -25.2743  -47.1971 H         1 UNK         0.0847 
     90 H90        25.4611  -27.6145  -45.7329 H         1 UNK         0.3040 
     91 H91        27.9467  -28.9954  -45.0279 H         1 UNK         0.1015 
     92 H92        26.7620  -29.4734  -47.1726 H         1 UNK         0.0786 
     93 H93        25.3539  -30.0481  -46.2787 H         1 UNK         0.0786 
     94 H94        26.8798  -30.9095  -46.1698 H         1 UNK         0.0786 
     95 H95        24.7319  -28.6053  -43.5691 H         1 UNK         0.3172 
     96 H96        25.4783  -30.1159  -41.2249 H         1 UNK         0.0595 
     97 H97        24.7686  -32.0170  -42.7111 H         1 UNK         0.0839 
     98 H98        23.2571  -31.1880  -43.0736 H         1 UNK         0.0839 
     99 H99        23.5813  -31.7723  -41.4459 H         1 UNK         0.0839 
    100 H100       23.7917  -29.9745  -39.5732 H         1 UNK         0.2998 
    101 H101       21.6295  -28.0335  -40.0106 H         1 UNK         0.0822 
    102 H102       23.4947  -26.7015  -38.9844 H         1 UNK         0.0787 
    103 H103       22.1819  -26.9149  -37.8367 H         1 UNK         0.0787 
    104 H104       23.6407  -27.8874  -37.6873 H         1 UNK         0.0787 
    105 H105       19.8756  -28.3898  -38.6316 H         1 UNK         0.3055 
    106 H106       18.2699  -29.6650  -37.7915 H         1 UNK         0.1106 
    107 H107       20.4166  -31.0671  -36.1105 H         1 UNK         0.0828 
    108 H108       19.6040  -29.5663  -35.6676 H         1 UNK         0.0828 
    109 H109       18.6876  -31.0572  -35.8043 H         1 UNK         0.0828 
    110 H110       19.2041  -30.3271  -40.2601 H         1 UNK         0.2931 
    111 H111       19.6473  -33.2245  -40.4901 H         1 UNK         0.0412 
    112 H112       16.0350  -31.8836  -42.0285 H         1 UNK         0.3472 
    113 H113       17.2530  -30.7089  -41.5562 H         1 UNK         0.3472 
    114 H114       21.0917  -31.4699  -41.6276 H         1 UNK         0.0970 
    115 H115       19.7487  -31.0126  -42.6082 H         1 UNK         0.0970 
    116 H116       18.5523  -33.2928  -44.3034 H         1 UNK         0.0612 
    117 H117       19.8459  -33.6666  -45.4102 H         1 UNK         0.0612 
@<TRIPOS>BOND
     1    1    2 1    
     2    1   62 1    
     3    1   63 1    
     4    1   64 1    
     5    2    3 2    
     6    2    4 am   BACKBONE|DICT|INTERRES
     7    4    5 1    
     8    4   65 1    
     9    5    6 1    
    10    5   25 1    
    11    5   66 1    
    12    6    7 1    
    13    6   67 1    
    14    6   68 1    
    15    7    8 1    
    16    8    9 1    
    17    8   69 1    
    18    8   70 1    
    19    9   10 ar   
    20    9   14 ar   
    21   10   11 ar   
    22   10   71 1    
    23   11   12 ar   
    24   11   61 1    
    25   12   13 ar   
    26   12   72 1    
    27   13   14 ar   
    28   13   15 1    
    29   14   73 1    
    30   15   16 1    
    31   15   74 1    
    32   15   75 1    
    33   16   17 1    
    34   17   18 1    
    35   17   76 1    
    36   17   77 1    
    37   18   19 1    
    38   18   27 1    
    39   18   78 1    
    40   19   20 am   BACKBONE|DICT|INTERRES
    41   19   79 1    
    42   20   21 2    
    43   20   22 1    
    44   22   23 1    
    45   22   24 1    
    46   22   80 1    
    47   23   81 1    
    48   23   82 1    
    49   23   83 1    
    50   24   25 am   BACKBONE|DICT|INTERRES
    51   24   84 1    
    52   25   26 2    
    53   27   28 2    
    54   27   29 am   BACKBONE|DICT|INTERRES
    55   29   30 1    
    56   29   85 1    
    57   30   31 1    
    58   30   32 1    
    59   30   86 1    
    60   31   87 1    
    61   31   88 1    
    62   31   89 1    
    63   32   33 2    
    64   32   34 am   BACKBONE|DICT|INTERRES
    65   34   35 1    
    66   34   90 1    
    67   35   36 1    
    68   35   37 1    
    69   35   91 1    
    70   36   92 1    
    71   36   93 1    
    72   36   94 1    
    73   37   38 2    
    74   37   39 am   BACKBONE|DICT|INTERRES
    75   39   40 1    
    76   39   95 1    
    77   40   41 1    
    78   40   42 1    
    79   40   96 1    
    80   41   97 1    
    81   41   98 1    
    82   41   99 1    
    83   42   43 2    
    84   42   44 am   BACKBONE|DICT|INTERRES
    85   44   45 1    
    86   44  100 1    
    87   45   46 1    
    88   45   47 1    
    89   45  101 1    
    90   46  102 1    
    91   46  103 1    
    92   46  104 1    
    93   47   48 2    
    94   47   49 am   BACKBONE|DICT|INTERRES
    95   49   50 1    
    96   49  105 1    
    97   50   51 1    
    98   50   52 1    
    99   50  106 1    
   100   51  107 1    
   101   51  108 1    
   102   51  109 1    
   103   52   53 2    
   104   52   54 am   BACKBONE|DICT|INTERRES
   105   54   55 1    
   106   54  110 1    
   107   55   56 1    
   108   55   59 1    
   109   55  111 1    
   110   56   57 am   BACKBONE|DICT|INTERRES
   111   56   58 2    
   112   57  112 1    
   113   57  113 1    
   114   59   60 1    
   115   59  114 1    
   116   59  115 1    
   117   60   61 1    
   118   61  116 1    
   119   61  117 1    
@<TRIPOS>SUBSTRUCTURE
     1 UNK         1 GROUP             0       ****    0 ROOT    
