@<TRIPOS>MOLECULE
3R8
117   119    1
SMALL
USER_CHARGES


@<TRIPOS>ATOM
      1 CA         14.1649  -30.6418  -41.8890 C.3       0 UNK        -0.2013 
      2 C          14.4396  -29.1499  -41.8036 C.2       0 UNK         0.4866 
      3 O          13.5884  -28.3969  -41.3294 O.2       0 UNK        -0.5176 
      4 N          15.6166  -28.7144  -42.2628 N.am      1 UNK        -0.4884 
      5 CA         16.0562  -27.3207  -42.2514 C.3       1 UNK         0.0853 
      6 C6         15.4414  -26.4976  -43.4210 C.3       10 UNK        -0.0849 
      7 S7         16.2104  -26.6605  -45.0718 S.3       10 UNK        -0.2776 
      8 C8         15.7679  -28.3574  -45.5932 C.3       10 UNK         0.0316 
      9 C9         16.8779  -29.3892  -45.3787 C.ar      10 UNK        -0.0863 
     10 C10        16.5439  -30.7198  -45.0966 C.ar      10 UNK        -0.1009 
     11 C11        17.5427  -31.6844  -44.9191 C.ar      10 UNK        -0.0712 
     12 C12        18.8840  -31.3177  -45.0493 C.ar      10 UNK        -0.0894 
     13 C13        19.2339  -29.9983  -45.3356 C.ar      10 UNK        -0.0745 
     14 C14        18.2299  -29.0422  -45.5038 C.ar      10 UNK        -0.0972 
     15 C15        20.6972  -29.6040  -45.4430 C.3       10 UNK         0.0209 
     16 S16        21.4660  -29.6023  -43.7987 S.3       10 UNK        -0.2568 
     17 C17        22.8935  -28.5015  -44.0536 C.3       10 UNK        -0.0983 
     18 CA         22.5394  -26.9867  -44.0919 C.3       3 UNK         0.0876 
     19 N          21.6312  -26.5829  -43.0163 N.am      3 UNK        -0.4424 
     20 C          20.3671  -26.1836  -43.1922 C.2       2 UNK         0.4918 
     21 O          19.8258  -26.0655  -44.2936 O.2       2 UNK        -0.4875 
     22 CA         19.5940  -25.8094  -41.9146 C.3       2 UNK         0.0481 
     23 CB         19.8173  -24.3281  -41.5705 C.3       2 UNK        -0.1831 
     24 N          18.1543  -26.0613  -42.0328 N.am      2 UNK        -0.4498 
     25 C          17.5934  -27.2749  -42.1361 C.2       1 UNK         0.5027 
     26 O          18.2328  -28.3292  -42.0996 O.2       1 UNK        -0.4969 
     27 C          23.8258  -26.1604  -43.9560 C.2       3 UNK         0.5005 
     28 O          24.2316  -25.8622  -42.8292 O.2       3 UNK        -0.5279 
     29 N          24.4970  -25.8797  -45.0825 N.am      4 UNK        -0.4463 
     30 CA         25.7991  -25.1965  -45.1261 C.3       4 UNK         0.0283 
     31 CB         26.1695  -24.8927  -46.5866 C.3       4 UNK        -0.1875 
     32 C          26.9323  -25.9824  -44.4365 C.2       4 UNK         0.4949 
     33 O          27.8737  -25.3735  -43.9295 O.2       4 UNK        -0.5039 
     34 N          26.8002  -27.3156  -44.4014 N.am      5 UNK        -0.4663 
     35 CA         27.6854  -28.2382  -43.6858 C.3       5 UNK         0.0242 
     36 CB         27.5776  -29.6242  -44.3464 C.3       5 UNK        -0.1982 
     37 C          27.3860  -28.3365  -42.1751 C.2       5 UNK         0.5017 
     38 O          28.1022  -29.0565  -41.4793 O.2       5 UNK        -0.5012 
     39 N          26.3286  -27.6564  -41.6990 N.am      6 UNK        -0.4439 
     40 CA         25.8106  -27.6511  -40.3229 C.3       6 UNK         0.0297 
     41 CB         26.8488  -27.0784  -39.3342 C.3       6 UNK        -0.2006 
     42 C          25.2290  -29.0041  -39.8597 C.2       6 UNK         0.4892 
     43 O          25.1016  -29.2290  -38.6553 O.2       6 UNK        -0.5089 
     44 N          24.8620  -29.8709  -40.8160 N.am      7 UNK        -0.4243 
     45 CA         24.2297  -31.1719  -40.5747 C.3       7 UNK         0.0196 
     46 CB         24.2622  -31.9987  -41.8706 C.3       7 UNK        -0.2007 
     47 C          22.7884  -31.0554  -40.0487 C.2       7 UNK         0.5020 
     48 O          22.3546  -31.9181  -39.2853 O.2       7 UNK        -0.5147 
     49 N          22.0795  -30.0000  -40.4784 N.am      8 UNK        -0.4734 
     50 CA         20.7159  -29.6097  -40.0931 C.3       8 UNK         0.0238 
     51 CB         20.7270  -28.9961  -38.6779 C.3       8 UNK        -0.1912 
     52 C          19.6691  -30.7329  -40.2501 C.2       8 UNK         0.5038 
     53 O          18.8056  -30.8910  -39.3844 O.2       8 UNK        -0.5046 
     54 N          19.7847  -31.5059  -41.3402 N.am      9 UNK        -0.4200 
     55 CA         18.9530  -32.6810  -41.6536 C.3       9 UNK         0.0839 
     56 C          19.1733  -33.9024  -40.7041 C.2       9 UNK         0.5513 
     57 N          20.2115  -33.9274  -39.8754 N.am      9 UNK        -0.7519 
     58 O          18.4150  -34.8674  -40.7364 O.2       9 UNK        -0.4960 
     59 C59        17.4579  -32.2835  -41.8390 C.3       10 UNK        -0.0876 
     60 S60        16.4703  -33.3638  -42.9367 S.3       10 UNK        -0.2414 
     61 C61        17.1906  -33.1302  -44.5970 C.3       10 UNK         0.0169 
     62 H62        14.5400  -31.1487  -41.0004 H         1 UNK         0.0903 
     63 H63        13.0940  -30.8299  -41.9629 H         1 UNK         0.0903 
     64 H64        14.6387  -31.0785  -42.7658 H         1 UNK         0.0903 
     65 H65        16.3259  -29.3555  -42.5977 H         1 UNK         0.3096 
     66 H66        15.6954  -26.8812  -41.3182 H         1 UNK         0.1121 
     67 H67        14.3756  -26.7121  -43.5143 H         1 UNK         0.0849 
     68 H68        15.4862  -25.4382  -43.1645 H         1 UNK         0.0849 
     69 H69        15.5325  -28.3358  -46.6579 H         1 UNK         0.0865 
     70 H70        14.8522  -28.6643  -45.0859 H         1 UNK         0.0865 
     71 H71        15.5057  -31.0104  -45.0145 H         1 UNK         0.1346 
     72 H72        19.6634  -32.0550  -44.9151 H         1 UNK         0.1412 
     73 H73        18.5100  -28.0217  -45.7253 H         1 UNK         0.1426 
     74 H74        20.7888  -28.6161  -45.8958 H         1 UNK         0.0716 
     75 H75        21.2281  -30.2991  -46.0948 H         1 UNK         0.0716 
     76 H76        23.4030  -28.7990  -44.9721 H         1 UNK         0.0695 
     77 H77        23.5904  -28.7144  -43.2417 H         1 UNK         0.0695 
     78 H78        22.0948  -26.7530  -45.0614 H         1 UNK         0.0983 
     79 H79        22.0499  -26.5383  -42.0983 H         1 UNK         0.3095 
     80 H80        19.9724  -26.4153  -41.0888 H         1 UNK         0.0454 
     81 H81        19.3194  -24.0558  -40.6397 H         1 UNK         0.0851 
     82 H82        19.4440  -23.6709  -42.3570 H         1 UNK         0.0851 
     83 H83        20.8785  -24.1101  -41.4425 H         1 UNK         0.0851 
     84 H84        17.5637  -25.2463  -42.1073 H         1 UNK         0.2976 
     85 H85        24.1077  -26.1639  -45.9711 H         1 UNK         0.3116 
     86 H86        25.6934  -24.2471  -44.5965 H         1 UNK         0.0646 
     87 H87        27.1207  -24.3613  -46.6448 H         1 UNK         0.0847 
     88 H88        25.4203  -24.2614  -47.0647 H         1 UNK         0.0847 
     89 H89        26.2703  -25.8038  -47.1777 H         1 UNK         0.0847 
     90 H90        26.0075  -27.7244  -44.8739 H         1 UNK         0.3040 
     91 H91        28.7156  -27.8886  -43.7860 H         1 UNK         0.1015 
     92 H92        27.8376  -29.5806  -45.4043 H         1 UNK         0.0786 
     93 H93        26.5710  -30.0362  -44.2640 H         1 UNK         0.0786 
     94 H94        28.2596  -30.3365  -43.8795 H         1 UNK         0.0786 
     95 H95        25.8128  -27.0635  -42.3418 H         1 UNK         0.3172 
     96 H96        24.9655  -26.9614  -40.3339 H         1 UNK         0.0595 
     97 H97        27.6943  -27.7527  -39.1956 H         1 UNK         0.0839 
     98 H98        26.4044  -26.9134  -38.3519 H         1 UNK         0.0839 
     99 H99        27.2361  -26.1189  -39.6767 H         1 UNK         0.0839 
    100 H100       25.0384  -29.6187  -41.7758 H         1 UNK         0.2998 
    101 H101       24.8150  -31.6974  -39.8169 H         1 UNK         0.0822 
    102 H102       23.7095  -31.5146  -42.6767 H         1 UNK         0.0787 
    103 H103       25.2847  -32.1589  -42.2134 H         1 UNK         0.0787 
    104 H104       23.8163  -32.9824  -41.7159 H         1 UNK         0.0787 
    105 H105       22.5275  -29.3928  -41.1487 H         1 UNK         0.3055 
    106 H106       20.4152  -28.8275  -40.7901 H         1 UNK         0.1106 
    107 H107       19.7479  -28.5919  -38.4176 H         1 UNK         0.0828 
    108 H108       20.9872  -29.7378  -37.9218 H         1 UNK         0.0828 
    109 H109       21.4433  -28.1779  -38.6051 H         1 UNK         0.0828 
    110 H110       20.5200  -31.2920  -41.9992 H         1 UNK         0.2931 
    111 H111       19.3267  -33.0169  -42.6201 H         1 UNK         0.0412 
    112 H112       20.8510  -33.1431  -39.8037 H         1 UNK         0.3472 
    113 H113       20.3419  -34.7304  -39.2811 H         1 UNK         0.3472 
    114 H114       16.9594  -32.2407  -40.8693 H         1 UNK         0.0970 
    115 H115       17.3904  -31.2697  -42.2351 H         1 UNK         0.0970 
    116 H116       18.0719  -33.7679  -44.6811 H         1 UNK         0.0612 
    117 H117       16.4817  -33.4989  -45.3393 H         1 UNK         0.0612 
@<TRIPOS>BOND
     1    1    2 1    
     2    1   62 1    
     3    1   63 1    
     4    1   64 1    
     5    2    3 2    
     6    2    4 am   BACKBONE|DICT|INTERRES
     7    4    5 1    
     8    4   65 1    
     9    5    6 1    
    10    5   25 1    
    11    5   66 1    
    12    6    7 1    
    13    6   67 1    
    14    6   68 1    
    15    7    8 1    
    16    8    9 1    
    17    8   69 1    
    18    8   70 1    
    19    9   10 ar   
    20    9   14 ar   
    21   10   11 ar   
    22   10   71 1    
    23   11   12 ar   
    24   11   61 1    
    25   12   13 ar   
    26   12   72 1    
    27   13   14 ar   
    28   13   15 1    
    29   14   73 1    
    30   15   16 1    
    31   15   74 1    
    32   15   75 1    
    33   16   17 1    
    34   17   18 1    
    35   17   76 1    
    36   17   77 1    
    37   18   19 1    
    38   18   27 1    
    39   18   78 1    
    40   19   20 am   BACKBONE|DICT|INTERRES
    41   19   79 1    
    42   20   21 2    
    43   20   22 1    
    44   22   23 1    
    45   22   24 1    
    46   22   80 1    
    47   23   81 1    
    48   23   82 1    
    49   23   83 1    
    50   24   25 am   BACKBONE|DICT|INTERRES
    51   24   84 1    
    52   25   26 2    
    53   27   28 2    
    54   27   29 am   BACKBONE|DICT|INTERRES
    55   29   30 1    
    56   29   85 1    
    57   30   31 1    
    58   30   32 1    
    59   30   86 1    
    60   31   87 1    
    61   31   88 1    
    62   31   89 1    
    63   32   33 2    
    64   32   34 am   BACKBONE|DICT|INTERRES
    65   34   35 1    
    66   34   90 1    
    67   35   36 1    
    68   35   37 1    
    69   35   91 1    
    70   36   92 1    
    71   36   93 1    
    72   36   94 1    
    73   37   38 2    
    74   37   39 am   BACKBONE|DICT|INTERRES
    75   39   40 1    
    76   39   95 1    
    77   40   41 1    
    78   40   42 1    
    79   40   96 1    
    80   41   97 1    
    81   41   98 1    
    82   41   99 1    
    83   42   43 2    
    84   42   44 am   BACKBONE|DICT|INTERRES
    85   44   45 1    
    86   44  100 1    
    87   45   46 1    
    88   45   47 1    
    89   45  101 1    
    90   46  102 1    
    91   46  103 1    
    92   46  104 1    
    93   47   48 2    
    94   47   49 am   BACKBONE|DICT|INTERRES
    95   49   50 1    
    96   49  105 1    
    97   50   51 1    
    98   50   52 1    
    99   50  106 1    
   100   51  107 1    
   101   51  108 1    
   102   51  109 1    
   103   52   53 2    
   104   52   54 am   BACKBONE|DICT|INTERRES
   105   54   55 1    
   106   54  110 1    
   107   55   56 1    
   108   55   59 1    
   109   55  111 1    
   110   56   57 am   BACKBONE|DICT|INTERRES
   111   56   58 2    
   112   57  112 1    
   113   57  113 1    
   114   59   60 1    
   115   59  114 1    
   116   59  115 1    
   117   60   61 1    
   118   61  116 1    
   119   61  117 1    
@<TRIPOS>SUBSTRUCTURE
     1 UNK         1 GROUP             0       ****    0 ROOT    
