@<TRIPOS>MOLECULE
3R8
117   119    1
SMALL
USER_CHARGES


@<TRIPOS>ATOM
      1 CA         15.8802  -23.3678  -44.6022 C.3       0 UNK        -0.2013 
      2 C          16.0452  -24.2275  -45.8538 C.2       0 UNK         0.4866 
      3 O          15.5857  -23.8157  -46.9170 O.2       0 UNK        -0.5176 
      4 N          16.6765  -25.4114  -45.8115 N.am      1 UNK        -0.4884 
      5 CA         17.3121  -26.1008  -44.6762 C.3       1 UNK         0.0853 
      6 C6         16.3415  -26.4987  -43.5266 C.3       10 UNK        -0.0849 
      7 S7         15.0866  -27.6962  -44.0940 S.3       10 UNK        -0.2776 
      8 C8         15.4158  -29.1454  -43.0249 C.3       10 UNK         0.0316 
      9 C9         16.8370  -29.7015  -43.1208 C.ar      10 UNK        -0.0863 
     10 C10        17.4893  -30.1353  -41.9610 C.ar      10 UNK        -0.1009 
     11 C11        18.7833  -30.6616  -42.0233 C.ar      10 UNK        -0.0712 
     12 C12        19.4386  -30.7333  -43.2559 C.ar      10 UNK        -0.0894 
     13 C13        18.7963  -30.3167  -44.4233 C.ar      10 UNK        -0.0745 
     14 C14        17.4924  -29.8171  -44.3518 C.ar      10 UNK        -0.0972 
     15 C15        19.4937  -30.4235  -45.7691 C.3       10 UNK         0.0209 
     16 S16        20.1140  -28.8072  -46.3269 S.3       10 UNK        -0.2568 
     17 C17        21.8495  -28.7880  -45.7377 C.3       10 UNK        -0.0983 
     18 CA         22.1828  -27.6891  -44.6917 C.3       3 UNK         0.0876 
     19 N          21.4956  -26.4360  -45.0058 N.am      3 UNK        -0.4424 
     20 C          21.6921  -25.2305  -44.4606 C.2       2 UNK         0.4918 
     21 O          22.5770  -24.9829  -43.6431 O.2       2 UNK        -0.4875 
     22 CA         20.6524  -24.1533  -44.8325 C.3       2 UNK         0.0481 
     23 CB         21.1207  -23.3497  -46.0548 C.3       2 UNK        -0.1831 
     24 N          19.3176  -24.7191  -45.0930 N.am      2 UNK        -0.4498 
     25 C          18.6003  -25.4058  -44.1882 C.2       1 UNK         0.5027 
     26 O          18.9592  -25.5364  -43.0195 O.2       1 UNK        -0.4969 
     27 C          22.0053  -28.1756  -43.2325 C.2       3 UNK         0.5005 
     28 O          22.7586  -29.0554  -42.8063 O.2       3 UNK        -0.5279 
     29 N          21.0802  -27.5799  -42.4611 N.am      4 UNK        -0.4463 
     30 CA         20.9630  -27.7928  -41.0164 C.3       4 UNK         0.0283 
     31 CB         19.6075  -27.2821  -40.5067 C.3       4 UNK        -0.1875 
     32 C          22.1128  -27.1564  -40.2192 C.2       4 UNK         0.4949 
     33 O          22.4164  -27.6480  -39.1337 O.2       4 UNK        -0.5039 
     34 N          22.7717  -26.1242  -40.7716 N.am      5 UNK        -0.4663 
     35 CA         23.9829  -25.5285  -40.1923 C.3       5 UNK         0.0242 
     36 CB         24.2807  -24.1852  -40.8764 C.3       5 UNK        -0.1982 
     37 C          25.1991  -26.4676  -40.2875 C.2       5 UNK         0.5017 
     38 O          26.0566  -26.4421  -39.4049 O.2       5 UNK        -0.5012 
     39 N          25.2271  -27.3006  -41.3376 N.am      6 UNK        -0.4439 
     40 CA         26.1861  -28.3925  -41.5215 C.3       6 UNK         0.0297 
     41 CB         26.3337  -28.6729  -43.0270 C.3       6 UNK        -0.2006 
     42 C          25.7716  -29.6773  -40.7768 C.2       6 UNK         0.4892 
     43 O          26.5873  -30.5942  -40.6772 O.2       6 UNK        -0.5089 
     44 N          24.5188  -29.7268  -40.2944 N.am      7 UNK        -0.4243 
     45 CA         23.8386  -30.8553  -39.6495 C.3       7 UNK         0.0196 
     46 CB         24.4722  -31.1680  -38.2779 C.3       7 UNK        -0.2007 
     47 C          23.7419  -32.0892  -40.5665 C.2       7 UNK         0.5020 
     48 O          23.8762  -33.2201  -40.0957 O.2       7 UNK        -0.5147 
     49 N          23.5060  -31.8550  -41.8673 N.am      8 UNK        -0.4734 
     50 CA         23.5383  -32.8835  -42.9168 C.3       8 UNK         0.0238 
     51 CB         23.4341  -32.2062  -44.2905 C.3       8 UNK        -0.1912 
     52 C          22.4628  -33.9770  -42.7810 C.2       8 UNK         0.5038 
     53 O          22.6485  -35.0709  -43.3153 O.2       8 UNK        -0.5046 
     54 N          21.3714  -33.6643  -42.0729 N.am      9 UNK        -0.4200 
     55 CA         20.2960  -34.5983  -41.7207 C.3       9 UNK         0.0839 
     56 C          20.6269  -35.5464  -40.5294 C.2       9 UNK         0.5513 
     57 N          21.7502  -35.3899  -39.8364 N.am      9 UNK        -0.7519 
     58 O          19.8536  -36.4558  -40.2399 O.2       9 UNK        -0.4960 
     59 C59        18.9388  -33.8632  -41.5586 C.3       10 UNK        -0.0876 
     60 S60        18.8279  -32.7241  -40.1289 S.3       10 UNK        -0.2414 
     61 C61        19.4812  -31.1434  -40.7593 C.3       10 UNK         0.0169 
     62 H62        15.8297  -22.3149  -44.8788 H         1 UNK         0.0903 
     63 H63        14.9490  -23.6209  -44.0965 H         1 UNK         0.0903 
     64 H64        16.6988  -23.4712  -43.8944 H         1 UNK         0.0903 
     65 H65        16.7260  -25.9290  -46.6787 H         1 UNK         0.3096 
     66 H66        17.6850  -27.0366  -45.0953 H         1 UNK         0.1121 
     67 H67        15.8370  -25.6315  -43.1033 H         1 UNK         0.0849 
     68 H68        16.8872  -26.9488  -42.6957 H         1 UNK         0.0849 
     69 H69        15.1861  -28.8669  -41.9951 H         1 UNK         0.0865 
     70 H70        14.7163  -29.9393  -43.2893 H         1 UNK         0.0865 
     71 H71        16.9889  -30.0738  -41.0041 H         1 UNK         0.1346 
     72 H72        20.4451  -31.1218  -43.3092 H         1 UNK         0.1412 
     73 H73        16.9920  -29.5077  -45.2591 H         1 UNK         0.1426 
     74 H74        18.7828  -30.7942  -46.5090 H         1 UNK         0.0716 
     75 H75        20.3015  -31.1558  -45.7398 H         1 UNK         0.0716 
     76 H76        22.4643  -28.6159  -46.6224 H         1 UNK         0.0695 
     77 H77        22.1439  -29.7754  -45.3873 H         1 UNK         0.0695 
     78 H78        23.2511  -27.4793  -44.7794 H         1 UNK         0.0983 
     79 H79        20.7377  -26.5368  -45.6658 H         1 UNK         0.3095 
     80 H80        20.5669  -23.4700  -43.9851 H         1 UNK         0.0454 
     81 H81        22.0997  -22.9032  -45.8749 H         1 UNK         0.0851 
     82 H82        20.4329  -22.5350  -46.2817 H         1 UNK         0.0851 
     83 H83        21.2067  -23.9753  -46.9441 H         1 UNK         0.0851 
     84 H84        18.9545  -24.6342  -46.0324 H         1 UNK         0.2976 
     85 H85        20.4745  -26.8694  -42.8579 H         1 UNK         0.3116 
     86 H86        21.0101  -28.8660  -40.8365 H         1 UNK         0.0646 
     87 H87        19.4514  -27.5698  -39.4663 H         1 UNK         0.0847 
     88 H88        19.5411  -26.1948  -40.5540 H         1 UNK         0.0847 
     89 H89        18.7816  -27.6947  -41.0852 H         1 UNK         0.0847 
     90 H90        22.4742  -25.7668  -41.6732 H         1 UNK         0.3040 
     91 H91        23.7957  -25.3378  -39.1329 H         1 UNK         0.1015 
     92 H92        25.1301  -23.6894  -40.4044 H         1 UNK         0.0786 
     93 H93        23.4304  -23.5064  -40.8085 H         1 UNK         0.0786 
     94 H94        24.5255  -24.3124  -41.9314 H         1 UNK         0.0786 
     95 H95        24.4744  -27.2429  -42.0083 H         1 UNK         0.3172 
     96 H96        27.1593  -28.0840  -41.1340 H         1 UNK         0.0595 
     97 H97        25.3982  -29.0155  -43.4707 H         1 UNK         0.0839 
     98 H98        27.0794  -29.4486  -43.2072 H         1 UNK         0.0839 
     99 H99        26.6577  -27.7836  -43.5678 H         1 UNK         0.0839 
    100 H100       23.9435  -28.9080  -40.4324 H         1 UNK         0.2998 
    101 H101       22.8125  -30.5305  -39.4706 H         1 UNK         0.0822 
    102 H102       23.8909  -31.9184  -37.7405 H         1 UNK         0.0787 
    103 H103       25.4870  -31.5541  -38.3785 H         1 UNK         0.0787 
    104 H104       24.5115  -30.2785  -37.6490 H         1 UNK         0.0787 
    105 H105       23.3828  -30.8927  -42.1724 H         1 UNK         0.3055 
    106 H106       24.5091  -33.3803  -42.8529 H         1 UNK         0.1106 
    107 H107       24.1747  -31.4148  -44.4083 H         1 UNK         0.0828 
    108 H108       23.5972  -32.9267  -45.0932 H         1 UNK         0.0828 
    109 H109       22.4464  -31.7745  -44.4410 H         1 UNK         0.0828 
    110 H110       21.3311  -32.7576  -41.6365 H         1 UNK         0.2931 
    111 H111       20.1689  -35.2648  -42.5761 H         1 UNK         0.0412 
    112 H112       21.9465  -36.0191  -39.0742 H         1 UNK         0.3472 
    113 H113       22.4073  -34.6497  -40.0561 H         1 UNK         0.3472 
    114 H114       18.6923  -33.3312  -42.4772 H         1 UNK         0.0970 
    115 H115       18.1407  -34.5992  -41.4463 H         1 UNK         0.0970 
    116 H116       19.3598  -30.3925  -39.9776 H         1 UNK         0.0612 
    117 H117       20.5549  -31.2364  -40.9215 H         1 UNK         0.0612 
@<TRIPOS>BOND
     1    1    2 1    
     2    1   62 1    
     3    1   63 1    
     4    1   64 1    
     5    2    3 2    
     6    2    4 am   BACKBONE|DICT|INTERRES
     7    4    5 1    
     8    4   65 1    
     9    5    6 1    
    10    5   25 1    
    11    5   66 1    
    12    6    7 1    
    13    6   67 1    
    14    6   68 1    
    15    7    8 1    
    16    8    9 1    
    17    8   69 1    
    18    8   70 1    
    19    9   10 ar   
    20    9   14 ar   
    21   10   11 ar   
    22   10   71 1    
    23   11   12 ar   
    24   11   61 1    
    25   12   13 ar   
    26   12   72 1    
    27   13   14 ar   
    28   13   15 1    
    29   14   73 1    
    30   15   16 1    
    31   15   74 1    
    32   15   75 1    
    33   16   17 1    
    34   17   18 1    
    35   17   76 1    
    36   17   77 1    
    37   18   19 1    
    38   18   27 1    
    39   18   78 1    
    40   19   20 am   BACKBONE|DICT|INTERRES
    41   19   79 1    
    42   20   21 2    
    43   20   22 1    
    44   22   23 1    
    45   22   24 1    
    46   22   80 1    
    47   23   81 1    
    48   23   82 1    
    49   23   83 1    
    50   24   25 am   BACKBONE|DICT|INTERRES
    51   24   84 1    
    52   25   26 2    
    53   27   28 2    
    54   27   29 am   BACKBONE|DICT|INTERRES
    55   29   30 1    
    56   29   85 1    
    57   30   31 1    
    58   30   32 1    
    59   30   86 1    
    60   31   87 1    
    61   31   88 1    
    62   31   89 1    
    63   32   33 2    
    64   32   34 am   BACKBONE|DICT|INTERRES
    65   34   35 1    
    66   34   90 1    
    67   35   36 1    
    68   35   37 1    
    69   35   91 1    
    70   36   92 1    
    71   36   93 1    
    72   36   94 1    
    73   37   38 2    
    74   37   39 am   BACKBONE|DICT|INTERRES
    75   39   40 1    
    76   39   95 1    
    77   40   41 1    
    78   40   42 1    
    79   40   96 1    
    80   41   97 1    
    81   41   98 1    
    82   41   99 1    
    83   42   43 2    
    84   42   44 am   BACKBONE|DICT|INTERRES
    85   44   45 1    
    86   44  100 1    
    87   45   46 1    
    88   45   47 1    
    89   45  101 1    
    90   46  102 1    
    91   46  103 1    
    92   46  104 1    
    93   47   48 2    
    94   47   49 am   BACKBONE|DICT|INTERRES
    95   49   50 1    
    96   49  105 1    
    97   50   51 1    
    98   50   52 1    
    99   50  106 1    
   100   51  107 1    
   101   51  108 1    
   102   51  109 1    
   103   52   53 2    
   104   52   54 am   BACKBONE|DICT|INTERRES
   105   54   55 1    
   106   54  110 1    
   107   55   56 1    
   108   55   59 1    
   109   55  111 1    
   110   56   57 am   BACKBONE|DICT|INTERRES
   111   56   58 2    
   112   57  112 1    
   113   57  113 1    
   114   59   60 1    
   115   59  114 1    
   116   59  115 1    
   117   60   61 1    
   118   61  116 1    
   119   61  117 1    
@<TRIPOS>SUBSTRUCTURE
     1 UNK         1 GROUP             0       ****    0 ROOT    
