@<TRIPOS>MOLECULE
3R8
117   119    1
SMALL
USER_CHARGES


@<TRIPOS>ATOM
      1 CA         18.4681  -23.1589  -40.0198 C.3       0 UNK        -0.2013 
      2 C          17.9419  -23.8835  -41.2491 C.2       0 UNK         0.4866 
      3 O          17.9795  -23.3306  -42.3478 O.2       0 UNK        -0.5176 
      4 N          17.4497  -25.1170  -41.0720 N.am      1 UNK        -0.4884 
      5 CA         16.9199  -25.9690  -42.1464 C.3       1 UNK         0.0853 
      6 C6         16.0905  -27.1413  -41.5624 C.3       10 UNK        -0.0849 
      7 S7         14.8370  -27.7706  -42.7271 S.3       10 UNK        -0.2776 
      8 C8         15.2254  -29.5525  -42.7894 C.3       10 UNK         0.0316 
      9 C9         16.3658  -29.9093  -43.7397 C.ar      10 UNK        -0.0863 
     10 C10        17.4215  -30.7166  -43.3006 C.ar      10 UNK        -0.1009 
     11 C11        18.3992  -31.1569  -44.1995 C.ar      10 UNK        -0.0712 
     12 C12        18.3342  -30.7642  -45.5373 C.ar      10 UNK        -0.0894 
     13 C13        17.3066  -29.9303  -45.9836 C.ar      10 UNK        -0.0745 
     14 C14        16.3208  -29.5149  -45.0823 C.ar      10 UNK        -0.0972 
     15 C15        17.2308  -29.5205  -47.4476 C.3       10 UNK         0.0209 
     16 S16        18.1352  -27.9751  -47.7825 S.3       10 UNK        -0.2568 
     17 C17        19.8693  -28.5422  -47.8536 C.3       10 UNK        -0.0983 
     18 CA         20.8016  -27.7488  -46.9052 C.3       3 UNK         0.0876 
     19 N          20.3900  -27.8298  -45.4987 N.am      3 UNK        -0.4424 
     20 C          20.7254  -26.9227  -44.5724 C.2       2 UNK         0.4918 
     21 O          21.2868  -25.8545  -44.8239 O.2       2 UNK        -0.4875 
     22 CA         20.4252  -27.2995  -43.1106 C.3       2 UNK         0.0481 
     23 CB         21.6299  -26.9440  -42.2213 C.3       2 UNK        -0.1831 
     24 N          19.2276  -26.6883  -42.5299 N.am      2 UNK        -0.4498 
     25 C          18.0248  -26.4877  -43.0917 C.2       1 UNK         0.5027 
     26 O          17.7559  -26.6906  -44.2739 O.2       1 UNK        -0.4969 
     27 C          22.2683  -28.2018  -47.0853 C.2       3 UNK         0.5005 
     28 O          22.9004  -27.8115  -48.0687 O.2       3 UNK        -0.5279 
     29 N          22.7774  -29.0102  -46.1439 N.am      4 UNK        -0.4463 
     30 CA         24.1555  -29.4884  -46.0767 C.3       4 UNK         0.0283 
     31 CB         24.1677  -31.0253  -46.2081 C.3       4 UNK        -0.1875 
     32 C          24.7997  -28.9466  -44.7882 C.2       4 UNK         0.4949 
     33 O          24.8671  -27.7270  -44.6281 O.2       4 UNK        -0.5039 
     34 N          25.2848  -29.8347  -43.9088 N.am      5 UNK        -0.4663 
     35 CA         25.9622  -29.4915  -42.6544 C.3       5 UNK         0.0242 
     36 CB         26.5532  -30.7681  -42.0368 C.3       5 UNK        -0.1982 
     37 C          25.0323  -28.7968  -41.6458 C.2       5 UNK         0.5017 
     38 O          23.8597  -29.1621  -41.5437 O.2       5 UNK        -0.5012 
     39 N          25.5934  -27.8473  -40.8828 N.am      6 UNK        -0.4439 
     40 CA         24.9016  -26.9639  -39.9315 C.3       6 UNK         0.0297 
     41 CB         25.9158  -25.9618  -39.3555 C.3       6 UNK        -0.2006 
     42 C          24.1340  -27.6618  -38.7908 C.2       6 UNK         0.4892 
     43 O          23.2840  -27.0250  -38.1681 O.2       6 UNK        -0.5089 
     44 N          24.4197  -28.9488  -38.5499 N.am      7 UNK        -0.4243 
     45 CA         23.6732  -29.8252  -37.6421 C.3       7 UNK         0.0196 
     46 CB         24.4661  -31.1294  -37.4543 C.3       7 UNK        -0.2007 
     47 C          22.2366  -30.1340  -38.1151 C.2       7 UNK         0.5020 
     48 O          21.4295  -30.5825  -37.3012 O.2       7 UNK        -0.5147 
     49 N          21.9535  -29.8976  -39.4055 N.am      8 UNK        -0.4734 
     50 CA         20.6953  -30.1364  -40.1201 C.3       8 UNK         0.0238 
     51 CB         19.6021  -29.1629  -39.6263 C.3       8 UNK        -0.1912 
     52 C          20.2425  -31.6136  -40.0728 C.2       8 UNK         0.5038 
     53 O          19.1815  -31.8975  -39.5171 O.2       8 UNK        -0.5046 
     54 N          20.9976  -32.5724  -40.6282 N.am      9 UNK        -0.4200 
     55 CA         22.2807  -32.4649  -41.3486 C.3       9 UNK         0.0839 
     56 C          23.3440  -33.4511  -40.7814 C.2       9 UNK         0.5513 
     57 N          23.1629  -34.0062  -39.5884 N.am      9 UNK        -0.7519 
     58 O          24.3567  -33.7146  -41.4232 O.2       9 UNK        -0.4960 
     59 C59        22.1013  -32.6077  -42.8855 C.3       10 UNK        -0.0876 
     60 S60        21.1017  -31.2686  -43.6207 S.3       10 UNK        -0.2414 
     61 C61        19.4949  -32.1073  -43.7492 C.3       10 UNK         0.0169 
     62 H62        18.3701  -23.7604  -39.1168 H         1 UNK         0.0903 
     63 H63        19.5218  -22.9141  -40.1512 H         1 UNK         0.0903 
     64 H64        17.9191  -22.2301  -39.8689 H         1 UNK         0.0903 
     65 H65        17.4240  -25.5093  -40.1412 H         1 UNK         0.3096 
     66 H66        16.2558  -25.3436  -42.7479 H         1 UNK         0.1121 
     67 H67        15.5408  -26.8065  -40.6812 H         1 UNK         0.0849 
     68 H68        16.7352  -27.9508  -41.2154 H         1 UNK         0.0849 
     69 H69        15.4251  -29.9144  -41.7799 H         1 UNK         0.0865 
     70 H70        14.3330  -30.0826  -43.1236 H         1 UNK         0.0865 
     71 H71        17.4592  -31.0412  -42.2694 H         1 UNK         0.1346 
     72 H72        19.0789  -31.1276  -46.2310 H         1 UNK         0.1412 
     73 H73        15.5074  -28.8923  -45.4291 H         1 UNK         0.1426 
     74 H74        17.6100  -30.3174  -48.0893 H         1 UNK         0.0716 
     75 H75        16.1876  -29.3782  -47.7335 H         1 UNK         0.0716 
     76 H76        19.9277  -29.6104  -47.6479 H         1 UNK         0.0695 
     77 H77        20.1999  -28.4239  -48.8875 H         1 UNK         0.0695 
     78 H78        20.7596  -26.7007  -47.2110 H         1 UNK         0.0983 
     79 H79        19.8335  -28.6300  -45.2317 H         1 UNK         0.3095 
     80 H80        20.2827  -28.3801  -43.0651 H         1 UNK         0.0454 
     81 H81        21.7116  -25.8680  -42.0638 H         1 UNK         0.0851 
     82 H82        21.5756  -27.4233  -41.2454 H         1 UNK         0.0851 
     83 H83        22.5624  -27.2654  -42.6861 H         1 UNK         0.0851 
     84 H84        19.3091  -26.4201  -41.5612 H         1 UNK         0.2976 
     85 H85        22.1927  -29.2445  -45.3539 H         1 UNK         0.3116 
     86 H86        24.7410  -29.0811  -46.9033 H         1 UNK         0.0646 
     87 H87        23.5898  -31.5105  -45.4229 H         1 UNK         0.0847 
     88 H88        23.7403  -31.3344  -47.1622 H         1 UNK         0.0847 
     89 H89        25.1838  -31.4207  -46.1764 H         1 UNK         0.0847 
     90 H90        25.1661  -30.8178  -44.1016 H         1 UNK         0.3040 
     91 H91        26.7810  -28.8115  -42.9001 H         1 UNK         0.1015 
     92 H92        25.7742  -31.4846  -41.7762 H         1 UNK         0.0786 
     93 H93        27.1074  -30.5443  -41.1243 H         1 UNK         0.0786 
     94 H94        27.2455  -31.2589  -42.7211 H         1 UNK         0.0786 
     95 H95        26.5752  -27.6526  -41.0203 H         1 UNK         0.3172 
     96 H96        24.1613  -26.4021  -40.5044 H         1 UNK         0.0595 
     97 H97        25.4319  -25.2633  -38.6710 H         1 UNK         0.0839 
     98 H98        26.3801  -25.3667  -40.1421 H         1 UNK         0.0839 
     99 H99        26.7084  -26.4643  -38.7995 H         1 UNK         0.0839 
    100 H100       25.1382  -29.3821  -39.1106 H         1 UNK         0.2998 
    101 H101       23.5958  -29.3241  -36.6749 H         1 UNK         0.0822 
    102 H102       23.9499  -31.8073  -36.7730 H         1 UNK         0.0787 
    103 H103       24.6020  -31.6584  -38.3984 H         1 UNK         0.0787 
    104 H104       25.4523  -30.9374  -37.0312 H         1 UNK         0.0787 
    105 H105       22.7108  -29.5612  -39.9950 H         1 UNK         0.3055 
    106 H106       20.8860  -29.8962  -41.1647 H         1 UNK         0.1106 
    107 H107       19.9307  -28.1263  -39.6850 H         1 UNK         0.0828 
    108 H108       18.7005  -29.2543  -40.2330 H         1 UNK         0.0828 
    109 H109       19.3198  -29.3606  -38.5917 H         1 UNK         0.0828 
    110 H110       20.6636  -33.5212  -40.5452 H         1 UNK         0.2931 
    111 H111       22.7285  -31.4903  -41.1835 H         1 UNK         0.0412 
    112 H112       23.8588  -34.6437  -39.2339 H         1 UNK         0.3472 
    113 H113       22.3545  -33.7829  -39.0298 H         1 UNK         0.3472 
    114 H114       23.0727  -32.5821  -43.3807 H         1 UNK         0.0970 
    115 H115       21.6683  -33.5780  -43.1343 H         1 UNK         0.0970 
    116 H116       19.2342  -32.5551  -42.7900 H         1 UNK         0.0612 
    117 H117       19.5769  -32.9312  -44.4596 H         1 UNK         0.0612 
@<TRIPOS>BOND
     1    1    2 1    
     2    1   62 1    
     3    1   63 1    
     4    1   64 1    
     5    2    3 2    
     6    2    4 am   BACKBONE|DICT|INTERRES
     7    4    5 1    
     8    4   65 1    
     9    5    6 1    
    10    5   25 1    
    11    5   66 1    
    12    6    7 1    
    13    6   67 1    
    14    6   68 1    
    15    7    8 1    
    16    8    9 1    
    17    8   69 1    
    18    8   70 1    
    19    9   10 ar   
    20    9   14 ar   
    21   10   11 ar   
    22   10   71 1    
    23   11   12 ar   
    24   11   61 1    
    25   12   13 ar   
    26   12   72 1    
    27   13   14 ar   
    28   13   15 1    
    29   14   73 1    
    30   15   16 1    
    31   15   74 1    
    32   15   75 1    
    33   16   17 1    
    34   17   18 1    
    35   17   76 1    
    36   17   77 1    
    37   18   19 1    
    38   18   27 1    
    39   18   78 1    
    40   19   20 am   BACKBONE|DICT|INTERRES
    41   19   79 1    
    42   20   21 2    
    43   20   22 1    
    44   22   23 1    
    45   22   24 1    
    46   22   80 1    
    47   23   81 1    
    48   23   82 1    
    49   23   83 1    
    50   24   25 am   BACKBONE|DICT|INTERRES
    51   24   84 1    
    52   25   26 2    
    53   27   28 2    
    54   27   29 am   BACKBONE|DICT|INTERRES
    55   29   30 1    
    56   29   85 1    
    57   30   31 1    
    58   30   32 1    
    59   30   86 1    
    60   31   87 1    
    61   31   88 1    
    62   31   89 1    
    63   32   33 2    
    64   32   34 am   BACKBONE|DICT|INTERRES
    65   34   35 1    
    66   34   90 1    
    67   35   36 1    
    68   35   37 1    
    69   35   91 1    
    70   36   92 1    
    71   36   93 1    
    72   36   94 1    
    73   37   38 2    
    74   37   39 am   BACKBONE|DICT|INTERRES
    75   39   40 1    
    76   39   95 1    
    77   40   41 1    
    78   40   42 1    
    79   40   96 1    
    80   41   97 1    
    81   41   98 1    
    82   41   99 1    
    83   42   43 2    
    84   42   44 am   BACKBONE|DICT|INTERRES
    85   44   45 1    
    86   44  100 1    
    87   45   46 1    
    88   45   47 1    
    89   45  101 1    
    90   46  102 1    
    91   46  103 1    
    92   46  104 1    
    93   47   48 2    
    94   47   49 am   BACKBONE|DICT|INTERRES
    95   49   50 1    
    96   49  105 1    
    97   50   51 1    
    98   50   52 1    
    99   50  106 1    
   100   51  107 1    
   101   51  108 1    
   102   51  109 1    
   103   52   53 2    
   104   52   54 am   BACKBONE|DICT|INTERRES
   105   54   55 1    
   106   54  110 1    
   107   55   56 1    
   108   55   59 1    
   109   55  111 1    
   110   56   57 am   BACKBONE|DICT|INTERRES
   111   56   58 2    
   112   57  112 1    
   113   57  113 1    
   114   59   60 1    
   115   59  114 1    
   116   59  115 1    
   117   60   61 1    
   118   61  116 1    
   119   61  117 1    
@<TRIPOS>SUBSTRUCTURE
     1 UNK         1 GROUP             0       ****    0 ROOT    
