@<TRIPOS>MOLECULE
3R8
117   119    1
SMALL
USER_CHARGES


@<TRIPOS>ATOM
      1 CA         21.5545  -31.3481  -46.0857 C.3       0 UNK        -0.2013 
      2 C          20.7241  -30.2332  -45.4714 C.2       0 UNK         0.4866 
      3 O          20.7272  -30.0675  -44.2534 O.2       0 UNK        -0.5176 
      4 N          20.0264  -29.4537  -46.3085 N.am      1 UNK        -0.4884 
      5 CA         19.0998  -28.3903  -45.8938 C.3       1 UNK         0.0853 
      6 C6         17.9997  -28.1164  -46.9497 C.3       10 UNK        -0.0849 
      7 S7         16.9341  -29.5649  -47.2397 S.3       10 UNK        -0.2776 
      8 C8         15.6373  -29.3197  -45.9758 C.3       10 UNK         0.0316 
      9 C9         16.0870  -29.7342  -44.5777 C.ar      10 UNK        -0.0863 
     10 C10        16.4988  -31.0501  -44.3446 C.ar      10 UNK        -0.1009 
     11 C11        16.8634  -31.4694  -43.0631 C.ar      10 UNK        -0.0712 
     12 C12        16.7990  -30.5605  -42.0022 C.ar      10 UNK        -0.0894 
     13 C13        16.4010  -29.2372  -42.2171 C.ar      10 UNK        -0.0745 
     14 C14        16.0509  -28.8271  -43.5103 C.ar      10 UNK        -0.0972 
     15 C15        16.2869  -28.2819  -41.0333 C.3       10 UNK         0.0209 
     16 S16        17.8941  -27.9160  -40.2501 S.3       10 UNK        -0.2568 
     17 C17        18.5204  -26.5818  -41.3172 C.3       10 UNK        -0.0983 
     18 CA         20.0715  -26.5091  -41.3589 C.3       3 UNK         0.0876 
     19 N          20.5151  -26.1102  -42.6951 N.am      3 UNK        -0.4424 
     20 C          21.7650  -26.0041  -43.1586 C.2       2 UNK         0.4918 
     21 O          22.7597  -25.9447  -42.4371 O.2       2 UNK        -0.4875 
     22 CA         21.9129  -25.9931  -44.6980 C.3       2 UNK         0.0481 
     23 CB         23.3815  -26.1266  -45.1404 C.3       2 UNK        -0.1831 
     24 N          21.1256  -27.0656  -45.3263 N.am      2 UNK        -0.4498 
     25 C          19.7897  -27.0815  -45.4539 C.2       1 UNK         0.5027 
     26 O          19.0896  -26.1097  -45.1619 O.2       1 UNK        -0.4969 
     27 C          20.6462  -25.6458  -40.2166 C.2       3 UNK         0.5005 
     28 O          20.9593  -26.1744  -39.1489 O.2       3 UNK        -0.5279 
     29 N          20.7972  -24.3385  -40.4720 N.am      4 UNK        -0.4463 
     30 CA         21.3646  -23.3676  -39.5337 C.3       4 UNK         0.0283 
     31 CB         20.9482  -21.9518  -39.9655 C.3       4 UNK        -0.1875 
     32 C          22.8967  -23.4551  -39.4013 C.2       4 UNK         0.4949 
     33 O          23.4288  -23.0070  -38.3851 O.2       4 UNK        -0.5039 
     34 N          23.5787  -23.9983  -40.4188 N.am      5 UNK        -0.4663 
     35 CA         25.0349  -24.1390  -40.4601 C.3       5 UNK         0.0242 
     36 CB         25.5443  -23.8007  -41.8723 C.3       5 UNK        -0.1982 
     37 C          25.4598  -25.5541  -40.0478 C.2       5 UNK         0.5017 
     38 O          26.2924  -25.6982  -39.1516 O.2       5 UNK        -0.5012 
     39 N          24.8766  -26.5665  -40.6997 N.am      6 UNK        -0.4439 
     40 CA         25.1286  -27.9850  -40.4767 C.3       6 UNK         0.0297 
     41 CB         26.5157  -28.3927  -41.0149 C.3       6 UNK        -0.2006 
     42 C          24.0139  -28.7719  -41.1700 C.2       6 UNK         0.4892 
     43 O          23.9960  -28.8451  -42.4011 O.2       6 UNK        -0.5089 
     44 N          23.1050  -29.3467  -40.3739 N.am      7 UNK        -0.4243 
     45 CA         22.0062  -30.1972  -40.8347 C.3       7 UNK         0.0196 
     46 CB         20.9241  -30.2467  -39.7394 C.3       7 UNK        -0.2007 
     47 C          22.5218  -31.5975  -41.2180 C.2       7 UNK         0.5020 
     48 O          22.2710  -32.5701  -40.5036 O.2       7 UNK        -0.5147 
     49 N          23.2640  -31.6799  -42.3292 N.am      8 UNK        -0.4734 
     50 CA         23.8688  -32.9001  -42.8795 C.3       8 UNK         0.0238 
     51 CB         25.0524  -32.5010  -43.7821 C.3       8 UNK        -0.1912 
     52 C          22.8386  -33.7935  -43.6032 C.2       8 UNK         0.5038 
     53 O          23.0371  -34.1578  -44.7644 O.2       8 UNK        -0.5046 
     54 N          21.7383  -34.0925  -42.9071 N.am      9 UNK        -0.4200 
     55 CA         20.5804  -34.8618  -43.3755 C.3       9 UNK         0.0839 
     56 C          20.9187  -36.3490  -43.6626 C.2       9 UNK         0.5513 
     57 N          20.2267  -36.9662  -44.6149 N.am      9 UNK        -0.7519 
     58 O          21.7646  -36.9578  -43.0046 O.2       9 UNK        -0.4960 
     59 C59        19.4041  -34.7441  -42.3703 C.3       10 UNK        -0.0876 
     60 S60        18.9433  -33.0029  -42.0635 S.3       10 UNK        -0.2414 
     61 C61        17.2970  -32.9105  -42.8292 C.3       10 UNK         0.0169 
     62 H62        22.5827  -31.2863  -45.7343 H         1 UNK         0.0903 
     63 H63        21.1515  -32.3163  -45.7922 H         1 UNK         0.0903 
     64 H64        21.5639  -31.3015  -47.1739 H         1 UNK         0.0903 
     65 H65        20.0644  -29.6320  -47.3025 H         1 UNK         0.3096 
     66 H66        18.5991  -28.7415  -44.9896 H         1 UNK         0.1121 
     67 H67        18.4509  -27.8232  -47.8991 H         1 UNK         0.0849 
     68 H68        17.3598  -27.2825  -46.6551 H         1 UNK         0.0849 
     69 H69        15.2971  -28.2830  -45.9909 H         1 UNK         0.0865 
     70 H70        14.7705  -29.9231  -46.2493 H         1 UNK         0.0865 
     71 H71        16.5272  -31.7510  -45.1678 H         1 UNK         0.1346 
     72 H72        17.0627  -30.8843  -41.0043 H         1 UNK         0.1412 
     73 H73        15.7233  -27.8101  -43.6797 H         1 UNK         0.1426 
     74 H74        15.6356  -28.7351  -40.2846 H         1 UNK         0.0716 
     75 H75        15.8038  -27.3483  -41.3259 H         1 UNK         0.0716 
     76 H76        18.0765  -25.6332  -41.0080 H         1 UNK         0.0695 
     77 H77        18.1275  -26.7740  -42.3176 H         1 UNK         0.0695 
     78 H78        20.4722  -27.5148  -41.2192 H         1 UNK         0.0983 
     79 H79        19.7869  -26.0762  -43.4023 H         1 UNK         0.3095 
     80 H80        21.5410  -25.0303  -45.0540 H         1 UNK         0.0454 
     81 H81        23.4739  -26.1104  -46.2263 H         1 UNK         0.0851 
     82 H82        23.8284  -27.0536  -44.7768 H         1 UNK         0.0851 
     83 H83        23.9827  -25.3024  -44.7546 H         1 UNK         0.0851 
     84 H84        21.6167  -27.9254  -45.5255 H         1 UNK         0.2976 
     85 H85        20.5231  -23.9941  -41.3815 H         1 UNK         0.3116 
     86 H86        20.9401  -23.5577  -38.5452 H         1 UNK         0.0646 
     87 H87        21.3366  -21.6989  -40.9530 H         1 UNK         0.0847 
     88 H88        21.3262  -21.2040  -39.2668 H         1 UNK         0.0847 
     89 H89        19.8634  -21.8465  -39.9923 H         1 UNK         0.0847 
     90 H90        23.0636  -24.4207  -41.1836 H         1 UNK         0.3040 
     91 H91        25.4999  -23.4369  -39.7638 H         1 UNK         0.1015 
     92 H92        25.1140  -24.4543  -42.6318 H         1 UNK         0.0786 
     93 H93        26.6287  -23.9034  -41.9299 H         1 UNK         0.0786 
     94 H94        25.3022  -22.7725  -42.1422 H         1 UNK         0.0786 
     95 H95        24.1685  -26.3602  -41.4061 H         1 UNK         0.3172 
     96 H96        25.0944  -28.1854  -39.4033 H         1 UNK         0.0595 
     97 H97        26.6714  -29.4678  -40.9147 H         1 UNK         0.0839 
     98 H98        27.3201  -27.8992  -40.4696 H         1 UNK         0.0839 
     99 H99        26.6266  -28.1441  -42.0715 H         1 UNK         0.0839 
    100 H100       23.2038  -29.2473  -39.3734 H         1 UNK         0.2998 
    101 H101       21.5600  -29.7497  -41.7257 H         1 UNK         0.0822 
    102 H102       20.5683  -29.2482  -39.4851 H         1 UNK         0.0787 
    103 H103       20.0599  -30.8218  -40.0752 H         1 UNK         0.0787 
    104 H104       21.2914  -30.7115  -38.8233 H         1 UNK         0.0787 
    105 H105       23.4396  -30.8134  -42.8278 H         1 UNK         0.3055 
    106 H106       24.2685  -33.4912  -42.0515 H         1 UNK         0.1106 
    107 H107       25.5609  -33.3826  -44.1758 H         1 UNK         0.0828 
    108 H108       24.7270  -31.9026  -44.6345 H         1 UNK         0.0828 
    109 H109       25.7942  -31.9217  -43.2306 H         1 UNK         0.0828 
    110 H110       21.6744  -33.7279  -41.9618 H         1 UNK         0.2931 
    111 H111       20.2643  -34.4074  -44.3174 H         1 UNK         0.0412 
    112 H112       19.5218  -36.4801  -45.1524 H         1 UNK         0.3472 
    113 H113       20.4175  -37.9378  -44.8066 H         1 UNK         0.3472 
    114 H114       19.6735  -35.1974  -41.4139 H         1 UNK         0.0970 
    115 H115       18.5328  -35.2952  -42.7291 H         1 UNK         0.0970 
    116 H116       17.3144  -33.4594  -43.7727 H         1 UNK         0.0612 
    117 H117       16.5703  -33.4093  -42.1858 H         1 UNK         0.0612 
@<TRIPOS>BOND
     1    1    2 1    
     2    1   62 1    
     3    1   63 1    
     4    1   64 1    
     5    2    3 2    
     6    2    4 am   BACKBONE|DICT|INTERRES
     7    4    5 1    
     8    4   65 1    
     9    5    6 1    
    10    5   25 1    
    11    5   66 1    
    12    6    7 1    
    13    6   67 1    
    14    6   68 1    
    15    7    8 1    
    16    8    9 1    
    17    8   69 1    
    18    8   70 1    
    19    9   10 ar   
    20    9   14 ar   
    21   10   11 ar   
    22   10   71 1    
    23   11   12 ar   
    24   11   61 1    
    25   12   13 ar   
    26   12   72 1    
    27   13   14 ar   
    28   13   15 1    
    29   14   73 1    
    30   15   16 1    
    31   15   74 1    
    32   15   75 1    
    33   16   17 1    
    34   17   18 1    
    35   17   76 1    
    36   17   77 1    
    37   18   19 1    
    38   18   27 1    
    39   18   78 1    
    40   19   20 am   BACKBONE|DICT|INTERRES
    41   19   79 1    
    42   20   21 2    
    43   20   22 1    
    44   22   23 1    
    45   22   24 1    
    46   22   80 1    
    47   23   81 1    
    48   23   82 1    
    49   23   83 1    
    50   24   25 am   BACKBONE|DICT|INTERRES
    51   24   84 1    
    52   25   26 2    
    53   27   28 2    
    54   27   29 am   BACKBONE|DICT|INTERRES
    55   29   30 1    
    56   29   85 1    
    57   30   31 1    
    58   30   32 1    
    59   30   86 1    
    60   31   87 1    
    61   31   88 1    
    62   31   89 1    
    63   32   33 2    
    64   32   34 am   BACKBONE|DICT|INTERRES
    65   34   35 1    
    66   34   90 1    
    67   35   36 1    
    68   35   37 1    
    69   35   91 1    
    70   36   92 1    
    71   36   93 1    
    72   36   94 1    
    73   37   38 2    
    74   37   39 am   BACKBONE|DICT|INTERRES
    75   39   40 1    
    76   39   95 1    
    77   40   41 1    
    78   40   42 1    
    79   40   96 1    
    80   41   97 1    
    81   41   98 1    
    82   41   99 1    
    83   42   43 2    
    84   42   44 am   BACKBONE|DICT|INTERRES
    85   44   45 1    
    86   44  100 1    
    87   45   46 1    
    88   45   47 1    
    89   45  101 1    
    90   46  102 1    
    91   46  103 1    
    92   46  104 1    
    93   47   48 2    
    94   47   49 am   BACKBONE|DICT|INTERRES
    95   49   50 1    
    96   49  105 1    
    97   50   51 1    
    98   50   52 1    
    99   50  106 1    
   100   51  107 1    
   101   51  108 1    
   102   51  109 1    
   103   52   53 2    
   104   52   54 am   BACKBONE|DICT|INTERRES
   105   54   55 1    
   106   54  110 1    
   107   55   56 1    
   108   55   59 1    
   109   55  111 1    
   110   56   57 am   BACKBONE|DICT|INTERRES
   111   56   58 2    
   112   57  112 1    
   113   57  113 1    
   114   59   60 1    
   115   59  114 1    
   116   59  115 1    
   117   60   61 1    
   118   61  116 1    
   119   61  117 1    
@<TRIPOS>SUBSTRUCTURE
     1 UNK         1 GROUP             0       ****    0 ROOT    
