@<TRIPOS>MOLECULE
3R8
117   119    1
SMALL
USER_CHARGES


@<TRIPOS>ATOM
      1 CA         15.9992  -23.1788  -47.8187 C.3       0 UNK        -0.2013 
      2 C          14.6192  -23.4858  -47.2408 C.2       0 UNK         0.4866 
      3 O          13.6511  -22.8243  -47.6114 O.2       0 UNK        -0.5176 
      4 N          14.4655  -24.4768  -46.3507 N.am      1 UNK        -0.4884 
      5 CA         15.5208  -25.2969  -45.7439 C.3       1 UNK         0.0853 
      6 C6         14.9175  -26.5636  -45.0840 C.3       10 UNK        -0.0849 
      7 S7         16.1613  -27.8707  -44.8068 S.3       10 UNK        -0.2776 
      8 C8         16.2797  -27.8687  -42.9815 C.3       10 UNK         0.0316 
      9 C9         17.4601  -28.6547  -42.4045 C.ar      10 UNK        -0.0863 
     10 C10        18.1081  -29.6747  -43.1167 C.ar      10 UNK        -0.1009 
     11 C11        19.1919  -30.3596  -42.5602 C.ar      10 UNK        -0.0712 
     12 C12        19.6139  -30.0375  -41.2686 C.ar      10 UNK        -0.0894 
     13 C13        18.9758  -29.0336  -40.5380 C.ar      10 UNK        -0.0745 
     14 C14        17.9010  -28.3469  -41.1115 C.ar      10 UNK        -0.0972 
     15 C15        19.4612  -28.6927  -39.1356 C.3       10 UNK         0.0209 
     16 S16        21.1301  -27.9589  -39.1500 S.3       10 UNK        -0.2568 
     17 C17        20.8176  -26.3242  -39.8939 C.3       10 UNK        -0.0983 
     18 CA         20.9930  -26.3028  -41.4383 C.3       3 UNK         0.0876 
     19 N          20.0845  -25.3152  -42.0363 N.am      3 UNK        -0.4424 
     20 C          19.5743  -25.3669  -43.2704 C.2       2 UNK         0.4918 
     21 O          19.8955  -26.2098  -44.1109 O.2       2 UNK        -0.4875 
     22 CA         18.5770  -24.2670  -43.6435 C.3       2 UNK         0.0481 
     23 CB         19.2955  -23.0521  -44.2553 C.3       2 UNK        -0.1831 
     24 N          17.6347  -24.8252  -44.6049 N.am      2 UNK        -0.4498 
     25 C          16.3518  -24.4751  -44.7343 C.2       1 UNK         0.5027 
     26 O          15.8179  -23.5695  -44.0887 O.2       1 UNK        -0.4969 
     27 C          22.4644  -26.1351  -41.9006 C.2       3 UNK         0.5005 
     28 O          23.3921  -26.3956  -41.1328 O.2       3 UNK        -0.5279 
     29 N          22.6687  -25.7053  -43.1547 N.am      4 UNK        -0.4463 
     30 CA         23.9765  -25.4426  -43.7667 C.3       4 UNK         0.0283 
     31 CB         23.7697  -24.7164  -45.1054 C.3       4 UNK        -0.1875 
     32 C          24.8304  -26.7075  -43.9659 C.2       4 UNK         0.4949 
     33 O          26.0577  -26.6172  -43.9609 O.2       4 UNK        -0.5039 
     34 N          24.1679  -27.8618  -44.1126 N.am      5 UNK        -0.4663 
     35 CA         24.7874  -29.1856  -44.2209 C.3       5 UNK         0.0242 
     36 CB         23.8972  -30.0626  -45.1188 C.3       5 UNK        -0.1982 
     37 C          25.0318  -29.8540  -42.8511 C.2       5 UNK         0.5017 
     38 O          25.4356  -31.0189  -42.8266 O.2       5 UNK        -0.5012 
     39 N          24.7699  -29.1242  -41.7526 N.am      6 UNK        -0.4439 
     40 CA         24.7724  -29.5538  -40.3481 C.3       6 UNK         0.0297 
     41 CB         26.1436  -30.1315  -39.9348 C.3       6 UNK        -0.2006 
     42 C          23.6201  -30.5227  -40.0280 C.2       6 UNK         0.4892 
     43 O          22.9181  -30.9809  -40.9296 O.2       6 UNK        -0.5089 
     44 N          23.4427  -30.8281  -38.7350 N.am      7 UNK        -0.4243 
     45 CA         22.3725  -31.6919  -38.2163 C.3       7 UNK         0.0196 
     46 CB         22.3983  -31.6596  -36.6800 C.3       7 UNK        -0.2007 
     47 C          22.4169  -33.1446  -38.7295 C.2       7 UNK         0.5020 
     48 O          21.3867  -33.8179  -38.7255 O.2       7 UNK        -0.5147 
     49 N          23.5974  -33.5962  -39.1738 N.am      8 UNK        -0.4734 
     50 CA         23.8004  -34.8806  -39.8478 C.3       8 UNK         0.0238 
     51 CB         25.2915  -35.2496  -39.7709 C.3       8 UNK        -0.1912 
     52 C          23.3235  -34.8847  -41.3142 C.2       8 UNK         0.5038 
     53 O          23.1638  -35.9687  -41.8772 O.2       8 UNK        -0.5046 
     54 N          23.1197  -33.6969  -41.9027 N.am      9 UNK        -0.4200 
     55 CA         22.7338  -33.4590  -43.3006 C.3       9 UNK         0.0839 
     56 C          23.7702  -34.0252  -44.3105 C.2       9 UNK         0.5513 
     57 N          25.0211  -33.5925  -44.2196 N.am      9 UNK        -0.7519 
     58 O          23.4546  -34.8451  -45.1697 O.2       9 UNK        -0.4960 
     59 C59        21.2638  -33.8617  -43.6146 C.3       10 UNK        -0.0876 
     60 S60        20.0522  -33.0148  -42.5418 S.3       10 UNK        -0.2414 
     61 C61        19.9483  -31.3990  -43.3761 C.3       10 UNK         0.0169 
     62 H62        15.9177  -22.4538  -48.6285 H         1 UNK         0.0903 
     63 H63        16.6538  -22.7511  -47.0602 H         1 UNK         0.0903 
     64 H64        16.4669  -24.0725  -48.2298 H         1 UNK         0.0903 
     65 H65        13.5403  -24.6309  -45.9755 H         1 UNK         0.3096 
     66 H66        16.1834  -25.6250  -46.5473 H         1 UNK         0.1121 
     67 H67        14.1600  -26.9951  -45.7407 H         1 UNK         0.0849 
     68 H68        14.3964  -26.3211  -44.1553 H         1 UNK         0.0849 
     69 H69        15.3547  -28.2726  -42.5679 H         1 UNK         0.0865 
     70 H70        16.3464  -26.8334  -42.6431 H         1 UNK         0.0865 
     71 H71        17.7863  -29.9319  -44.1156 H         1 UNK         0.1346 
     72 H72        20.4533  -30.5617  -40.8350 H         1 UNK         0.1412 
     73 H73        17.4080  -27.5653  -40.5492 H         1 UNK         0.1426 
     74 H74        19.4850  -29.6049  -38.5379 H         1 UNK         0.0716 
     75 H75        18.7690  -28.0166  -38.6315 H         1 UNK         0.0716 
     76 H76        21.4624  -25.5865  -39.4124 H         1 UNK         0.0695 
     77 H77        19.8008  -26.0371  -39.6208 H         1 UNK         0.0695 
     78 H78        20.6869  -27.2781  -41.8221 H         1 UNK         0.0983 
     79 H79        19.8102  -24.5528  -41.4334 H         1 UNK         0.3095 
     80 H80        18.0436  -23.9616  -42.7406 H         1 UNK         0.0454 
     81 H81        18.5891  -22.2627  -44.5125 H         1 UNK         0.0851 
     82 H82        19.8407  -23.3202  -45.1612 H         1 UNK         0.0851 
     83 H83        20.0145  -22.6262  -43.5545 H         1 UNK         0.0851 
     84 H84        17.9919  -25.6281  -45.1104 H         1 UNK         0.2976 
     85 H85        21.8509  -25.5797  -43.7401 H         1 UNK         0.3116 
     86 H86        24.5289  -24.7779  -43.0991 H         1 UNK         0.0646 
     87 H87        24.7267  -24.4832  -45.5746 H         1 UNK         0.0847 
     88 H88        23.2404  -23.7731  -44.9688 H         1 UNK         0.0847 
     89 H89        23.2004  -25.3227  -45.8112 H         1 UNK         0.0847 
     90 H90        23.1581  -27.8343  -44.1043 H         1 UNK         0.3040 
     91 H91        25.7626  -29.0894  -44.7035 H         1 UNK         0.1015 
     92 H92        23.7450  -29.6031  -46.0956 H         1 UNK         0.0786 
     93 H93        22.9180  -30.2322  -44.6719 H         1 UNK         0.0786 
     94 H94        24.3532  -31.0371  -45.2942 H         1 UNK         0.0786 
     95 H95        24.4169  -28.1852  -41.8949 H         1 UNK         0.3172 
     96 H96        24.5947  -28.6491  -39.7644 H         1 UNK         0.0595 
     97 H97        26.3287  -31.1087  -40.3818 H         1 UNK         0.0839 
     98 H98        26.2120  -30.2549  -38.8538 H         1 UNK         0.0839 
     99 H99        26.9572  -29.4696  -40.2317 H         1 UNK         0.0839 
    100 H100       24.0528  -30.4071  -38.0490 H         1 UNK         0.2998 
    101 H101       21.4232  -31.2681  -38.5501 H         1 UNK         0.0822 
    102 H102       22.2600  -30.6462  -36.3023 H         1 UNK         0.0787 
    103 H103       21.5961  -32.2702  -36.2629 H         1 UNK         0.0787 
    104 H104       23.3396  -32.0429  -36.2840 H         1 UNK         0.0787 
    105 H105       24.3914  -32.9746  -39.1252 H         1 UNK         0.3055 
    106 H106       23.2279  -35.6465  -39.3194 H         1 UNK         0.1106 
    107 H107       25.4775  -36.2205  -40.2323 H         1 UNK         0.0828 
    108 H108       25.9157  -34.5195  -40.2881 H         1 UNK         0.0828 
    109 H109       25.6328  -35.3142  -38.7376 H         1 UNK         0.0828 
    110 H110       23.2346  -32.8494  -41.3560 H         1 UNK         0.2931 
    111 H111       22.7956  -32.3787  -43.4257 H         1 UNK         0.0412 
    112 H112       25.2601  -32.8548  -43.5636 H         1 UNK         0.3472 
    113 H113       25.7167  -33.9458  -44.8570 H         1 UNK         0.3472 
    114 H114       21.0196  -33.6414  -44.6554 H         1 UNK         0.0970 
    115 H115       21.1337  -34.9387  -43.4974 H         1 UNK         0.0970 
    116 H116       20.9527  -31.0159  -43.5521 H         1 UNK         0.0612 
    117 H117       19.4895  -31.5371  -44.3563 H         1 UNK         0.0612 
@<TRIPOS>BOND
     1    1    2 1    
     2    1   62 1    
     3    1   63 1    
     4    1   64 1    
     5    2    3 2    
     6    2    4 am   BACKBONE|DICT|INTERRES
     7    4    5 1    
     8    4   65 1    
     9    5    6 1    
    10    5   25 1    
    11    5   66 1    
    12    6    7 1    
    13    6   67 1    
    14    6   68 1    
    15    7    8 1    
    16    8    9 1    
    17    8   69 1    
    18    8   70 1    
    19    9   10 ar   
    20    9   14 ar   
    21   10   11 ar   
    22   10   71 1    
    23   11   12 ar   
    24   11   61 1    
    25   12   13 ar   
    26   12   72 1    
    27   13   14 ar   
    28   13   15 1    
    29   14   73 1    
    30   15   16 1    
    31   15   74 1    
    32   15   75 1    
    33   16   17 1    
    34   17   18 1    
    35   17   76 1    
    36   17   77 1    
    37   18   19 1    
    38   18   27 1    
    39   18   78 1    
    40   19   20 am   BACKBONE|DICT|INTERRES
    41   19   79 1    
    42   20   21 2    
    43   20   22 1    
    44   22   23 1    
    45   22   24 1    
    46   22   80 1    
    47   23   81 1    
    48   23   82 1    
    49   23   83 1    
    50   24   25 am   BACKBONE|DICT|INTERRES
    51   24   84 1    
    52   25   26 2    
    53   27   28 2    
    54   27   29 am   BACKBONE|DICT|INTERRES
    55   29   30 1    
    56   29   85 1    
    57   30   31 1    
    58   30   32 1    
    59   30   86 1    
    60   31   87 1    
    61   31   88 1    
    62   31   89 1    
    63   32   33 2    
    64   32   34 am   BACKBONE|DICT|INTERRES
    65   34   35 1    
    66   34   90 1    
    67   35   36 1    
    68   35   37 1    
    69   35   91 1    
    70   36   92 1    
    71   36   93 1    
    72   36   94 1    
    73   37   38 2    
    74   37   39 am   BACKBONE|DICT|INTERRES
    75   39   40 1    
    76   39   95 1    
    77   40   41 1    
    78   40   42 1    
    79   40   96 1    
    80   41   97 1    
    81   41   98 1    
    82   41   99 1    
    83   42   43 2    
    84   42   44 am   BACKBONE|DICT|INTERRES
    85   44   45 1    
    86   44  100 1    
    87   45   46 1    
    88   45   47 1    
    89   45  101 1    
    90   46  102 1    
    91   46  103 1    
    92   46  104 1    
    93   47   48 2    
    94   47   49 am   BACKBONE|DICT|INTERRES
    95   49   50 1    
    96   49  105 1    
    97   50   51 1    
    98   50   52 1    
    99   50  106 1    
   100   51  107 1    
   101   51  108 1    
   102   51  109 1    
   103   52   53 2    
   104   52   54 am   BACKBONE|DICT|INTERRES
   105   54   55 1    
   106   54  110 1    
   107   55   56 1    
   108   55   59 1    
   109   55  111 1    
   110   56   57 am   BACKBONE|DICT|INTERRES
   111   56   58 2    
   112   57  112 1    
   113   57  113 1    
   114   59   60 1    
   115   59  114 1    
   116   59  115 1    
   117   60   61 1    
   118   61  116 1    
   119   61  117 1    
@<TRIPOS>SUBSTRUCTURE
     1 UNK         1 GROUP             0       ****    0 ROOT    
