@<TRIPOS>MOLECULE
3R8
117   119    1
SMALL
USER_CHARGES


@<TRIPOS>ATOM
      1 CA         14.3774  -22.0524  -42.1631 C.3       0 UNK        -0.2013 
      2 C          14.8388  -22.8898  -43.3464 C.2       0 UNK         0.4866 
      3 O          14.7528  -22.4358  -44.4876 O.2       0 UNK        -0.5176 
      4 N          15.3259  -24.1106  -43.0844 N.am      1 UNK        -0.4884 
      5 CA         15.8274  -25.0458  -44.1012 C.3       1 UNK         0.0853 
      6 C6         15.9255  -26.4856  -43.5324 C.3       10 UNK        -0.0849 
      7 S7         15.8372  -27.7721  -44.8254 S.3       10 UNK        -0.2776 
      8 C8         15.9498  -29.3004  -43.8390 C.3       10 UNK         0.0316 
      9 C9         17.3676  -29.5600  -43.3488 C.ar      10 UNK        -0.0863 
     10 C10        18.2609  -30.3076  -44.1252 C.ar      10 UNK        -0.1009 
     11 C11        19.5607  -30.5537  -43.6705 C.ar      10 UNK        -0.0712 
     12 C12        19.9685  -30.0325  -42.4413 C.ar      10 UNK        -0.0894 
     13 C13        19.0883  -29.2796  -41.6621 C.ar      10 UNK        -0.0745 
     14 C14        17.7843  -29.0611  -42.1113 C.ar      10 UNK        -0.0972 
     15 C15        19.5521  -28.6882  -40.3428 C.3       10 UNK         0.0209 
     16 S16        19.9782  -26.9258  -40.5185 S.3       10 UNK        -0.2568 
     17 C17        21.4578  -26.9998  -41.5865 C.3       10 UNK        -0.0983 
     18 CA         21.1522  -26.7066  -43.0779 C.3       3 UNK         0.0876 
     19 N          20.5143  -25.3937  -43.2403 N.am      3 UNK        -0.4424 
     20 C          20.2721  -24.7064  -44.3664 C.2       2 UNK         0.4918 
     21 O          20.6487  -25.0324  -45.4927 O.2       2 UNK        -0.4875 
     22 CA         19.3736  -23.4695  -44.1832 C.3       2 UNK         0.0481 
     23 CB         19.4488  -22.4821  -45.3674 C.3       2 UNK        -0.1831 
     24 N          17.9889  -23.8790  -43.9111 N.am      2 UNK        -0.4498 
     25 C          17.1749  -24.5940  -44.7096 C.2       1 UNK         0.5027 
     26 O          17.4404  -24.9028  -45.8718 O.2       1 UNK        -0.4969 
     27 C          22.4177  -26.8979  -43.9432 C.2       3 UNK         0.5005 
     28 O          23.4836  -26.3834  -43.5972 O.2       3 UNK        -0.5279 
     29 N          22.2645  -27.6181  -45.0634 N.am      4 UNK        -0.4463 
     30 CA         23.2789  -27.7686  -46.1113 C.3       4 UNK         0.0283 
     31 CB         22.5928  -28.2721  -47.3921 C.3       4 UNK        -0.1875 
     32 C          24.4537  -28.6915  -45.7448 C.2       4 UNK         0.4949 
     33 O          25.4986  -28.6091  -46.3910 O.2       4 UNK        -0.5039 
     34 N          24.2669  -29.5583  -44.7434 N.am      5 UNK        -0.4663 
     35 CA         25.2451  -30.5565  -44.3072 C.3       5 UNK         0.0242 
     36 CB         24.9184  -31.9118  -44.9635 C.3       5 UNK        -0.1982 
     37 C          25.3067  -30.6116  -42.7736 C.2       5 UNK         0.5017 
     38 O          25.3447  -31.7008  -42.1973 O.2       5 UNK        -0.5012 
     39 N          25.2999  -29.4234  -42.1491 N.am      6 UNK        -0.4439 
     40 CA         25.2762  -29.1682  -40.7020 C.3       6 UNK         0.0297 
     41 CB         26.5174  -29.7776  -40.0123 C.3       6 UNK        -0.2006 
     42 C          23.9620  -29.6192  -40.0358 C.2       6 UNK         0.4892 
     43 O          23.0675  -30.1361  -40.7074 O.2       6 UNK        -0.5089 
     44 N          23.8616  -29.4011  -38.7168 N.am      7 UNK        -0.4243 
     45 CA         22.6762  -29.6710  -37.8909 C.3       7 UNK         0.0196 
     46 CB         22.9764  -29.2753  -36.4361 C.3       7 UNK        -0.2007 
     47 C          22.1582  -31.1212  -37.9514 C.2       7 UNK         0.5020 
     48 O          20.9570  -31.3409  -37.7973 O.2       7 UNK        -0.5147 
     49 N          23.0675  -32.0774  -38.1783 N.am      8 UNK        -0.4734 
     50 CA         22.7607  -33.5014  -38.3207 C.3       8 UNK         0.0238 
     51 CB         24.0218  -34.3121  -37.9769 C.3       8 UNK        -0.1912 
     52 C          22.2453  -33.8921  -39.7189 C.2       8 UNK         0.5038 
     53 O          21.6867  -34.9821  -39.8491 O.2       8 UNK        -0.5046 
     54 N          22.4549  -33.0354  -40.7309 N.am      9 UNK        -0.4200 
     55 CA         22.2154  -33.3134  -42.1558 C.3       9 UNK         0.0839 
     56 C          23.0791  -34.5036  -42.6697 C.2       9 UNK         0.5513 
     57 N          24.3975  -34.3850  -42.5911 N.am      9 UNK        -0.7519 
     58 O          22.5752  -35.5321  -43.1148 O.2       9 UNK        -0.4960 
     59 C59        20.7013  -33.4152  -42.4977 C.3       10 UNK        -0.0876 
     60 S60        20.3271  -33.1641  -44.2716 S.3       10 UNK        -0.2414 
     61 C61        20.5358  -31.3687  -44.5059 C.3       10 UNK         0.0169 
     62 H62        14.5054  -22.5766  -41.2162 H         1 UNK         0.0903 
     63 H63        14.9461  -21.1240  -42.1162 H         1 UNK         0.0903 
     64 H64        13.3227  -21.8006  -42.2706 H         1 UNK         0.0903 
     65 H65        15.3595  -24.4344  -42.1274 H         1 UNK         0.3096 
     66 H66        15.0981  -25.0493  -44.9152 H         1 UNK         0.1121 
     67 H67        16.8383  -26.6081  -42.9475 H         1 UNK         0.0849 
     68 H68        15.0986  -26.6732  -42.8452 H         1 UNK         0.0849 
     69 H69        15.6150  -30.1383  -44.4526 H         1 UNK         0.0865 
     70 H70        15.2568  -29.2496  -42.9977 H         1 UNK         0.0865 
     71 H71        17.9438  -30.7026  -45.0809 H         1 UNK         0.1346 
     72 H72        20.9743  -30.2141  -42.0910 H         1 UNK         0.1412 
     73 H73        17.1009  -28.4851  -41.5024 H         1 UNK         0.1426 
     74 H74        20.4101  -29.2418  -39.9626 H         1 UNK         0.0716 
     75 H75        18.7644  -28.7926  -39.5953 H         1 UNK         0.0716 
     76 H76        21.9198  -27.9797  -41.4794 H         1 UNK         0.0695 
     77 H77        22.1836  -26.2833  -41.1972 H         1 UNK         0.0695 
     78 H78        20.4118  -27.4340  -43.4138 H         1 UNK         0.0983 
     79 H79        20.1413  -25.0170  -42.3811 H         1 UNK         0.3095 
     80 H80        19.7254  -22.9401  -43.2962 H         1 UNK         0.0454 
     81 H81        18.8200  -21.6089  -45.1948 H         1 UNK         0.0851 
     82 H82        19.1366  -22.9375  -46.3074 H         1 UNK         0.0851 
     83 H83        20.4696  -22.1252  -45.5077 H         1 UNK         0.0851 
     84 H84        17.6468  -23.6699  -42.9837 H         1 UNK         0.2976 
     85 H85        21.3449  -27.9741  -45.2829 H         1 UNK         0.3116 
     86 H86        23.6966  -26.7807  -46.3175 H         1 UNK         0.0646 
     87 H87        23.3087  -28.3609  -48.2106 H         1 UNK         0.0847 
     88 H88        21.8134  -27.5846  -47.7218 H         1 UNK         0.0847 
     89 H89        22.1393  -29.2539  -47.2494 H         1 UNK         0.0847 
     90 H90        23.3909  -29.5346  -44.2413 H         1 UNK         0.3040 
     91 H91        26.2476  -30.2635  -44.6274 H         1 UNK         0.1015 
     92 H92        24.9615  -31.8427  -46.0504 H         1 UNK         0.0786 
     93 H93        23.9227  -32.2626  -44.6934 H         1 UNK         0.0786 
     94 H94        25.6332  -32.6790  -44.6635 H         1 UNK         0.0786 
     95 H95        25.2284  -28.6003  -42.7323 H         1 UNK         0.3172 
     96 H96        25.3256  -28.0839  -40.5909 H         1 UNK         0.0595 
     97 H97        26.4659  -30.8659  -39.9646 H         1 UNK         0.0839 
     98 H98        26.6263  -29.4145  -38.9901 H         1 UNK         0.0839 
     99 H99        27.4332  -29.5118  -40.5404 H         1 UNK         0.0839 
    100 H100       24.6419  -28.9690  -38.2434 H         1 UNK         0.2998 
    101 H101       21.8776  -29.0228  -38.2533 H         1 UNK         0.0822 
    102 H102       23.7989  -29.8589  -36.0203 H         1 UNK         0.0787 
    103 H103       23.2374  -28.2198  -36.3561 H         1 UNK         0.0787 
    104 H104       22.1059  -29.4395  -35.7991 H         1 UNK         0.0787 
    105 H105       24.0318  -31.8014  -38.2944 H         1 UNK         0.3055 
    106 H106       21.9791  -33.7657  -37.6043 H         1 UNK         0.1106 
    107 H107       23.8249  -35.3838  -38.0327 H         1 UNK         0.0828 
    108 H108       24.8407  -34.0965  -38.6647 H         1 UNK         0.0828 
    109 H109       24.3668  -34.1016  -36.9645 H         1 UNK         0.0828 
    110 H110       22.8883  -32.1392  -40.5351 H         1 UNK         0.2931 
    111 H111       22.5974  -32.4289  -42.6643 H         1 UNK         0.0412 
    112 H112       24.8115  -33.5082  -42.2835 H         1 UNK         0.3472 
    113 H113       24.9855  -35.1412  -42.9023 H         1 UNK         0.3472 
    114 H114       20.3096  -34.3888  -42.1983 H         1 UNK         0.0970 
    115 H115       20.1309  -32.6919  -41.9158 H         1 UNK         0.0970 
    116 H116       21.5644  -31.0876  -44.2784 H         1 UNK         0.0612 
    117 H117       20.3899  -31.1376  -45.5621 H         1 UNK         0.0612 
@<TRIPOS>BOND
     1    1    2 1    
     2    1   62 1    
     3    1   63 1    
     4    1   64 1    
     5    2    3 2    
     6    2    4 am   BACKBONE|DICT|INTERRES
     7    4    5 1    
     8    4   65 1    
     9    5    6 1    
    10    5   25 1    
    11    5   66 1    
    12    6    7 1    
    13    6   67 1    
    14    6   68 1    
    15    7    8 1    
    16    8    9 1    
    17    8   69 1    
    18    8   70 1    
    19    9   10 ar   
    20    9   14 ar   
    21   10   11 ar   
    22   10   71 1    
    23   11   12 ar   
    24   11   61 1    
    25   12   13 ar   
    26   12   72 1    
    27   13   14 ar   
    28   13   15 1    
    29   14   73 1    
    30   15   16 1    
    31   15   74 1    
    32   15   75 1    
    33   16   17 1    
    34   17   18 1    
    35   17   76 1    
    36   17   77 1    
    37   18   19 1    
    38   18   27 1    
    39   18   78 1    
    40   19   20 am   BACKBONE|DICT|INTERRES
    41   19   79 1    
    42   20   21 2    
    43   20   22 1    
    44   22   23 1    
    45   22   24 1    
    46   22   80 1    
    47   23   81 1    
    48   23   82 1    
    49   23   83 1    
    50   24   25 am   BACKBONE|DICT|INTERRES
    51   24   84 1    
    52   25   26 2    
    53   27   28 2    
    54   27   29 am   BACKBONE|DICT|INTERRES
    55   29   30 1    
    56   29   85 1    
    57   30   31 1    
    58   30   32 1    
    59   30   86 1    
    60   31   87 1    
    61   31   88 1    
    62   31   89 1    
    63   32   33 2    
    64   32   34 am   BACKBONE|DICT|INTERRES
    65   34   35 1    
    66   34   90 1    
    67   35   36 1    
    68   35   37 1    
    69   35   91 1    
    70   36   92 1    
    71   36   93 1    
    72   36   94 1    
    73   37   38 2    
    74   37   39 am   BACKBONE|DICT|INTERRES
    75   39   40 1    
    76   39   95 1    
    77   40   41 1    
    78   40   42 1    
    79   40   96 1    
    80   41   97 1    
    81   41   98 1    
    82   41   99 1    
    83   42   43 2    
    84   42   44 am   BACKBONE|DICT|INTERRES
    85   44   45 1    
    86   44  100 1    
    87   45   46 1    
    88   45   47 1    
    89   45  101 1    
    90   46  102 1    
    91   46  103 1    
    92   46  104 1    
    93   47   48 2    
    94   47   49 am   BACKBONE|DICT|INTERRES
    95   49   50 1    
    96   49  105 1    
    97   50   51 1    
    98   50   52 1    
    99   50  106 1    
   100   51  107 1    
   101   51  108 1    
   102   51  109 1    
   103   52   53 2    
   104   52   54 am   BACKBONE|DICT|INTERRES
   105   54   55 1    
   106   54  110 1    
   107   55   56 1    
   108   55   59 1    
   109   55  111 1    
   110   56   57 am   BACKBONE|DICT|INTERRES
   111   56   58 2    
   112   57  112 1    
   113   57  113 1    
   114   59   60 1    
   115   59  114 1    
   116   59  115 1    
   117   60   61 1    
   118   61  116 1    
   119   61  117 1    
@<TRIPOS>SUBSTRUCTURE
     1 UNK         1 GROUP             0       ****    0 ROOT    
