@<TRIPOS>MOLECULE
3R8
117   119    1
SMALL
USER_CHARGES


@<TRIPOS>ATOM
      1 CA         17.7765  -21.7993  -45.4693 C.3       0 UNK        -0.2013 
      2 C          18.2314  -23.1634  -45.9667 C.2       0 UNK         0.4866 
      3 O          19.0684  -23.2372  -46.8674 O.2       0 UNK        -0.5176 
      4 N          17.6822  -24.2403  -45.3902 N.am      1 UNK        -0.4884 
      5 CA         18.0719  -25.6284  -45.6647 C.3       1 UNK         0.0853 
      6 C6         16.8740  -26.5959  -45.4696 C.3       10 UNK        -0.0849 
      7 S7         16.9953  -28.0662  -46.5449 S.3       10 UNK        -0.2776 
      8 C8         15.8493  -29.2108  -45.7207 C.3       10 UNK         0.0316 
      9 C9         16.5111  -29.9787  -44.5842 C.ar      10 UNK        -0.0863 
     10 C10        17.2137  -31.1581  -44.8571 C.ar      10 UNK        -0.1009 
     11 C11        17.7300  -31.9347  -43.8153 C.ar      10 UNK        -0.0712 
     12 C12        17.5590  -31.5105  -42.4952 C.ar      10 UNK        -0.0894 
     13 C13        16.8708  -30.3276  -42.2087 C.ar      10 UNK        -0.0745 
     14 C14        16.3542  -29.5607  -43.2578 C.ar      10 UNK        -0.0972 
     15 C15        16.6116  -29.9399  -40.7601 C.3       10 UNK         0.0209 
     16 S16        18.1424  -29.5271  -39.8685 S.3       10 UNK        -0.2568 
     17 C17        18.2342  -27.7157  -40.0471 C.3       10 UNK        -0.0983 
     18 CA         19.6149  -27.2700  -40.5876 C.3       3 UNK         0.0876 
     19 N          19.7650  -27.6072  -42.0080 N.am      3 UNK        -0.4424 
     20 C          20.9142  -27.6211  -42.6955 C.2       2 UNK         0.4918 
     21 O          22.0060  -27.3237  -42.2128 O.2       2 UNK        -0.4875 
     22 CA         20.8092  -27.9437  -44.1987 C.3       2 UNK         0.0481 
     23 CB         20.7550  -29.4626  -44.4299 C.3       2 UNK        -0.1831 
     24 N          19.6573  -27.3262  -44.8667 N.am      2 UNK        -0.4498 
     25 C          19.3085  -26.0324  -44.8286 C.2       1 UNK         0.5027 
     26 O          19.9073  -25.1915  -44.1545 O.2       1 UNK        -0.4969 
     27 C          19.9134  -25.7925  -40.2318 C.2       3 UNK         0.5005 
     28 O          19.9024  -25.4616  -39.0443 O.2       3 UNK        -0.5279 
     29 N          20.2103  -24.9274  -41.2164 N.am      4 UNK        -0.4463 
     30 CA         20.7645  -23.5869  -40.9836 C.3       4 UNK         0.0283 
     31 CB         20.6879  -22.7620  -42.2785 C.3       4 UNK        -0.1875 
     32 C          22.2128  -23.6168  -40.4490 C.2       4 UNK         0.4949 
     33 O          22.6641  -22.6176  -39.8882 O.2       4 UNK        -0.5039 
     34 N          22.9075  -24.7489  -40.6183 N.am      5 UNK        -0.4663 
     35 CA         24.2293  -25.0362  -40.0666 C.3       5 UNK         0.0242 
     36 CB         25.2992  -24.7572  -41.1426 C.3       5 UNK        -0.1982 
     37 C          24.2364  -26.4866  -39.5498 C.2       5 UNK         0.5017 
     38 O          23.1805  -27.0073  -39.1802 O.2       5 UNK        -0.5012 
     39 N          25.4144  -27.1256  -39.5313 N.am      6 UNK        -0.4439 
     40 CA         25.5669  -28.5631  -39.2975 C.3       6 UNK         0.0297 
     41 CB         27.0407  -28.8832  -38.9931 C.3       6 UNK        -0.2006 
     42 C          25.0668  -29.3208  -40.5379 C.2       6 UNK         0.4892 
     43 O          25.7174  -29.2539  -41.5827 O.2       6 UNK        -0.5089 
     44 N          23.8930  -29.9539  -40.4129 N.am      7 UNK        -0.4243 
     45 CA         23.1327  -30.5164  -41.5297 C.3       7 UNK         0.0196 
     46 CB         21.7271  -30.9182  -41.0502 C.3       7 UNK        -0.2007 
     47 C          23.8391  -31.6766  -42.2436 C.2       7 UNK         0.5020 
     48 O          24.0097  -31.6196  -43.4614 O.2       7 UNK        -0.5147 
     49 N          24.2356  -32.6965  -41.4660 N.am      8 UNK        -0.4734 
     50 CA         24.9549  -33.9073  -41.8955 C.3       8 UNK         0.0238 
     51 CB         26.4169  -33.5556  -42.2460 C.3       8 UNK        -0.1912 
     52 C          24.2487  -34.6989  -43.0205 C.2       8 UNK         0.5038 
     53 O          24.9217  -35.2792  -43.8754 O.2       8 UNK        -0.5046 
     54 N          22.9085  -34.6922  -43.0068 N.am      9 UNK        -0.4200 
     55 CA         22.0397  -35.3615  -43.9864 C.3       9 UNK         0.0839 
     56 C          22.2248  -36.9041  -44.0024 C.2       9 UNK         0.5513 
     57 N          22.1464  -37.5263  -45.1706 N.am      9 UNK        -0.7519 
     58 O          22.3892  -37.5414  -42.9637 O.2       9 UNK        -0.4960 
     59 C59        20.5477  -35.0056  -43.7601 C.3       10 UNK        -0.0876 
     60 S60        20.1991  -33.2168  -43.8634 S.3       10 UNK        -0.2414 
     61 C61        18.3970  -33.2730  -44.0991 C.3       10 UNK         0.0169 
     62 H62        17.3569  -21.2201  -46.2914 H         1 UNK         0.0903 
     63 H63        17.0187  -21.8801  -44.6901 H         1 UNK         0.0903 
     64 H64        18.6239  -21.2487  -45.0614 H         1 UNK         0.0903 
     65 H65        17.0256  -24.1115  -44.6335 H         1 UNK         0.3096 
     66 H66        18.3825  -25.6805  -46.7111 H         1 UNK         0.1121 
     67 H67        15.9408  -26.0966  -45.7367 H         1 UNK         0.0849 
     68 H68        16.7638  -26.8892  -44.4242 H         1 UNK         0.0849 
     69 H69        14.9742  -28.6661  -45.3625 H         1 UNK         0.0865 
     70 H70        15.4738  -29.9180  -46.4621 H         1 UNK         0.0865 
     71 H71        17.3224  -31.4919  -45.8802 H         1 UNK         0.1346 
     72 H72        17.9399  -32.1177  -41.6851 H         1 UNK         0.1412 
     73 H73        15.7895  -28.6646  -43.0395 H         1 UNK         0.1426 
     74 H74        16.1411  -30.7855  -40.2563 H         1 UNK         0.0716 
     75 H75        15.8984  -29.1175  -40.6881 H         1 UNK         0.0716 
     76 H76        18.0398  -27.3021  -39.0556 H         1 UNK         0.0695 
     77 H77        17.4332  -27.3468  -40.6898 H         1 UNK         0.0695 
     78 H78        20.3818  -27.8315  -40.0488 H         1 UNK         0.0983 
     79 H79        18.9187  -27.8657  -42.4925 H         1 UNK         0.3095 
     80 H80        21.7059  -27.5551  -44.6848 H         1 UNK         0.0454 
     81 H81        21.6621  -29.9505  -44.0766 H         1 UNK         0.0851 
     82 H82        20.6625  -29.7044  -45.4886 H         1 UNK         0.0851 
     83 H83        19.9132  -29.9218  -43.9100 H         1 UNK         0.0851 
     84 H84        19.0816  -27.9422  -45.4276 H         1 UNK         0.2976 
     85 H85        20.1751  -25.2374  -42.1836 H         1 UNK         0.3116 
     86 H86        20.1475  -23.0904  -40.2317 H         1 UNK         0.0646 
     87 H87        19.6687  -22.7143  -42.6624 H         1 UNK         0.0847 
     88 H88        21.3221  -23.1809  -43.0608 H         1 UNK         0.0847 
     89 H89        21.0187  -21.7368  -42.1076 H         1 UNK         0.0847 
     90 H90        22.4459  -25.5449  -41.0478 H         1 UNK         0.3040 
     91 H91        24.4160  -24.3945  -39.2027 H         1 UNK         0.1015 
     92 H92        26.3082  -24.8344  -40.7367 H         1 UNK         0.0786 
     93 H93        25.1992  -23.7480  -41.5429 H         1 UNK         0.0786 
     94 H94        25.2192  -25.4536  -41.9789 H         1 UNK         0.0786 
     95 H95        26.2282  -26.6386  -39.8774 H         1 UNK         0.3172 
     96 H96        24.9704  -28.8498  -38.4285 H         1 UNK         0.0595 
     97 H97        27.6990  -28.5995  -39.8153 H         1 UNK         0.0839 
     98 H98        27.1777  -29.9517  -38.8215 H         1 UNK         0.0839 
     99 H99        27.3820  -28.3653  -38.0966 H         1 UNK         0.0839 
    100 H100       23.4241  -29.9188  -39.5191 H         1 UNK         0.2998 
    101 H101       23.0262  -29.7171  -42.2626 H         1 UNK         0.0822 
    102 H102       21.7586  -31.7062  -40.2973 H         1 UNK         0.0787 
    103 H103       21.1984  -30.0682  -40.6202 H         1 UNK         0.0787 
    104 H104       21.1196  -31.2808  -41.8787 H         1 UNK         0.0787 
    105 H105       24.0383  -32.6322  -40.4765 H         1 UNK         0.3055 
    106 H106       24.9762  -34.5769  -41.0340 H         1 UNK         0.1106 
    107 H107       26.4773  -32.9272  -43.1353 H         1 UNK         0.0828 
    108 H108       27.0030  -34.4544  -42.4413 H         1 UNK         0.0828 
    109 H109       26.9047  -33.0250  -41.4284 H         1 UNK         0.0828 
    110 H110       22.4386  -34.1810  -42.2758 H         1 UNK         0.2931 
    111 H111       22.3288  -34.9804  -44.9682 H         1 UNK         0.0412 
    112 H112       22.2468  -38.5293  -45.2005 H         1 UNK         0.3472 
    113 H113       22.0022  -37.0123  -46.0264 H         1 UNK         0.3472 
    114 H114       19.9288  -35.5134  -44.5030 H         1 UNK         0.0970 
    115 H115       20.2110  -35.3670  -42.7864 H         1 UNK         0.0970 
    116 H116       17.9693  -34.0253  -43.4344 H         1 UNK         0.0612 
    117 H117       18.1822  -33.6043  -45.1163 H         1 UNK         0.0612 
@<TRIPOS>BOND
     1    1    2 1    
     2    1   62 1    
     3    1   63 1    
     4    1   64 1    
     5    2    3 2    
     6    2    4 am   BACKBONE|DICT|INTERRES
     7    4    5 1    
     8    4   65 1    
     9    5    6 1    
    10    5   25 1    
    11    5   66 1    
    12    6    7 1    
    13    6   67 1    
    14    6   68 1    
    15    7    8 1    
    16    8    9 1    
    17    8   69 1    
    18    8   70 1    
    19    9   10 ar   
    20    9   14 ar   
    21   10   11 ar   
    22   10   71 1    
    23   11   12 ar   
    24   11   61 1    
    25   12   13 ar   
    26   12   72 1    
    27   13   14 ar   
    28   13   15 1    
    29   14   73 1    
    30   15   16 1    
    31   15   74 1    
    32   15   75 1    
    33   16   17 1    
    34   17   18 1    
    35   17   76 1    
    36   17   77 1    
    37   18   19 1    
    38   18   27 1    
    39   18   78 1    
    40   19   20 am   BACKBONE|DICT|INTERRES
    41   19   79 1    
    42   20   21 2    
    43   20   22 1    
    44   22   23 1    
    45   22   24 1    
    46   22   80 1    
    47   23   81 1    
    48   23   82 1    
    49   23   83 1    
    50   24   25 am   BACKBONE|DICT|INTERRES
    51   24   84 1    
    52   25   26 2    
    53   27   28 2    
    54   27   29 am   BACKBONE|DICT|INTERRES
    55   29   30 1    
    56   29   85 1    
    57   30   31 1    
    58   30   32 1    
    59   30   86 1    
    60   31   87 1    
    61   31   88 1    
    62   31   89 1    
    63   32   33 2    
    64   32   34 am   BACKBONE|DICT|INTERRES
    65   34   35 1    
    66   34   90 1    
    67   35   36 1    
    68   35   37 1    
    69   35   91 1    
    70   36   92 1    
    71   36   93 1    
    72   36   94 1    
    73   37   38 2    
    74   37   39 am   BACKBONE|DICT|INTERRES
    75   39   40 1    
    76   39   95 1    
    77   40   41 1    
    78   40   42 1    
    79   40   96 1    
    80   41   97 1    
    81   41   98 1    
    82   41   99 1    
    83   42   43 2    
    84   42   44 am   BACKBONE|DICT|INTERRES
    85   44   45 1    
    86   44  100 1    
    87   45   46 1    
    88   45   47 1    
    89   45  101 1    
    90   46  102 1    
    91   46  103 1    
    92   46  104 1    
    93   47   48 2    
    94   47   49 am   BACKBONE|DICT|INTERRES
    95   49   50 1    
    96   49  105 1    
    97   50   51 1    
    98   50   52 1    
    99   50  106 1    
   100   51  107 1    
   101   51  108 1    
   102   51  109 1    
   103   52   53 2    
   104   52   54 am   BACKBONE|DICT|INTERRES
   105   54   55 1    
   106   54  110 1    
   107   55   56 1    
   108   55   59 1    
   109   55  111 1    
   110   56   57 am   BACKBONE|DICT|INTERRES
   111   56   58 2    
   112   57  112 1    
   113   57  113 1    
   114   59   60 1    
   115   59  114 1    
   116   59  115 1    
   117   60   61 1    
   118   61  116 1    
   119   61  117 1    
@<TRIPOS>SUBSTRUCTURE
     1 UNK         1 GROUP             0       ****    0 ROOT    
