@<TRIPOS>MOLECULE
3R8
117   119    1
SMALL
USER_CHARGES


@<TRIPOS>ATOM
      1 CA         14.2759  -23.7454  -41.6921 C.3       0 UNK        -0.2013 
      2 C          15.1425  -24.1951  -42.8589 C.2       0 UNK         0.4866 
      3 O          16.1471  -23.5501  -43.1587 O.2       0 UNK        -0.5176 
      4 N          14.7598  -25.2951  -43.5217 N.am      1 UNK        -0.4884 
      5 CA         15.4887  -25.8839  -44.6538 C.3       1 UNK         0.0853 
      6 C6         14.5888  -26.8759  -45.4347 C.3       10 UNK        -0.0849 
      7 S7         15.1697  -27.1702  -47.1395 S.3       10 UNK        -0.2776 
      8 C8         15.2849  -28.9888  -47.1994 C.3       10 UNK         0.0316 
      9 C9         16.5023  -29.5493  -46.4699 C.ar      10 UNK        -0.0863 
     10 C10        16.3412  -30.3641  -45.3441 C.ar      10 UNK        -0.1009 
     11 C11        17.4443  -30.9783  -44.7382 C.ar      10 UNK        -0.0712 
     12 C12        18.7211  -30.7526  -45.2656 C.ar      10 UNK        -0.0894 
     13 C13        18.9021  -29.9201  -46.3726 C.ar      10 UNK        -0.0745 
     14 C14        17.7880  -29.3239  -46.9716 C.ar      10 UNK        -0.0972 
     15 C15        20.2891  -29.7166  -46.9676 C.3       10 UNK         0.0209 
     16 S16        21.0534  -28.1517  -46.4327 S.3       10 UNK        -0.2568 
     17 C17        21.9651  -28.6304  -44.9248 C.3       10 UNK        -0.0983 
     18 CA         21.5046  -27.8305  -43.6788 C.3       3 UNK         0.0876 
     19 N          20.1190  -28.1447  -43.3265 N.am      3 UNK        -0.4424 
     20 C          19.2989  -27.3886  -42.5892 C.2       2 UNK         0.4918 
     21 O          19.6183  -26.3124  -42.0772 O.2       2 UNK        -0.4875 
     22 CA         17.8737  -27.9342  -42.4020 C.3       2 UNK         0.0481 
     23 CB         17.5618  -28.1463  -40.9119 C.3       2 UNK        -0.1831 
     24 N          16.8243  -27.1033  -42.9972 N.am      2 UNK        -0.4498 
     25 C          16.8118  -26.5524  -44.2227 C.2       1 UNK         0.5027 
     26 O          17.7620  -26.5569  -45.0049 O.2       1 UNK        -0.4969 
     27 C          22.4475  -28.0233  -42.4695 C.2       3 UNK         0.5005 
     28 O          23.3269  -28.8861  -42.4983 O.2       3 UNK        -0.5279 
     29 N          22.2535  -27.2043  -41.4253 N.am      4 UNK        -0.4463 
     30 CA         22.9577  -27.2438  -40.1368 C.3       4 UNK         0.0283 
     31 CB         22.3346  -26.2041  -39.1928 C.3       4 UNK        -0.1875 
     32 C          24.4837  -27.0575  -40.2161 C.2       4 UNK         0.4949 
     33 O          25.1854  -27.4505  -39.2846 O.2       4 UNK        -0.5039 
     34 N          24.9774  -26.4994  -41.3308 N.am      5 UNK        -0.4663 
     35 CA         26.3999  -26.4388  -41.6795 C.3       5 UNK         0.0242 
     36 CB         26.5749  -25.5678  -42.9337 C.3       5 UNK        -0.1982 
     37 C          27.0303  -27.8289  -41.8963 C.2       5 UNK         0.5017 
     38 O          28.2340  -27.9794  -41.6866 O.2       5 UNK        -0.5012 
     39 N          26.2102  -28.8197  -42.2731 N.am      6 UNK        -0.4439 
     40 CA         26.5688  -30.2306  -42.3786 C.3       6 UNK         0.0297 
     41 CB         26.0792  -30.7674  -43.7354 C.3       6 UNK        -0.2006 
     42 C          25.9673  -30.9815  -41.1786 C.2       6 UNK         0.4892 
     43 O          25.1582  -31.8958  -41.3540 O.2       6 UNK        -0.5089 
     44 N          26.3508  -30.5438  -39.9705 N.am      7 UNK        -0.4243 
     45 CA         25.9853  -31.0412  -38.6349 C.3       7 UNK         0.0196 
     46 CB         26.4403  -32.5008  -38.4396 C.3       7 UNK        -0.2007 
     47 C          24.5041  -30.8739  -38.2460 C.2       7 UNK         0.5020 
     48 O          24.2243  -30.4762  -37.1147 O.2       7 UNK        -0.5147 
     49 N          23.5876  -31.1835  -39.1657 N.am      8 UNK        -0.4734 
     50 CA         22.1410  -31.0877  -38.9886 C.3       8 UNK         0.0238 
     51 CB         21.6024  -32.2859  -38.1832 C.3       8 UNK        -0.1912 
     52 C          21.4412  -30.9657  -40.3441 C.2       8 UNK         0.5038 
     53 O          20.6715  -30.0253  -40.5289 O.2       8 UNK        -0.5046 
     54 N          21.7259  -31.9069  -41.2538 N.am      9 UNK        -0.4200 
     55 CA         21.1313  -32.0042  -42.5965 C.3       9 UNK         0.0839 
     56 C          22.1069  -32.5888  -43.6602 C.2       9 UNK         0.5513 
     57 N          23.3786  -32.8263  -43.3693 N.am      9 UNK        -0.7519 
     58 O          21.7039  -32.8233  -44.7960 O.2       9 UNK        -0.4960 
     59 C59        19.7670  -32.7631  -42.5749 C.3       10 UNK        -0.0876 
     60 S60        18.3492  -31.6904  -42.1538 S.3       10 UNK        -0.2414 
     61 C61        17.2201  -31.9369  -43.5682 C.3       10 UNK         0.0169 
     62 H62        13.9041  -22.7364  -41.8683 H         1 UNK         0.0903 
     63 H63        13.4181  -24.4009  -41.5429 H         1 UNK         0.0903 
     64 H64        14.8602  -23.7372  -40.7724 H         1 UNK         0.0903 
     65 H65        13.9148  -25.7733  -43.2405 H         1 UNK         0.3096 
     66 H66        15.7527  -25.0630  -45.3254 H         1 UNK         0.1121 
     67 H67        13.5789  -26.4713  -45.5206 H         1 UNK         0.0849 
     68 H68        14.4836  -27.8201  -44.8965 H         1 UNK         0.0849 
     69 H69        15.3390  -29.2947  -48.2452 H         1 UNK         0.0865 
     70 H70        14.3613  -29.4221  -46.8121 H         1 UNK         0.0865 
     71 H71        15.3473  -30.5549  -44.9628 H         1 UNK         0.1346 
     72 H72        19.5780  -31.2449  -44.8366 H         1 UNK         0.1412 
     73 H73        17.9190  -28.6976  -47.8437 H         1 UNK         0.1426 
     74 H74        20.2103  -29.7036  -48.0557 H         1 UNK         0.0716 
     75 H75        20.9431  -30.5572  -46.7296 H         1 UNK         0.0716 
     76 H76        23.0227  -28.4476  -45.1253 H         1 UNK         0.0695 
     77 H77        21.8745  -29.7033  -44.7533 H         1 UNK         0.0695 
     78 H78        21.5513  -26.7701  -43.9374 H         1 UNK         0.0983 
     79 H79        19.7496  -28.9964  -43.7215 H         1 UNK         0.3095 
     80 H80        17.8104  -28.9026  -42.8963 H         1 UNK         0.0454 
     81 H81        17.5382  -27.2023  -40.3662 H         1 UNK         0.0851 
     82 H82        18.3188  -28.7750  -40.4419 H         1 UNK         0.0851 
     83 H83        16.6024  -28.6442  -40.7718 H         1 UNK         0.0851 
     84 H84        15.9916  -26.9845  -42.4402 H         1 UNK         0.2976 
     85 H85        21.4567  -26.5760  -41.4863 H         1 UNK         0.3116 
     86 H86        22.7874  -28.2329  -39.7104 H         1 UNK         0.0646 
     87 H87        21.2717  -26.3935  -39.0406 H         1 UNK         0.0847 
     88 H88        22.4443  -25.1907  -39.5805 H         1 UNK         0.0847 
     89 H89        22.8101  -26.2318  -38.2113 H         1 UNK         0.0847 
     90 H90        24.3214  -26.1899  -42.0328 H         1 UNK         0.3040 
     91 H91        26.9305  -25.9652  -40.8503 H         1 UNK         0.1015 
     92 H92        27.6284  -25.4812  -43.2041 H         1 UNK         0.0786 
     93 H93        26.2004  -24.5569  -42.7712 H         1 UNK         0.0786 
     94 H94        26.0514  -25.9875  -43.7938 H         1 UNK         0.0786 
     95 H95        25.2142  -28.6261  -42.3634 H         1 UNK         0.3172 
     96 H96        27.6517  -30.3630  -42.3359 H         1 UNK         0.0595 
     97 H97        25.0046  -30.6290  -43.8592 H         1 UNK         0.0839 
     98 H98        26.2902  -31.8326  -43.8364 H         1 UNK         0.0839 
     99 H99        26.5754  -30.2589  -44.5618 H         1 UNK         0.0839 
    100 H100       26.9641  -29.7398  -39.9607 H         1 UNK         0.2998 
    101 H101       26.5547  -30.4270  -37.9350 H         1 UNK         0.0822 
    102 H102       27.5092  -32.6108  -38.6224 H         1 UNK         0.0787 
    103 H103       26.2502  -32.8336  -37.4183 H         1 UNK         0.0787 
    104 H104       25.9139  -33.1855  -39.1053 H         1 UNK         0.0787 
    105 H105       23.9327  -31.4620  -40.0824 H         1 UNK         0.3055 
    106 H106       21.9197  -30.1744  -38.4313 H         1 UNK         0.1106 
    107 H107       20.5156  -32.2424  -38.0994 H         1 UNK         0.0828 
    108 H108       22.0026  -32.2946  -37.1693 H         1 UNK         0.0828 
    109 H109       21.8575  -33.2379  -38.6496 H         1 UNK         0.0828 
    110 H110       22.3710  -32.6454  -41.0144 H         1 UNK         0.2931 
    111 H111       20.9544  -30.9863  -42.9454 H         1 UNK         0.0412 
    112 H112       23.8131  -32.5271  -42.5024 H         1 UNK         0.3472 
    113 H113       23.9617  -33.2129  -44.0934 H         1 UNK         0.3472 
    114 H114       19.5521  -33.2392  -43.5325 H         1 UNK         0.0970 
    115 H115       19.8034  -33.5854  -41.8586 H         1 UNK         0.0970 
    116 H116       17.2849  -32.9650  -43.9259 H         1 UNK         0.0612 
    117 H117       16.2048  -31.8184  -43.1868 H         1 UNK         0.0612 
@<TRIPOS>BOND
     1    1    2 1    
     2    1   62 1    
     3    1   63 1    
     4    1   64 1    
     5    2    3 2    
     6    2    4 am   BACKBONE|DICT|INTERRES
     7    4    5 1    
     8    4   65 1    
     9    5    6 1    
    10    5   25 1    
    11    5   66 1    
    12    6    7 1    
    13    6   67 1    
    14    6   68 1    
    15    7    8 1    
    16    8    9 1    
    17    8   69 1    
    18    8   70 1    
    19    9   10 ar   
    20    9   14 ar   
    21   10   11 ar   
    22   10   71 1    
    23   11   12 ar   
    24   11   61 1    
    25   12   13 ar   
    26   12   72 1    
    27   13   14 ar   
    28   13   15 1    
    29   14   73 1    
    30   15   16 1    
    31   15   74 1    
    32   15   75 1    
    33   16   17 1    
    34   17   18 1    
    35   17   76 1    
    36   17   77 1    
    37   18   19 1    
    38   18   27 1    
    39   18   78 1    
    40   19   20 am   BACKBONE|DICT|INTERRES
    41   19   79 1    
    42   20   21 2    
    43   20   22 1    
    44   22   23 1    
    45   22   24 1    
    46   22   80 1    
    47   23   81 1    
    48   23   82 1    
    49   23   83 1    
    50   24   25 am   BACKBONE|DICT|INTERRES
    51   24   84 1    
    52   25   26 2    
    53   27   28 2    
    54   27   29 am   BACKBONE|DICT|INTERRES
    55   29   30 1    
    56   29   85 1    
    57   30   31 1    
    58   30   32 1    
    59   30   86 1    
    60   31   87 1    
    61   31   88 1    
    62   31   89 1    
    63   32   33 2    
    64   32   34 am   BACKBONE|DICT|INTERRES
    65   34   35 1    
    66   34   90 1    
    67   35   36 1    
    68   35   37 1    
    69   35   91 1    
    70   36   92 1    
    71   36   93 1    
    72   36   94 1    
    73   37   38 2    
    74   37   39 am   BACKBONE|DICT|INTERRES
    75   39   40 1    
    76   39   95 1    
    77   40   41 1    
    78   40   42 1    
    79   40   96 1    
    80   41   97 1    
    81   41   98 1    
    82   41   99 1    
    83   42   43 2    
    84   42   44 am   BACKBONE|DICT|INTERRES
    85   44   45 1    
    86   44  100 1    
    87   45   46 1    
    88   45   47 1    
    89   45  101 1    
    90   46  102 1    
    91   46  103 1    
    92   46  104 1    
    93   47   48 2    
    94   47   49 am   BACKBONE|DICT|INTERRES
    95   49   50 1    
    96   49  105 1    
    97   50   51 1    
    98   50   52 1    
    99   50  106 1    
   100   51  107 1    
   101   51  108 1    
   102   51  109 1    
   103   52   53 2    
   104   52   54 am   BACKBONE|DICT|INTERRES
   105   54   55 1    
   106   54  110 1    
   107   55   56 1    
   108   55   59 1    
   109   55  111 1    
   110   56   57 am   BACKBONE|DICT|INTERRES
   111   56   58 2    
   112   57  112 1    
   113   57  113 1    
   114   59   60 1    
   115   59  114 1    
   116   59  115 1    
   117   60   61 1    
   118   61  116 1    
   119   61  117 1    
@<TRIPOS>SUBSTRUCTURE
     1 UNK         1 GROUP             0       ****    0 ROOT    
