@<TRIPOS>MOLECULE
3R8
117   119    1
SMALL
USER_CHARGES


@<TRIPOS>ATOM
      1 CA         15.2185  -23.7976  -44.3414 C.3       0 UNK        -0.2013 
      2 C          16.4299  -24.5948  -44.7999 C.2       0 UNK         0.4866 
      3 O          17.3182  -24.8696  -43.9916 O.2       0 UNK        -0.5176 
      4 N          16.4715  -24.9625  -46.0901 N.am      1 UNK        -0.4884 
      5 CA         17.5343  -25.7431  -46.7443 C.3       1 UNK         0.0853 
      6 C6         17.5907  -27.2198  -46.2484 C.3       10 UNK        -0.0849 
      7 S7         16.0016  -28.1025  -46.3681 S.3       10 UNK        -0.2776 
      8 C8         16.5300  -29.8185  -46.0344 C.3       10 UNK         0.0316 
      9 C9         17.3732  -29.9709  -44.7691 C.ar      10 UNK        -0.0863 
     10 C10        18.5975  -30.6439  -44.8259 C.ar      10 UNK        -0.1009 
     11 C11        19.3625  -30.8343  -43.6711 C.ar      10 UNK        -0.0712 
     12 C12        18.9073  -30.3243  -42.4516 C.ar      10 UNK        -0.0894 
     13 C13        17.6907  -29.6366  -42.3806 C.ar      10 UNK        -0.0745 
     14 C14        16.9253  -29.4727  -43.5406 C.ar      10 UNK        -0.0972 
     15 C15        17.1749  -29.1049  -41.0477 C.3       10 UNK         0.0209 
     16 S16        18.3295  -27.9562  -40.2267 S.3       10 UNK        -0.2568 
     17 C17        18.4623  -26.5945  -41.4352 C.3       10 UNK        -0.0983 
     18 CA         19.9283  -26.3662  -41.8804 C.3       3 UNK         0.0876 
     19 N          20.0077  -25.7542  -43.2088 N.am      3 UNK        -0.4424 
     20 C          21.1454  -25.6088  -43.9070 C.2       2 UNK         0.4918 
     21 O          22.2464  -25.9560  -43.4795 O.2       2 UNK        -0.4875 
     22 CA         21.0250  -25.0421  -45.3325 C.3       2 UNK         0.0481 
     23 CB         22.2744  -25.3087  -46.1929 C.3       2 UNK        -0.1831 
     24 N          19.8560  -25.6510  -45.9548 N.am      2 UNK        -0.4498 
     25 C          18.8858  -25.0013  -46.6053 C.2       1 UNK         0.5027 
     26 O          18.9931  -23.8474  -47.0271 O.2       1 UNK        -0.4969 
     27 C          20.7252  -25.5540  -40.8362 C.2       3 UNK         0.5005 
     28 O          20.7155  -24.3215  -40.8821 O.2       3 UNK        -0.5279 
     29 N          21.4128  -26.2733  -39.9406 N.am      4 UNK        -0.4463 
     30 CA         22.3409  -25.8240  -38.8943 C.3       4 UNK         0.0283 
     31 CB         21.8106  -24.6354  -38.0676 C.3       4 UNK        -0.1875 
     32 C          23.7662  -25.5793  -39.4157 C.2       4 UNK         0.4949 
     33 O          24.7108  -25.7652  -38.6481 O.2       4 UNK        -0.5039 
     34 N          23.9198  -25.2331  -40.7025 N.am      5 UNK        -0.4663 
     35 CA         25.1954  -25.3374  -41.4171 C.3       5 UNK         0.0242 
     36 CB         25.2149  -24.3921  -42.6301 C.3       5 UNK        -0.1982 
     37 C          25.4281  -26.8019  -41.8224 C.2       5 UNK         0.5017 
     38 O          26.4762  -27.3642  -41.5038 O.2       5 UNK        -0.5012 
     39 N          24.4101  -27.4046  -42.4497 N.am      6 UNK        -0.4439 
     40 CA         24.2544  -28.8459  -42.6069 C.3       6 UNK         0.0297 
     41 CB         23.5623  -29.1367  -43.9488 C.3       6 UNK        -0.2006 
     42 C          23.4025  -29.3722  -41.4431 C.2       6 UNK         0.4892 
     43 O          22.4105  -28.7391  -41.0722 O.2       6 UNK        -0.5089 
     44 N          23.7841  -30.5315  -40.9064 N.am      7 UNK        -0.4243 
     45 CA         23.0876  -31.2386  -39.8375 C.3       7 UNK         0.0196 
     46 CB         23.4307  -30.6160  -38.4713 C.3       7 UNK        -0.2007 
     47 C          23.5058  -32.7099  -39.9010 C.2       7 UNK         0.5020 
     48 O          24.5976  -33.0056  -40.3943 O.2       7 UNK        -0.5147 
     49 N          22.6275  -33.5994  -39.4144 N.am      8 UNK        -0.4734 
     50 CA         22.7640  -35.0667  -39.4271 C.3       8 UNK         0.0238 
     51 CB         23.8860  -35.5182  -38.4670 C.3       8 UNK        -0.1912 
     52 C          22.9229  -35.6517  -40.8484 C.2       8 UNK         0.5038 
     53 O          23.6298  -36.6441  -41.0347 O.2       8 UNK        -0.5046 
     54 N          22.2703  -35.0079  -41.8245 N.am      9 UNK        -0.4200 
     55 CA         22.3279  -35.3342  -43.2561 C.3       9 UNK         0.0839 
     56 C          21.5307  -36.6016  -43.6856 C.2       9 UNK         0.5513 
     57 N          20.7241  -37.2082  -42.8226 N.am      9 UNK        -0.7519 
     58 O          21.6597  -37.0505  -44.8218 O.2       9 UNK        -0.4960 
     59 C59        21.9857  -34.0940  -44.1255 C.3       10 UNK        -0.0876 
     60 S60        20.3254  -33.4049  -43.7941 S.3       10 UNK        -0.2414 
     61 C61        20.6635  -31.6181  -43.7464 C.3       10 UNK         0.0169 
     62 H62        15.5329  -22.8293  -43.9530 H         1 UNK         0.0903 
     63 H63        14.5111  -23.6257  -45.1524 H         1 UNK         0.0903 
     64 H64        14.6996  -24.3319  -43.5460 H         1 UNK         0.0903 
     65 H65        15.7176  -24.6801  -46.7010 H         1 UNK         0.3096 
     66 H66        17.3047  -25.7561  -47.8111 H         1 UNK         0.1121 
     67 H67        17.8969  -27.2632  -45.2015 H         1 UNK         0.0849 
     68 H68        18.3298  -27.7849  -46.8200 H         1 UNK         0.0849 
     69 H69        15.6439  -30.4480  -45.9439 H         1 UNK         0.0865 
     70 H70        17.0751  -30.1848  -46.9059 H         1 UNK         0.0865 
     71 H71        18.9487  -31.0477  -45.7659 H         1 UNK         0.1346 
     72 H72        19.4943  -30.4679  -41.5546 H         1 UNK         0.1412 
     73 H73        15.9762  -28.9563  -43.4918 H         1 UNK         0.1426 
     74 H74        16.9904  -29.9492  -40.3824 H         1 UNK         0.0716 
     75 H75        16.2156  -28.6006  -41.1747 H         1 UNK         0.0716 
     76 H76        18.0228  -25.6875  -41.0154 H         1 UNK         0.0695 
     77 H77        17.8454  -26.8463  -42.2986 H         1 UNK         0.0695 
     78 H78        20.4021  -27.3444  -41.9888 H         1 UNK         0.0983 
     79 H79        19.1328  -25.3982  -43.5871 H         1 UNK         0.3095 
     80 H80        20.8862  -23.9635  -45.2349 H         1 UNK         0.0454 
     81 H81        22.4858  -26.3755  -46.2762 H         1 UNK         0.0851 
     82 H82        23.1557  -24.8335  -45.7604 H         1 UNK         0.0851 
     83 H83        22.1534  -24.9104  -47.2001 H         1 UNK         0.0851 
     84 H84        19.6685  -26.5980  -45.6564 H         1 UNK         0.2976 
     85 H85        21.4273  -27.2795  -40.0918 H         1 UNK         0.3116 
     86 H86        22.4139  -26.6737  -38.2136 H         1 UNK         0.0646 
     87 H87        21.8112  -23.7058  -38.6370 H         1 UNK         0.0847 
     88 H88        20.7958  -24.8160  -37.7136 H         1 UNK         0.0847 
     89 H89        22.4364  -24.4695  -37.1899 H         1 UNK         0.0847 
     90 H90        23.0892  -25.0940  -41.2629 H         1 UNK         0.3040 
     91 H91        26.0077  -25.0393  -40.7499 H         1 UNK         0.1015 
     92 H92        26.1752  -24.4454  -43.1446 H         1 UNK         0.0786 
     93 H93        25.0692  -23.3560  -42.3243 H         1 UNK         0.0786 
     94 H94        24.4444  -24.6346  -43.3606 H         1 UNK         0.0786 
     95 H95        23.5872  -26.8513  -42.6843 H         1 UNK         0.3172 
     96 H96        25.2317  -29.3333  -42.6016 H         1 UNK         0.0595 
     97 H97        22.5505  -28.7291  -43.9800 H         1 UNK         0.0839 
     98 H98        23.4885  -30.2105  -44.1232 H         1 UNK         0.0839 
     99 H99        24.1193  -28.7098  -44.7829 H         1 UNK         0.0839 
    100 H100       24.5862  -31.0305  -41.2735 H         1 UNK         0.2998 
    101 H101       22.0110  -31.1735  -40.0114 H         1 UNK         0.0822 
    102 H102       22.9292  -31.1464  -37.6610 H         1 UNK         0.0787 
    103 H103       24.5026  -30.6516  -38.2725 H         1 UNK         0.0787 
    104 H104       23.1157  -29.5735  -38.4181 H         1 UNK         0.0787 
    105 H105       21.7633  -33.2485  -39.0227 H         1 UNK         0.3055 
    106 H106       21.8247  -35.4697  -39.0443 H         1 UNK         0.1106 
    107 H107       23.7434  -35.1067  -37.4679 H         1 UNK         0.0828 
    108 H108       23.9040  -36.6043  -38.3680 H         1 UNK         0.0828 
    109 H109       24.8705  -35.2091  -38.8198 H         1 UNK         0.0828 
    110 H110       21.6903  -34.2196  -41.5801 H         1 UNK         0.2931 
    111 H111       23.3702  -35.5768  -43.4729 H         1 UNK         0.0412 
    112 H112       20.2186  -38.0310  -43.1118 H         1 UNK         0.3472 
    113 H113       20.6104  -36.8468  -41.8896 H         1 UNK         0.3472 
    114 H114       22.7351  -33.3202  -43.9509 H         1 UNK         0.0970 
    115 H115       22.0589  -34.3333  -45.1881 H         1 UNK         0.0970 
    116 H116       21.2148  -31.3267  -44.6417 H         1 UNK         0.0612 
    117 H117       21.3035  -31.3895  -42.8926 H         1 UNK         0.0612 
@<TRIPOS>BOND
     1    1    2 1    
     2    1   62 1    
     3    1   63 1    
     4    1   64 1    
     5    2    3 2    
     6    2    4 am   BACKBONE|DICT|INTERRES
     7    4    5 1    
     8    4   65 1    
     9    5    6 1    
    10    5   25 1    
    11    5   66 1    
    12    6    7 1    
    13    6   67 1    
    14    6   68 1    
    15    7    8 1    
    16    8    9 1    
    17    8   69 1    
    18    8   70 1    
    19    9   10 ar   
    20    9   14 ar   
    21   10   11 ar   
    22   10   71 1    
    23   11   12 ar   
    24   11   61 1    
    25   12   13 ar   
    26   12   72 1    
    27   13   14 ar   
    28   13   15 1    
    29   14   73 1    
    30   15   16 1    
    31   15   74 1    
    32   15   75 1    
    33   16   17 1    
    34   17   18 1    
    35   17   76 1    
    36   17   77 1    
    37   18   19 1    
    38   18   27 1    
    39   18   78 1    
    40   19   20 am   BACKBONE|DICT|INTERRES
    41   19   79 1    
    42   20   21 2    
    43   20   22 1    
    44   22   23 1    
    45   22   24 1    
    46   22   80 1    
    47   23   81 1    
    48   23   82 1    
    49   23   83 1    
    50   24   25 am   BACKBONE|DICT|INTERRES
    51   24   84 1    
    52   25   26 2    
    53   27   28 2    
    54   27   29 am   BACKBONE|DICT|INTERRES
    55   29   30 1    
    56   29   85 1    
    57   30   31 1    
    58   30   32 1    
    59   30   86 1    
    60   31   87 1    
    61   31   88 1    
    62   31   89 1    
    63   32   33 2    
    64   32   34 am   BACKBONE|DICT|INTERRES
    65   34   35 1    
    66   34   90 1    
    67   35   36 1    
    68   35   37 1    
    69   35   91 1    
    70   36   92 1    
    71   36   93 1    
    72   36   94 1    
    73   37   38 2    
    74   37   39 am   BACKBONE|DICT|INTERRES
    75   39   40 1    
    76   39   95 1    
    77   40   41 1    
    78   40   42 1    
    79   40   96 1    
    80   41   97 1    
    81   41   98 1    
    82   41   99 1    
    83   42   43 2    
    84   42   44 am   BACKBONE|DICT|INTERRES
    85   44   45 1    
    86   44  100 1    
    87   45   46 1    
    88   45   47 1    
    89   45  101 1    
    90   46  102 1    
    91   46  103 1    
    92   46  104 1    
    93   47   48 2    
    94   47   49 am   BACKBONE|DICT|INTERRES
    95   49   50 1    
    96   49  105 1    
    97   50   51 1    
    98   50   52 1    
    99   50  106 1    
   100   51  107 1    
   101   51  108 1    
   102   51  109 1    
   103   52   53 2    
   104   52   54 am   BACKBONE|DICT|INTERRES
   105   54   55 1    
   106   54  110 1    
   107   55   56 1    
   108   55   59 1    
   109   55  111 1    
   110   56   57 am   BACKBONE|DICT|INTERRES
   111   56   58 2    
   112   57  112 1    
   113   57  113 1    
   114   59   60 1    
   115   59  114 1    
   116   59  115 1    
   117   60   61 1    
   118   61  116 1    
   119   61  117 1    
@<TRIPOS>SUBSTRUCTURE
     1 UNK         1 GROUP             0       ****    0 ROOT    
