@<TRIPOS>MOLECULE
3R8
117   119    1
SMALL
USER_CHARGES


@<TRIPOS>ATOM
      1 CA         17.2779  -28.9755  -42.1590 C.3       0 UNK        -0.2013 
      2 C          16.4251  -27.9325  -42.8573 C.2       0 UNK         0.4866 
      3 O          15.5149  -27.3688  -42.2483 O.2       0 UNK        -0.5176 
      4 N          16.7183  -27.6558  -44.1330 N.am      1 UNK        -0.4884 
      5 CA         15.9669  -26.7426  -45.0056 C.3       1 UNK         0.0853 
      6 C6         16.1223  -27.1239  -46.5035 C.3       10 UNK        -0.0849 
      7 S7         15.8265  -28.8982  -46.8295 S.3       10 UNK        -0.2776 
      8 C8         17.3274  -29.3769  -47.7486 C.3       10 UNK         0.0316 
      9 C9         18.5985  -29.3186  -46.9068 C.ar      10 UNK        -0.0863 
     10 C10        18.9173  -30.3628  -46.0332 C.ar      10 UNK        -0.1009 
     11 C11        20.1200  -30.3519  -45.3173 C.ar      10 UNK        -0.0712 
     12 C12        21.0035  -29.2793  -45.4740 C.ar      10 UNK        -0.0894 
     13 C13        20.6978  -28.2282  -46.3446 C.ar      10 UNK        -0.0745 
     14 C14        19.4936  -28.2544  -47.0550 C.ar      10 UNK        -0.0972 
     15 C15        21.6812  -27.0822  -46.5605 C.3       10 UNK         0.0209 
     16 S16        22.0802  -26.1729  -45.0333 S.3       10 UNK        -0.2568 
     17 C17        20.4327  -25.5946  -44.5070 C.3       10 UNK        -0.0983 
     18 CA         20.3248  -25.2100  -43.0064 C.3       3 UNK         0.0876 
     19 N          18.9623  -24.8026  -42.6954 N.am      3 UNK        -0.4424 
     20 C          18.3765  -23.6487  -43.0264 C.2       2 UNK         0.4918 
     21 O          18.9786  -22.6751  -43.4821 O.2       2 UNK        -0.4875 
     22 CA         16.8403  -23.6326  -42.8787 C.3       2 UNK         0.0481 
     23 CB         16.1845  -22.3571  -43.4481 C.3       2 UNK        -0.1831 
     24 N          16.2506  -24.8478  -43.4633 N.am      2 UNK        -0.4498 
     25 C          16.3636  -25.2726  -44.7334 C.2       1 UNK         0.5027 
     26 O          16.8178  -24.5805  -45.6466 O.2       1 UNK        -0.4969 
     27 C          20.6542  -26.3773  -42.0549 C.2       3 UNK         0.5005 
     28 O          19.7353  -27.0444  -41.5712 O.2       3 UNK        -0.5279 
     29 N          21.9481  -26.6012  -41.7998 N.am      4 UNK        -0.4463 
     30 CA         22.4611  -27.6466  -40.9125 C.3       4 UNK         0.0283 
     31 CB         22.6063  -27.0727  -39.4892 C.3       4 UNK        -0.1875 
     32 C          23.7743  -28.2449  -41.4505 C.2       4 UNK         0.4949 
     33 O          24.6114  -28.6759  -40.6591 O.2       4 UNK        -0.5039 
     34 N          23.9539  -28.2369  -42.7815 N.am      5 UNK        -0.4663 
     35 CA         25.2062  -28.6023  -43.4593 C.3       5 UNK         0.0242 
     36 CB         25.1070  -28.2553  -44.9534 C.3       5 UNK        -0.1982 
     37 C          25.6425  -30.0671  -43.2826 C.2       5 UNK         0.5017 
     38 O          26.8443  -30.3309  -43.2179 O.2       5 UNK        -0.5012 
     39 N          24.6785  -30.9937  -43.1922 N.am      6 UNK        -0.4439 
     40 CA         24.9155  -32.4256  -42.9772 C.3       6 UNK         0.0297 
     41 CB         23.7307  -33.2319  -43.5407 C.3       6 UNK        -0.2006 
     42 C          25.1644  -32.7142  -41.4864 C.2       6 UNK         0.4892 
     43 O          24.3339  -33.3576  -40.8386 O.2       6 UNK        -0.5089 
     44 N          26.2657  -32.1620  -40.9557 N.am      7 UNK        -0.4243 
     45 CA         26.7102  -32.1251  -39.5521 C.3       7 UNK         0.0196 
     46 CB         26.9670  -33.5407  -38.9984 C.3       7 UNK        -0.2007 
     47 C          25.7745  -31.3212  -38.6290 C.2       7 UNK         0.5020 
     48 O          26.2380  -30.4354  -37.9104 O.2       7 UNK        -0.5147 
     49 N          24.4804  -31.6395  -38.6846 N.am      8 UNK        -0.4734 
     50 CA         23.3787  -30.9246  -38.0465 C.3       8 UNK         0.0238 
     51 CB         23.1425  -31.4918  -36.6354 C.3       8 UNK        -0.1912 
     52 C          22.0848  -30.9727  -38.8815 C.2       8 UNK         0.5038 
     53 O          21.1840  -30.1803  -38.6058 O.2       8 UNK        -0.5046 
     54 N          21.9913  -31.8878  -39.8624 N.am      9 UNK        -0.4200 
     55 CA         20.7693  -32.2219  -40.6121 C.3       9 UNK         0.0839 
     56 C          19.6278  -32.7659  -39.6911 C.2       9 UNK         0.5513 
     57 N          18.3708  -32.6854  -40.1040 N.am      9 UNK        -0.7519 
     58 O          19.8778  -33.3147  -38.6192 O.2       9 UNK        -0.4960 
     59 C59        20.3476  -31.0931  -41.6039 C.3       10 UNK        -0.0876 
     60 S60        19.3808  -31.7389  -43.0185 S.3       10 UNK        -0.2414 
     61 C61        20.4976  -31.5380  -44.4408 C.3       10 UNK         0.0169 
     62 H62        17.4764  -28.6794  -41.1292 H         1 UNK         0.0903 
     63 H63        16.7700  -29.9392  -42.1502 H         1 UNK         0.0903 
     64 H64        18.2368  -29.0908  -42.6627 H         1 UNK         0.0903 
     65 H65        17.4743  -28.1515  -44.5861 H         1 UNK         0.3096 
     66 H66        14.9060  -26.8304  -44.7594 H         1 UNK         0.1121 
     67 H67        15.4201  -26.5488  -47.1098 H         1 UNK         0.0849 
     68 H68        17.1138  -26.8534  -46.8662 H         1 UNK         0.0849 
     69 H69        17.1947  -30.3925  -48.1245 H         1 UNK         0.0865 
     70 H70        17.4227  -28.7442  -48.6326 H         1 UNK         0.0865 
     71 H71        18.2404  -31.2001  -45.9286 H         1 UNK         0.1346 
     72 H72        21.9417  -29.2714  -44.9391 H         1 UNK         0.1412 
     73 H73        19.2640  -27.4545  -47.7458 H         1 UNK         0.1426 
     74 H74        21.2958  -26.3720  -47.2937 H         1 UNK         0.0716 
     75 H75        22.6039  -27.4838  -46.9811 H         1 UNK         0.0716 
     76 H76        19.6895  -26.3594  -44.7371 H         1 UNK         0.0695 
     77 H77        20.1757  -24.7368  -45.1304 H         1 UNK         0.0695 
     78 H78        20.9999  -24.3803  -42.7864 H         1 UNK         0.0983 
     79 H79        18.4223  -25.5389  -42.2573 H         1 UNK         0.3095 
     80 H80        16.6280  -23.6667  -41.8093 H         1 UNK         0.0454 
     81 H81        15.1016  -22.3809  -43.3287 H         1 UNK         0.0851 
     82 H82        16.4024  -22.2223  -44.5078 H         1 UNK         0.0851 
     83 H83        16.5484  -21.4697  -42.9292 H         1 UNK         0.0851 
     84 H84        15.8758  -25.5229  -42.8013 H         1 UNK         0.2976 
     85 H85        22.6425  -26.0147  -42.2447 H         1 UNK         0.3116 
     86 H86        21.7493  -28.4727  -40.8740 H         1 UNK         0.0646 
     87 H87        23.3203  -26.2493  -39.4591 H         1 UNK         0.0847 
     88 H88        22.9521  -27.8299  -38.7872 H         1 UNK         0.0847 
     89 H89        21.6518  -26.7050  -39.1126 H         1 UNK         0.0847 
     90 H90        23.2189  -27.8585  -43.3631 H         1 UNK         0.3040 
     91 H91        25.9979  -27.9872  -43.0253 H         1 UNK         0.1015 
     92 H92        24.2979  -28.7964  -45.4444 H         1 UNK         0.0786 
     93 H93        26.0305  -28.5097  -45.4758 H         1 UNK         0.0786 
     94 H94        24.9416  -27.1885  -45.1034 H         1 UNK         0.0786 
     95 H95        23.7201  -30.6820  -43.2085 H         1 UNK         0.3172 
     96 H96        25.8095  -32.7283  -43.5268 H         1 UNK         0.0595 
     97 H97        22.8064  -33.0318  -42.9992 H         1 UNK         0.0839 
     98 H98        23.9214  -34.3030  -43.4613 H         1 UNK         0.0839 
     99 H99        23.5626  -33.0124  -44.5951 H         1 UNK         0.0839 
    100 H100       26.8175  -31.5929  -41.5905 H         1 UNK         0.2998 
    101 H101       27.6665  -31.5994  -39.5607 H         1 UNK         0.0822 
    102 H102       27.6863  -34.0811  -39.6138 H         1 UNK         0.0787 
    103 H103       27.3757  -33.4929  -37.9883 H         1 UNK         0.0787 
    104 H104       26.0552  -34.1366  -38.9491 H         1 UNK         0.0787 
    105 H105       24.2454  -32.3904  -39.3276 H         1 UNK         0.3055 
    106 H106       23.6551  -29.8725  -37.9569 H         1 UNK         0.1106 
    107 H107       22.3298  -30.9654  -36.1329 H         1 UNK         0.0828 
    108 H108       22.8766  -32.5490  -36.6679 H         1 UNK         0.0828 
    109 H109       24.0300  -31.3870  -36.0111 H         1 UNK         0.0828 
    110 H110       22.7676  -32.5123  -40.0418 H         1 UNK         0.2931 
    111 H111       21.0680  -33.0835  -41.2101 H         1 UNK         0.0412 
    112 H112       17.6317  -33.0521  -39.5250 H         1 UNK         0.3472 
    113 H113       18.1623  -32.2867  -41.0077 H         1 UNK         0.3472 
    114 H114       21.2298  -30.5835  -41.9909 H         1 UNK         0.0970 
    115 H115       19.7715  -30.3227  -41.0883 H         1 UNK         0.0970 
    116 H116       20.4525  -32.4455  -45.0442 H         1 UNK         0.0612 
    117 H117       21.5288  -31.4526  -44.1026 H         1 UNK         0.0612 
@<TRIPOS>BOND
     1    1    2 1    
     2    1   62 1    
     3    1   63 1    
     4    1   64 1    
     5    2    3 2    
     6    2    4 am   BACKBONE|DICT|INTERRES
     7    4    5 1    
     8    4   65 1    
     9    5    6 1    
    10    5   25 1    
    11    5   66 1    
    12    6    7 1    
    13    6   67 1    
    14    6   68 1    
    15    7    8 1    
    16    8    9 1    
    17    8   69 1    
    18    8   70 1    
    19    9   10 ar   
    20    9   14 ar   
    21   10   11 ar   
    22   10   71 1    
    23   11   12 ar   
    24   11   61 1    
    25   12   13 ar   
    26   12   72 1    
    27   13   14 ar   
    28   13   15 1    
    29   14   73 1    
    30   15   16 1    
    31   15   74 1    
    32   15   75 1    
    33   16   17 1    
    34   17   18 1    
    35   17   76 1    
    36   17   77 1    
    37   18   19 1    
    38   18   27 1    
    39   18   78 1    
    40   19   20 am   BACKBONE|DICT|INTERRES
    41   19   79 1    
    42   20   21 2    
    43   20   22 1    
    44   22   23 1    
    45   22   24 1    
    46   22   80 1    
    47   23   81 1    
    48   23   82 1    
    49   23   83 1    
    50   24   25 am   BACKBONE|DICT|INTERRES
    51   24   84 1    
    52   25   26 2    
    53   27   28 2    
    54   27   29 am   BACKBONE|DICT|INTERRES
    55   29   30 1    
    56   29   85 1    
    57   30   31 1    
    58   30   32 1    
    59   30   86 1    
    60   31   87 1    
    61   31   88 1    
    62   31   89 1    
    63   32   33 2    
    64   32   34 am   BACKBONE|DICT|INTERRES
    65   34   35 1    
    66   34   90 1    
    67   35   36 1    
    68   35   37 1    
    69   35   91 1    
    70   36   92 1    
    71   36   93 1    
    72   36   94 1    
    73   37   38 2    
    74   37   39 am   BACKBONE|DICT|INTERRES
    75   39   40 1    
    76   39   95 1    
    77   40   41 1    
    78   40   42 1    
    79   40   96 1    
    80   41   97 1    
    81   41   98 1    
    82   41   99 1    
    83   42   43 2    
    84   42   44 am   BACKBONE|DICT|INTERRES
    85   44   45 1    
    86   44  100 1    
    87   45   46 1    
    88   45   47 1    
    89   45  101 1    
    90   46  102 1    
    91   46  103 1    
    92   46  104 1    
    93   47   48 2    
    94   47   49 am   BACKBONE|DICT|INTERRES
    95   49   50 1    
    96   49  105 1    
    97   50   51 1    
    98   50   52 1    
    99   50  106 1    
   100   51  107 1    
   101   51  108 1    
   102   51  109 1    
   103   52   53 2    
   104   52   54 am   BACKBONE|DICT|INTERRES
   105   54   55 1    
   106   54  110 1    
   107   55   56 1    
   108   55   59 1    
   109   55  111 1    
   110   56   57 am   BACKBONE|DICT|INTERRES
   111   56   58 2    
   112   57  112 1    
   113   57  113 1    
   114   59   60 1    
   115   59  114 1    
   116   59  115 1    
   117   60   61 1    
   118   61  116 1    
   119   61  117 1    
@<TRIPOS>SUBSTRUCTURE
     1 UNK         1 GROUP             0       ****    0 ROOT    
