@<TRIPOS>MOLECULE
3R8
117   119    1
SMALL
USER_CHARGES


@<TRIPOS>ATOM
      1 CA         19.9235  -23.1504  -39.9186 C.3       0 UNK        -0.2013 
      2 C          19.0934  -23.4218  -41.1637 C.2       0 UNK         0.4866 
      3 O          18.4260  -22.5154  -41.6619 O.2       0 UNK        -0.5176 
      4 N          19.1259  -24.6629  -41.6686 N.am      1 UNK        -0.4884 
      5 CA         18.3524  -25.1159  -42.8349 C.3       1 UNK         0.0853 
      6 C6         18.4032  -26.6536  -43.0202 C.3       10 UNK        -0.0849 
      7 S7         17.9734  -27.6085  -41.5281 S.3       10 UNK        -0.2776 
      8 C8         16.9411  -28.9337  -42.2372 C.3       10 UNK         0.0316 
      9 C9         17.7220  -29.8201  -43.2007 C.ar      10 UNK        -0.0863 
     10 C10        18.5248  -30.8524  -42.7101 C.ar      10 UNK        -0.1009 
     11 C11        19.2308  -31.6847  -43.5827 C.ar      10 UNK        -0.0712 
     12 C12        19.1356  -31.4725  -44.9634 C.ar      10 UNK        -0.0894 
     13 C13        18.3274  -30.4483  -45.4701 C.ar      10 UNK        -0.0745 
     14 C14        17.6199  -29.6311  -44.5825 C.ar      10 UNK        -0.0972 
     15 C15        18.1636  -30.2583  -46.9748 C.3       10 UNK         0.0209 
     16 S16        19.6130  -29.4965  -47.7769 S.3       10 UNK        -0.2568 
     17 C17        19.6555  -27.8272  -47.0292 C.3       10 UNK        -0.0983 
     18 CA         21.0832  -27.2941  -46.7290 C.3       3 UNK         0.0876 
     19 N          21.0383  -26.0443  -45.9841 N.am      3 UNK        -0.4424 
     20 C          20.8672  -24.8189  -46.4897 C.2       2 UNK         0.4918 
     21 O          20.7535  -24.5847  -47.6938 O.2       2 UNK        -0.4875 
     22 CA         20.8024  -23.6714  -45.4570 C.3       2 UNK         0.0481 
     23 CB         20.2448  -22.3574  -46.0436 C.3       2 UNK        -0.1831 
     24 N          20.0763  -24.0661  -44.2408 N.am      2 UNK        -0.4498 
     25 C          18.7943  -24.4623  -44.1608 C.2       1 UNK         0.5027 
     26 O          17.9896  -24.3955  -45.0908 O.2       1 UNK        -0.4969 
     27 C          21.9203  -28.2555  -45.8714 C.2       3 UNK         0.5005 
     28 O          21.7333  -28.2860  -44.6509 O.2       3 UNK        -0.5279 
     29 N          22.8139  -29.0149  -46.5240 N.am      4 UNK        -0.4463 
     30 CA         23.6884  -30.0404  -45.9464 C.3       4 UNK         0.0283 
     31 CB         22.8606  -31.2989  -45.6082 C.3       4 UNK        -0.1875 
     32 C          24.5282  -29.4900  -44.7758 C.2       4 UNK         0.4949 
     33 O          25.3259  -28.5771  -44.9944 O.2       4 UNK        -0.5039 
     34 N          24.3337  -30.0307  -43.5663 N.am      5 UNK        -0.4663 
     35 CA         25.0032  -29.5828  -42.3424 C.3       5 UNK         0.0242 
     36 CB         25.0458  -30.7540  -41.3479 C.3       5 UNK        -0.1982 
     37 C          24.3273  -28.3656  -41.6842 C.2       5 UNK         0.5017 
     38 O          24.9086  -27.8061  -40.7539 O.2       5 UNK        -0.5012 
     39 N          23.1145  -28.0030  -42.1359 N.am      6 UNK        -0.4439 
     40 CA         22.2255  -26.9809  -41.5684 C.3       6 UNK         0.0297 
     41 CB         22.8054  -25.5666  -41.7845 C.3       6 UNK        -0.2006 
     42 C          21.8390  -27.2657  -40.1016 C.2       6 UNK         0.4892 
     43 O          21.7301  -26.3355  -39.3014 O.2       6 UNK        -0.5089 
     44 N          21.6465  -28.5496  -39.7797 N.am      7 UNK        -0.4243 
     45 CA         21.3439  -29.0661  -38.4477 C.3       7 UNK         0.0196 
     46 CB         22.6332  -29.1232  -37.5969 C.3       7 UNK        -0.2007 
     47 C          20.6361  -30.4211  -38.6053 C.2       7 UNK         0.5020 
     48 O          19.8499  -30.5832  -39.5369 O.2       7 UNK        -0.5147 
     49 N          20.9194  -31.3797  -37.7133 N.am      8 UNK        -0.4734 
     50 CA         20.3774  -32.7441  -37.7686 C.3       8 UNK         0.0238 
     51 CB         20.5668  -33.4160  -36.3983 C.3       8 UNK        -0.1912 
     52 C          20.9948  -33.6125  -38.8829 C.2       8 UNK         0.5038 
     53 O          20.3813  -34.6061  -39.2740 O.2       8 UNK        -0.5046 
     54 N          22.1914  -33.2324  -39.3536 N.am      9 UNK        -0.4200 
     55 CA         22.9829  -33.9071  -40.3992 C.3       9 UNK         0.0839 
     56 C          23.5627  -35.2938  -39.9832 C.2       9 UNK         0.5513 
     57 N          23.6106  -35.6329  -38.7003 N.am      9 UNK        -0.7519 
     58 O          24.0070  -36.0646  -40.8303 O.2       9 UNK        -0.4960 
     59 C59        22.2814  -33.9498  -41.7891 C.3       10 UNK        -0.0876 
     60 S60        21.6504  -32.3309  -42.3584 S.3       10 UNK        -0.2414 
     61 C61        20.0388  -32.8487  -43.0268 C.3       10 UNK         0.0169 
     62 H62        20.7483  -22.4790  -40.1556 H         1 UNK         0.0903 
     63 H63        19.3086  -22.6782  -39.1529 H         1 UNK         0.0903 
     64 H64        20.3385  -24.0653  -39.4974 H         1 UNK         0.0903 
     65 H65        19.6394  -25.3829  -41.1804 H         1 UNK         0.3096 
     66 H66        17.3122  -24.8267  -42.6678 H         1 UNK         0.1121 
     67 H67        17.7142  -26.9305  -43.8191 H         1 UNK         0.0849 
     68 H68        19.3869  -26.9862  -43.3555 H         1 UNK         0.0849 
     69 H69        16.0741  -28.4945  -42.7331 H         1 UNK         0.0865 
     70 H70        16.5455  -29.5427  -41.4229 H         1 UNK         0.0865 
     71 H71        18.5911  -31.0178  -41.6446 H         1 UNK         0.1346 
     72 H72        19.6711  -32.1173  -45.6466 H         1 UNK         0.1412 
     73 H73        16.9803  -28.8508  -44.9711 H         1 UNK         0.1426 
     74 H74        17.2820  -29.6537  -47.1936 H         1 UNK         0.0716 
     75 H75        17.9828  -31.2298  -47.4369 H         1 UNK         0.0716 
     76 H76        19.0678  -27.8276  -46.1112 H         1 UNK         0.0695 
     77 H77        19.1431  -27.1432  -47.7071 H         1 UNK         0.0695 
     78 H78        21.6060  -27.1225  -47.6726 H         1 UNK         0.0983 
     79 H79        21.1739  -26.1650  -44.9894 H         1 UNK         0.3095 
     80 H80        21.8315  -23.4816  -45.1487 H         1 UNK         0.0454 
     81 H81        20.2062  -21.5713  -45.2897 H         1 UNK         0.0851 
     82 H82        19.2402  -22.4843  -46.4477 H         1 UNK         0.0851 
     83 H83        20.8755  -21.9955  -46.8563 H         1 UNK         0.0851 
     84 H84        20.6306  -24.1366  -43.3997 H         1 UNK         0.2976 
     85 H85        22.9026  -28.8895  -47.5229 H         1 UNK         0.3116 
     86 H86        24.4024  -30.3173  -46.7234 H         1 UNK         0.0646 
     87 H87        23.4788  -32.0884  -45.1787 H         1 UNK         0.0847 
     88 H88        22.3974  -31.7112  -46.5046 H         1 UNK         0.0847 
     89 H89        22.0575  -31.0743  -44.9073 H         1 UNK         0.0847 
     90 H90        23.6385  -30.7579  -43.4666 H         1 UNK         0.3040 
     91 H91        26.0305  -29.2982  -42.5815 H         1 UNK         0.1015 
     92 H92        24.0465  -31.0110  -40.9968 H         1 UNK         0.0786 
     93 H93        25.6405  -30.4987  -40.4697 H         1 UNK         0.0786 
     94 H94        25.4914  -31.6437  -41.7932 H         1 UNK         0.0786 
     95 H95        22.7436  -28.4787  -42.9553 H         1 UNK         0.3172 
     96 H96        21.2993  -27.0464  -42.1365 H         1 UNK         0.0595 
     97 H97        23.7232  -25.4168  -41.2153 H         1 UNK         0.0839 
     98 H98        22.1032  -24.7965  -41.4662 H         1 UNK         0.0839 
     99 H99        23.0315  -25.3875  -42.8355 H         1 UNK         0.0839 
    100 H100       21.6589  -29.2433  -40.5158 H         1 UNK         0.2998 
    101 H101       20.6308  -28.3942  -37.9655 H         1 UNK         0.0822 
    102 H102       23.3607  -29.8221  -38.0119 H         1 UNK         0.0787 
    103 H103       23.1141  -28.1461  -37.5446 H         1 UNK         0.0787 
    104 H104       22.4241  -29.4212  -36.5690 H         1 UNK         0.0787 
    105 H105       21.5642  -31.1709  -36.9641 H         1 UNK         0.3055 
    106 H106       19.3058  -32.6799  -37.9724 H         1 UNK         0.1106 
    107 H107       20.1530  -34.4256  -36.3979 H         1 UNK         0.0828 
    108 H108       21.6200  -33.4959  -36.1269 H         1 UNK         0.0828 
    109 H109       20.0574  -32.8608  -35.6104 H         1 UNK         0.0828 
    110 H110       22.6113  -32.4084  -38.9521 H         1 UNK         0.2931 
    111 H111       23.8690  -33.2854  -40.5178 H         1 UNK         0.0412 
    112 H112       23.2619  -35.0080  -37.9918 H         1 UNK         0.3472 
    113 H113       23.9972  -36.5269  -38.4402 H         1 UNK         0.3472 
    114 H114       22.9749  -34.3112  -42.5504 H         1 UNK         0.0970 
    115 H115       21.4652  -34.6737  -41.7659 H         1 UNK         0.0970 
    116 H116       20.2000  -33.6003  -43.8011 H         1 UNK         0.0612 
    117 H117       19.4669  -33.3372  -42.2360 H         1 UNK         0.0612 
@<TRIPOS>BOND
     1    1    2 1    
     2    1   62 1    
     3    1   63 1    
     4    1   64 1    
     5    2    3 2    
     6    2    4 am   BACKBONE|DICT|INTERRES
     7    4    5 1    
     8    4   65 1    
     9    5    6 1    
    10    5   25 1    
    11    5   66 1    
    12    6    7 1    
    13    6   67 1    
    14    6   68 1    
    15    7    8 1    
    16    8    9 1    
    17    8   69 1    
    18    8   70 1    
    19    9   10 ar   
    20    9   14 ar   
    21   10   11 ar   
    22   10   71 1    
    23   11   12 ar   
    24   11   61 1    
    25   12   13 ar   
    26   12   72 1    
    27   13   14 ar   
    28   13   15 1    
    29   14   73 1    
    30   15   16 1    
    31   15   74 1    
    32   15   75 1    
    33   16   17 1    
    34   17   18 1    
    35   17   76 1    
    36   17   77 1    
    37   18   19 1    
    38   18   27 1    
    39   18   78 1    
    40   19   20 am   BACKBONE|DICT|INTERRES
    41   19   79 1    
    42   20   21 2    
    43   20   22 1    
    44   22   23 1    
    45   22   24 1    
    46   22   80 1    
    47   23   81 1    
    48   23   82 1    
    49   23   83 1    
    50   24   25 am   BACKBONE|DICT|INTERRES
    51   24   84 1    
    52   25   26 2    
    53   27   28 2    
    54   27   29 am   BACKBONE|DICT|INTERRES
    55   29   30 1    
    56   29   85 1    
    57   30   31 1    
    58   30   32 1    
    59   30   86 1    
    60   31   87 1    
    61   31   88 1    
    62   31   89 1    
    63   32   33 2    
    64   32   34 am   BACKBONE|DICT|INTERRES
    65   34   35 1    
    66   34   90 1    
    67   35   36 1    
    68   35   37 1    
    69   35   91 1    
    70   36   92 1    
    71   36   93 1    
    72   36   94 1    
    73   37   38 2    
    74   37   39 am   BACKBONE|DICT|INTERRES
    75   39   40 1    
    76   39   95 1    
    77   40   41 1    
    78   40   42 1    
    79   40   96 1    
    80   41   97 1    
    81   41   98 1    
    82   41   99 1    
    83   42   43 2    
    84   42   44 am   BACKBONE|DICT|INTERRES
    85   44   45 1    
    86   44  100 1    
    87   45   46 1    
    88   45   47 1    
    89   45  101 1    
    90   46  102 1    
    91   46  103 1    
    92   46  104 1    
    93   47   48 2    
    94   47   49 am   BACKBONE|DICT|INTERRES
    95   49   50 1    
    96   49  105 1    
    97   50   51 1    
    98   50   52 1    
    99   50  106 1    
   100   51  107 1    
   101   51  108 1    
   102   51  109 1    
   103   52   53 2    
   104   52   54 am   BACKBONE|DICT|INTERRES
   105   54   55 1    
   106   54  110 1    
   107   55   56 1    
   108   55   59 1    
   109   55  111 1    
   110   56   57 am   BACKBONE|DICT|INTERRES
   111   56   58 2    
   112   57  112 1    
   113   57  113 1    
   114   59   60 1    
   115   59  114 1    
   116   59  115 1    
   117   60   61 1    
   118   61  116 1    
   119   61  117 1    
@<TRIPOS>SUBSTRUCTURE
     1 UNK         1 GROUP             0       ****    0 ROOT    
