@<TRIPOS>MOLECULE
3R8
117   119    1
SMALL
USER_CHARGES


@<TRIPOS>ATOM
      1 CA         15.5997  -23.1510  -47.0912 C.3       0 UNK        -0.2013 
      2 C          16.4298  -24.3072  -47.6285 C.2       0 UNK         0.4866 
      3 O          16.4022  -24.5761  -48.8299 O.2       0 UNK        -0.5176 
      4 N          17.1708  -24.9891  -46.7511 N.am      1 UNK        -0.4884 
      5 CA         18.0434  -26.1191  -47.0672 C.3       1 UNK         0.0853 
      6 C6         17.2556  -27.4399  -47.3017 C.3       10 UNK        -0.0849 
      7 S7         16.2510  -27.9904  -45.8749 S.3       10 UNK        -0.2776 
      8 C8         17.2696  -29.3773  -45.2724 C.3       10 UNK         0.0316 
      9 C9         17.1179  -29.6558  -43.7806 C.ar      10 UNK        -0.0863 
     10 C10        17.1172  -30.9779  -43.3283 C.ar      10 UNK        -0.1009 
     11 C11        17.1089  -31.2747  -41.9587 C.ar      10 UNK        -0.0712 
     12 C12        17.0275  -30.2201  -41.0441 C.ar      10 UNK        -0.0894 
     13 C13        16.9970  -28.8922  -41.4799 C.ar      10 UNK        -0.0745 
     14 C14        17.0608  -28.6151  -42.8475 C.ar      10 UNK        -0.0972 
     15 C15        16.9131  -27.7587  -40.4694 C.3       10 UNK         0.0209 
     16 S16        18.4855  -27.5309  -39.5838 S.3       10 UNK        -0.2568 
     17 C17        19.5697  -26.8624  -40.8938 C.3       10 UNK        -0.0983 
     18 CA         20.3905  -27.9337  -41.6673 C.3       3 UNK         0.0876 
     19 N          20.8451  -27.3706  -42.9388 N.am      3 UNK        -0.4424 
     20 C          20.9036  -28.0192  -44.1048 C.2       2 UNK         0.4918 
     21 O          20.6212  -29.2072  -44.2607 O.2       2 UNK        -0.4875 
     22 CA         21.3232  -27.1744  -45.3214 C.3       2 UNK         0.0481 
     23 CB         22.4899  -27.8240  -46.0841 C.3       2 UNK        -0.1831 
     24 N          20.1996  -26.9632  -46.2393 N.am      2 UNK        -0.4498 
     25 C          19.1156  -26.2228  -45.9637 C.2       1 UNK         0.5027 
     26 O          18.9520  -25.6201  -44.8974 O.2       1 UNK        -0.4969 
     27 C          21.5784  -28.4848  -40.8492 C.2       3 UNK         0.5005 
     28 O          22.7344  -28.4097  -41.2774 O.2       3 UNK        -0.5279 
     29 N          21.2740  -28.9989  -39.6496 N.am      4 UNK        -0.4463 
     30 CA         22.2127  -29.5564  -38.6707 C.3       4 UNK         0.0283 
     31 CB         21.4245  -30.1057  -37.4721 C.3       4 UNK        -0.1875 
     32 C          23.2944  -28.5690  -38.1969 C.2       4 UNK         0.4949 
     33 O          24.3651  -29.0102  -37.7833 O.2       4 UNK        -0.5039 
     34 N          23.0380  -27.2595  -38.3294 N.am      5 UNK        -0.4663 
     35 CA         24.0211  -26.1858  -38.1464 C.3       5 UNK         0.0242 
     36 CB         23.3036  -24.8293  -38.2330 C.3       5 UNK        -0.1982 
     37 C          25.1904  -26.2422  -39.1519 C.2       5 UNK         0.5017 
     38 O          26.2818  -25.7748  -38.8265 O.2       5 UNK        -0.5012 
     39 N          24.9520  -26.8331  -40.3318 N.am      6 UNK        -0.4439 
     40 CA         25.9551  -27.1358  -41.3549 C.3       6 UNK         0.0297 
     41 CB         25.3923  -26.7241  -42.7284 C.3       6 UNK        -0.2006 
     42 C          26.3456  -28.6286  -41.3461 C.2       6 UNK         0.4892 
     43 O          27.0525  -29.0618  -42.2569 O.2       6 UNK        -0.5089 
     44 N          25.8738  -29.3870  -40.3409 N.am      7 UNK        -0.4243 
     45 CA         26.0057  -30.8390  -40.1661 C.3       7 UNK         0.0196 
     46 CB         27.4719  -31.2228  -39.8727 C.3       7 UNK        -0.2007 
     47 C          25.3901  -31.6410  -41.3304 C.2       7 UNK         0.5020 
     48 O          25.9590  -32.6524  -41.7459 O.2       7 UNK        -0.5147 
     49 N          24.2499  -31.1682  -41.8486 N.am      8 UNK        -0.4734 
     50 CA         23.5831  -31.7100  -43.0306 C.3       8 UNK         0.0238 
     51 CB         23.7627  -30.6962  -44.1733 C.3       8 UNK        -0.1912 
     52 C          22.0949  -31.9791  -42.7622 C.2       8 UNK         0.5038 
     53 O          21.5561  -31.5556  -41.7384 O.2       8 UNK        -0.5046 
     54 N          21.4687  -32.6791  -43.7108 N.am      9 UNK        -0.4200 
     55 CA         20.0324  -32.9418  -43.8405 C.3       9 UNK         0.0839 
     56 C          19.7551  -33.4444  -45.2909 C.2       9 UNK         0.5513 
     57 N          18.5191  -33.7752  -45.6311 N.am      9 UNK        -0.7519 
     58 O          20.6547  -33.5282  -46.1277 O.2       9 UNK        -0.4960 
     59 C59        19.4798  -33.8527  -42.6988 C.3       10 UNK        -0.0876 
     60 S60        17.6555  -34.0035  -42.6073 S.3       10 UNK        -0.2414 
     61 C61        17.1709  -32.7050  -41.4139 C.3       10 UNK         0.0169 
     62 H62        15.7213  -23.0278  -46.0150 H         1 UNK         0.0903 
     63 H63        15.8946  -22.2201  -47.5749 H         1 UNK         0.0903 
     64 H64        14.5430  -23.3218  -47.2952 H         1 UNK         0.0903 
     65 H65        17.2086  -24.7183  -45.7751 H         1 UNK         0.3096 
     66 H66        18.5771  -25.8728  -47.9883 H         1 UNK         0.1121 
     67 H67        17.9319  -28.2381  -47.6119 H         1 UNK         0.0849 
     68 H68        16.5765  -27.3077  -48.1452 H         1 UNK         0.0849 
     69 H69        17.0218  -30.2636  -45.8588 H         1 UNK         0.0865 
     70 H70        18.3216  -29.1712  -45.4631 H         1 UNK         0.0865 
     71 H71        17.1593  -31.7725  -44.0571 H         1 UNK         0.1346 
     72 H72        17.0000  -30.4311  -39.9835 H         1 UNK         0.1412 
     73 H73        17.0804  -27.5877  -43.1852 H         1 UNK         0.1426 
     74 H74        16.1300  -27.9828  -39.7437 H         1 UNK         0.0716 
     75 H75        16.6233  -26.8231  -40.9505 H         1 UNK         0.0716 
     76 H76        18.9352  -26.3093  -41.5890 H         1 UNK         0.0695 
     77 H77        20.2298  -26.1145  -40.4501 H         1 UNK         0.0695 
     78 H78        19.7458  -28.7882  -41.8826 H         1 UNK         0.0983 
     79 H79        21.1195  -26.4000  -42.9154 H         1 UNK         0.3095 
     80 H80        21.6616  -26.1952  -44.9752 H         1 UNK         0.0454 
     81 H81        23.3683  -27.9143  -45.4446 H         1 UNK         0.0851 
     82 H82        22.7847  -27.2255  -46.9460 H         1 UNK         0.0851 
     83 H83        22.2379  -28.8239  -46.4397 H         1 UNK         0.0851 
     84 H84        20.2537  -27.4420  -47.1267 H         1 UNK         0.2976 
     85 H85        20.2992  -28.9823  -39.3766 H         1 UNK         0.3116 
     86 H86        22.7250  -30.3904  -39.1547 H         1 UNK         0.0646 
     87 H87        20.8593  -29.3218  -36.9663 H         1 UNK         0.0847 
     88 H88        20.7232  -30.8815  -37.7803 H         1 UNK         0.0847 
     89 H89        22.0941  -30.5523  -36.7354 H         1 UNK         0.0847 
     90 H90        22.1240  -26.9883  -38.6613 H         1 UNK         0.3040 
     91 H91        24.4478  -26.2896  -37.1462 H         1 UNK         0.1015 
     92 H92        24.0032  -24.0072  -38.0743 H         1 UNK         0.0786 
     93 H93        22.5266  -24.7413  -37.4733 H         1 UNK         0.0786 
     94 H94        22.8398  -24.6785  -39.2088 H         1 UNK         0.0786 
     95 H95        24.0285  -27.2210  -40.5125 H         1 UNK         0.3172 
     96 H96        26.8658  -26.5617  -41.1737 H         1 UNK         0.0595 
     97 H97        24.5148  -27.3131  -42.9982 H         1 UNK         0.0839 
     98 H98        26.1335  -26.8667  -43.5158 H         1 UNK         0.0839 
     99 H99        25.1074  -25.6721  -42.7417 H         1 UNK         0.0839 
    100 H100       25.3343  -28.9254  -39.6182 H         1 UNK         0.2998 
    101 H101       25.4184  -31.0955  -39.2834 H         1 UNK         0.0822 
    102 H102       27.5557  -32.2791  -39.6144 H         1 UNK         0.0787 
    103 H103       27.8697  -30.6531  -39.0330 H         1 UNK         0.0787 
    104 H104       28.1170  -31.0468  -40.7341 H         1 UNK         0.0787 
    105 H105       23.8058  -30.3530  -41.4394 H         1 UNK         0.3055 
    106 H106       24.0346  -32.6600  -43.3256 H         1 UNK         0.1106 
    107 H107       23.3634  -29.7219  -43.8931 H         1 UNK         0.0828 
    108 H108       24.8160  -30.5630  -44.4208 H         1 UNK         0.0828 
    109 H109       23.2521  -31.0130  -45.0834 H         1 UNK         0.0828 
    110 H110       21.9857  -32.9699  -44.5315 H         1 UNK         0.2931 
    111 H111       19.5592  -31.9638  -43.7665 H         1 UNK         0.0412 
    112 H112       18.3323  -34.0971  -46.5678 H         1 UNK         0.3472 
    113 H113       17.7875  -33.7803  -44.9355 H         1 UNK         0.3472 
    114 H114       19.8954  -34.8565  -42.7995 H         1 UNK         0.0970 
    115 H115       19.8256  -33.4946  -41.7291 H         1 UNK         0.0970 
    116 H116       17.8490  -32.7442  -40.5600 H         1 UNK         0.0612 
    117 H117       16.1819  -32.9591  -41.0307 H         1 UNK         0.0612 
@<TRIPOS>BOND
     1    1    2 1    
     2    1   62 1    
     3    1   63 1    
     4    1   64 1    
     5    2    3 2    
     6    2    4 am   BACKBONE|DICT|INTERRES
     7    4    5 1    
     8    4   65 1    
     9    5    6 1    
    10    5   25 1    
    11    5   66 1    
    12    6    7 1    
    13    6   67 1    
    14    6   68 1    
    15    7    8 1    
    16    8    9 1    
    17    8   69 1    
    18    8   70 1    
    19    9   10 ar   
    20    9   14 ar   
    21   10   11 ar   
    22   10   71 1    
    23   11   12 ar   
    24   11   61 1    
    25   12   13 ar   
    26   12   72 1    
    27   13   14 ar   
    28   13   15 1    
    29   14   73 1    
    30   15   16 1    
    31   15   74 1    
    32   15   75 1    
    33   16   17 1    
    34   17   18 1    
    35   17   76 1    
    36   17   77 1    
    37   18   19 1    
    38   18   27 1    
    39   18   78 1    
    40   19   20 am   BACKBONE|DICT|INTERRES
    41   19   79 1    
    42   20   21 2    
    43   20   22 1    
    44   22   23 1    
    45   22   24 1    
    46   22   80 1    
    47   23   81 1    
    48   23   82 1    
    49   23   83 1    
    50   24   25 am   BACKBONE|DICT|INTERRES
    51   24   84 1    
    52   25   26 2    
    53   27   28 2    
    54   27   29 am   BACKBONE|DICT|INTERRES
    55   29   30 1    
    56   29   85 1    
    57   30   31 1    
    58   30   32 1    
    59   30   86 1    
    60   31   87 1    
    61   31   88 1    
    62   31   89 1    
    63   32   33 2    
    64   32   34 am   BACKBONE|DICT|INTERRES
    65   34   35 1    
    66   34   90 1    
    67   35   36 1    
    68   35   37 1    
    69   35   91 1    
    70   36   92 1    
    71   36   93 1    
    72   36   94 1    
    73   37   38 2    
    74   37   39 am   BACKBONE|DICT|INTERRES
    75   39   40 1    
    76   39   95 1    
    77   40   41 1    
    78   40   42 1    
    79   40   96 1    
    80   41   97 1    
    81   41   98 1    
    82   41   99 1    
    83   42   43 2    
    84   42   44 am   BACKBONE|DICT|INTERRES
    85   44   45 1    
    86   44  100 1    
    87   45   46 1    
    88   45   47 1    
    89   45  101 1    
    90   46  102 1    
    91   46  103 1    
    92   46  104 1    
    93   47   48 2    
    94   47   49 am   BACKBONE|DICT|INTERRES
    95   49   50 1    
    96   49  105 1    
    97   50   51 1    
    98   50   52 1    
    99   50  106 1    
   100   51  107 1    
   101   51  108 1    
   102   51  109 1    
   103   52   53 2    
   104   52   54 am   BACKBONE|DICT|INTERRES
   105   54   55 1    
   106   54  110 1    
   107   55   56 1    
   108   55   59 1    
   109   55  111 1    
   110   56   57 am   BACKBONE|DICT|INTERRES
   111   56   58 2    
   112   57  112 1    
   113   57  113 1    
   114   59   60 1    
   115   59  114 1    
   116   59  115 1    
   117   60   61 1    
   118   61  116 1    
   119   61  117 1    
@<TRIPOS>SUBSTRUCTURE
     1 UNK         1 GROUP             0       ****    0 ROOT    
