@<TRIPOS>MOLECULE
3R8
117   119    1
SMALL
USER_CHARGES


@<TRIPOS>ATOM
      1 CA         14.1701  -26.2732  -41.8862 C.3       0 UNK        -0.2013 
      2 C          15.4445  -26.8791  -42.4536 C.2       0 UNK         0.4866 
      3 O          16.3430  -26.1438  -42.8643 O.2       0 UNK        -0.5176 
      4 N          15.5373  -28.2149  -42.4728 N.am      1 UNK        -0.4884 
      5 CA         16.6762  -28.9884  -42.9855 C.3       1 UNK         0.0853 
      6 C6         16.2424  -30.4092  -43.4257 C.3       10 UNK        -0.0849 
      7 S7         15.2296  -30.3211  -44.9439 S.3       10 UNK        -0.2776 
      8 C8         16.4046  -30.8372  -46.2446 C.3       10 UNK         0.0316 
      9 C9         17.7321  -30.0893  -46.1808 C.ar      10 UNK        -0.0863 
     10 C10        18.8814  -30.7496  -45.7380 C.ar      10 UNK        -0.1009 
     11 C11        20.0990  -30.0724  -45.6377 C.ar      10 UNK        -0.0712 
     12 C12        20.1716  -28.7295  -46.0182 C.ar      10 UNK        -0.0894 
     13 C13        19.0355  -28.0610  -46.4850 C.ar      10 UNK        -0.0745 
     14 C14        17.8167  -28.7457  -46.5608 C.ar      10 UNK        -0.0972 
     15 C15        19.1267  -26.6101  -46.9369 C.3       10 UNK         0.0209 
     16 S16        18.9689  -25.4453  -45.5468 S.3       10 UNK        -0.2568 
     17 C17        20.7108  -25.1618  -45.0752 C.3       10 UNK        -0.0983 
     18 CA         20.8789  -24.9960  -43.5455 C.3       3 UNK         0.0876 
     19 N          20.4383  -26.1810  -42.8039 N.am      3 UNK        -0.4424 
     20 C          20.2508  -26.2334  -41.4773 C.2       2 UNK         0.4918 
     21 O          20.5338  -25.3184  -40.7036 O.2       2 UNK        -0.4875 
     22 CA         19.5746  -27.5056  -40.9460 C.3       2 UNK         0.0481 
     23 CB         19.1336  -27.3911  -39.4720 C.3       2 UNK        -0.1831 
     24 N          18.4219  -27.7946  -41.7894 N.am      2 UNK        -0.4498 
     25 C          17.8492  -28.9838  -41.9830 C.2       1 UNK         0.5027 
     26 O          18.1997  -30.0134  -41.4030 O.2       1 UNK        -0.4969 
     27 C          22.3116  -24.5622  -43.1775 C.2       3 UNK         0.5005 
     28 O          22.5123  -23.3968  -42.8312 O.2       3 UNK        -0.5279 
     29 N          23.2639  -25.5048  -43.2325 N.am      4 UNK        -0.4463 
     30 CA         24.6639  -25.3297  -42.8343 C.3       4 UNK         0.0283 
     31 CB         25.3796  -24.2235  -43.6442 C.3       4 UNK        -0.1875 
     32 C          25.4150  -26.6561  -42.9762 C.2       4 UNK         0.4949 
     33 O          25.9260  -27.1759  -41.9841 O.2       4 UNK        -0.5039 
     34 N          25.4724  -27.1674  -44.2144 N.am      5 UNK        -0.4663 
     35 CA         26.2258  -28.3575  -44.6187 C.3       5 UNK         0.0242 
     36 CB         26.1413  -28.5060  -46.1485 C.3       5 UNK        -0.1982 
     37 C          25.7400  -29.6293  -43.9038 C.2       5 UNK         0.5017 
     38 O          24.7147  -30.1857  -44.2955 O.2       5 UNK        -0.5012 
     39 N          26.4790  -30.0376  -42.8617 N.am      6 UNK        -0.4439 
     40 CA         26.1961  -31.1609  -41.9592 C.3       6 UNK         0.0297 
     41 CB         26.2738  -32.5079  -42.7110 C.3       6 UNK        -0.2006 
     42 C          24.8835  -30.9918  -41.1644 C.2       6 UNK         0.4892 
     43 O          24.2160  -31.9859  -40.8761 O.2       6 UNK        -0.5089 
     44 N          24.5415  -29.7407  -40.8199 N.am      7 UNK        -0.4243 
     45 CA         23.3548  -29.3868  -40.0388 C.3       7 UNK         0.0196 
     46 CB         23.1880  -27.8595  -40.0593 C.3       7 UNK        -0.2007 
     47 C          23.4411  -29.8914  -38.5787 C.2       7 UNK         0.5020 
     48 O          24.5310  -29.8544  -38.0067 O.2       7 UNK        -0.5147 
     49 N          22.3343  -30.2941  -37.9332 N.am      8 UNK        -0.4734 
     50 CA         21.0019  -30.5294  -38.4992 C.3       8 UNK         0.0238 
     51 CB         19.9708  -30.6097  -37.3626 C.3       8 UNK        -0.1912 
     52 C          20.9911  -31.8190  -39.3343 C.2       8 UNK         0.5038 
     53 O          21.5725  -32.8201  -38.9096 O.2       8 UNK        -0.5046 
     54 N          20.3457  -31.7600  -40.5025 N.am      9 UNK        -0.4200 
     55 CA         20.4041  -32.8061  -41.5332 C.3       9 UNK         0.0839 
     56 C          19.4288  -33.9945  -41.2985 C.2       9 UNK         0.5513 
     57 N          18.5204  -33.9318  -40.3321 N.am      9 UNK        -0.7519 
     58 O          19.5030  -34.9967  -42.0046 O.2       9 UNK        -0.4960 
     59 C59        20.2220  -32.2062  -42.9511 C.3       10 UNK        -0.0876 
     60 S60        21.3843  -30.8417  -43.3099 S.3       10 UNK        -0.2414 
     61 C61        21.3380  -30.7935  -45.1283 C.3       10 UNK         0.0169 
     62 H62        14.4041  -25.6445  -41.0275 H         1 UNK         0.0903 
     63 H63        13.4622  -27.0371  -41.5652 H         1 UNK         0.0903 
     64 H64        13.6827  -25.6543  -42.6390 H         1 UNK         0.0903 
     65 H65        14.7723  -28.7656  -42.1093 H         1 UNK         0.3096 
     66 H66        17.0573  -28.4769  -43.8721 H         1 UNK         0.1121 
     67 H67        15.6692  -30.9012  -42.6382 H         1 UNK         0.0849 
     68 H68        17.1008  -31.0538  -43.6107 H         1 UNK         0.0849 
     69 H69        16.5661  -31.9134  -46.1643 H         1 UNK         0.0865 
     70 H70        15.9454  -30.6745  -47.2207 H         1 UNK         0.0865 
     71 H71        18.8264  -31.7920  -45.4570 H         1 UNK         0.1346 
     72 H72        21.1177  -28.2107  -45.9604 H         1 UNK         0.1412 
     73 H73        16.9309  -28.2332  -46.9113 H         1 UNK         0.1426 
     74 H74        18.3320  -26.3975  -47.6537 H         1 UNK         0.0716 
     75 H75        20.0621  -26.4357  -47.4709 H         1 UNK         0.0716 
     76 H76        21.3346  -25.9768  -45.4428 H         1 UNK         0.0695 
     77 H77        21.0473  -24.2630  -45.5959 H         1 UNK         0.0695 
     78 H78        20.2247  -24.1770  -43.2364 H         1 UNK         0.0983 
     79 H79        20.1518  -26.9715  -43.3627 H         1 UNK         0.3095 
     80 H80        20.2976  -28.3171  -41.0450 H         1 UNK         0.0454 
     81 H81        18.4249  -26.5742  -39.3313 H         1 UNK         0.0851 
     82 H82        18.6546  -28.3057  -39.1231 H         1 UNK         0.0851 
     83 H83        19.9840  -27.1996  -38.8171 H         1 UNK         0.0851 
     84 H84        17.9994  -26.9961  -42.2595 H         1 UNK         0.2976 
     85 H85        22.9977  -26.4443  -43.4949 H         1 UNK         0.3116 
     86 H86        24.6810  -25.0535  -41.7779 H         1 UNK         0.0646 
     87 H87        26.4544  -24.2331  -43.4568 H         1 UNK         0.0847 
     88 H88        25.0277  -23.2294  -43.3707 H         1 UNK         0.0847 
     89 H89        25.2345  -24.3431  -44.7181 H         1 UNK         0.0847 
     90 H90        25.0075  -26.6658  -44.9571 H         1 UNK         0.3040 
     91 H91        27.2742  -28.1930  -44.3600 H         1 UNK         0.1015 
     92 H92        26.5761  -27.6451  -46.6566 H         1 UNK         0.0786 
     93 H93        25.1104  -28.6122  -46.4896 H         1 UNK         0.0786 
     94 H94        26.6872  -29.3886  -46.4847 H         1 UNK         0.0786 
     95 H95        27.2731  -29.4674  -42.6021 H         1 UNK         0.3172 
     96 H96        26.9948  -31.1568  -41.2160 H         1 UNK         0.0595 
     97 H97        26.2168  -33.3469  -42.0165 H         1 UNK         0.0839 
     98 H98        27.2113  -32.6056  -43.2582 H         1 UNK         0.0839 
     99 H99        25.4550  -32.6219  -43.4223 H         1 UNK         0.0839 
    100 H100       25.1503  -28.9782  -41.0941 H         1 UNK         0.2998 
    101 H101       22.5070  -29.8319  -40.5562 H         1 UNK         0.0822 
    102 H102       24.0665  -27.3537  -39.6561 H         1 UNK         0.0787 
    103 H103       23.0284  -27.4939  -41.0727 H         1 UNK         0.0787 
    104 H104       22.3331  -27.5466  -39.4600 H         1 UNK         0.0787 
    105 H105       22.4502  -30.6087  -36.9810 H         1 UNK         0.3055 
    106 H106       20.7340  -29.6855  -39.1333 H         1 UNK         0.1106 
    107 H107       20.1774  -31.4397  -36.6855 H         1 UNK         0.0828 
    108 H108       19.9551  -29.6918  -36.7745 H         1 UNK         0.0828 
    109 H109       18.9648  -30.7553  -37.7588 H         1 UNK         0.0828 
    110 H110       19.7897  -30.9474  -40.7512 H         1 UNK         0.2931 
    111 H111       21.4070  -33.2378  -41.5032 H         1 UNK         0.0412 
    112 H112       18.4502  -33.1099  -39.7540 H         1 UNK         0.3472 
    113 H113       17.8964  -34.7098  -40.1862 H         1 UNK         0.3472 
    114 H114       19.2061  -31.8335  -43.0714 H         1 UNK         0.0970 
    115 H115       20.3569  -32.9843  -43.7045 H         1 UNK         0.0970 
    116 H116       22.2363  -30.2865  -45.4832 H         1 UNK         0.0612 
    117 H117       21.3838  -31.8057  -45.5322 H         1 UNK         0.0612 
@<TRIPOS>BOND
     1    1    2 1    
     2    1   62 1    
     3    1   63 1    
     4    1   64 1    
     5    2    3 2    
     6    2    4 am   BACKBONE|DICT|INTERRES
     7    4    5 1    
     8    4   65 1    
     9    5    6 1    
    10    5   25 1    
    11    5   66 1    
    12    6    7 1    
    13    6   67 1    
    14    6   68 1    
    15    7    8 1    
    16    8    9 1    
    17    8   69 1    
    18    8   70 1    
    19    9   10 ar   
    20    9   14 ar   
    21   10   11 ar   
    22   10   71 1    
    23   11   12 ar   
    24   11   61 1    
    25   12   13 ar   
    26   12   72 1    
    27   13   14 ar   
    28   13   15 1    
    29   14   73 1    
    30   15   16 1    
    31   15   74 1    
    32   15   75 1    
    33   16   17 1    
    34   17   18 1    
    35   17   76 1    
    36   17   77 1    
    37   18   19 1    
    38   18   27 1    
    39   18   78 1    
    40   19   20 am   BACKBONE|DICT|INTERRES
    41   19   79 1    
    42   20   21 2    
    43   20   22 1    
    44   22   23 1    
    45   22   24 1    
    46   22   80 1    
    47   23   81 1    
    48   23   82 1    
    49   23   83 1    
    50   24   25 am   BACKBONE|DICT|INTERRES
    51   24   84 1    
    52   25   26 2    
    53   27   28 2    
    54   27   29 am   BACKBONE|DICT|INTERRES
    55   29   30 1    
    56   29   85 1    
    57   30   31 1    
    58   30   32 1    
    59   30   86 1    
    60   31   87 1    
    61   31   88 1    
    62   31   89 1    
    63   32   33 2    
    64   32   34 am   BACKBONE|DICT|INTERRES
    65   34   35 1    
    66   34   90 1    
    67   35   36 1    
    68   35   37 1    
    69   35   91 1    
    70   36   92 1    
    71   36   93 1    
    72   36   94 1    
    73   37   38 2    
    74   37   39 am   BACKBONE|DICT|INTERRES
    75   39   40 1    
    76   39   95 1    
    77   40   41 1    
    78   40   42 1    
    79   40   96 1    
    80   41   97 1    
    81   41   98 1    
    82   41   99 1    
    83   42   43 2    
    84   42   44 am   BACKBONE|DICT|INTERRES
    85   44   45 1    
    86   44  100 1    
    87   45   46 1    
    88   45   47 1    
    89   45  101 1    
    90   46  102 1    
    91   46  103 1    
    92   46  104 1    
    93   47   48 2    
    94   47   49 am   BACKBONE|DICT|INTERRES
    95   49   50 1    
    96   49  105 1    
    97   50   51 1    
    98   50   52 1    
    99   50  106 1    
   100   51  107 1    
   101   51  108 1    
   102   51  109 1    
   103   52   53 2    
   104   52   54 am   BACKBONE|DICT|INTERRES
   105   54   55 1    
   106   54  110 1    
   107   55   56 1    
   108   55   59 1    
   109   55  111 1    
   110   56   57 am   BACKBONE|DICT|INTERRES
   111   56   58 2    
   112   57  112 1    
   113   57  113 1    
   114   59   60 1    
   115   59  114 1    
   116   59  115 1    
   117   60   61 1    
   118   61  116 1    
   119   61  117 1    
@<TRIPOS>SUBSTRUCTURE
     1 UNK         1 GROUP             0       ****    0 ROOT    
