@<TRIPOS>MOLECULE
3R8
117   119    1
SMALL
USER_CHARGES


@<TRIPOS>ATOM
      1 CA         17.8619  -25.9472  -49.5200 C.3       0 UNK        -0.2013 
      2 C          19.0235  -25.6075  -48.5979 C.2       0 UNK         0.4866 
      3 O          19.7536  -24.6503  -48.8586 O.2       0 UNK        -0.5176 
      4 N          19.2044  -26.3880  -47.5261 N.am      1 UNK        -0.4884 
      5 CA         20.2354  -26.1734  -46.5052 C.3       1 UNK         0.0853 
      6 C6         20.4839  -27.4301  -45.6270 C.3       10 UNK        -0.0849 
      7 S7         20.7962  -28.9723  -46.5472 S.3       10 UNK        -0.2776 
      8 C8         19.1568  -29.7730  -46.5428 C.3       10 UNK         0.0316 
      9 C9         18.6872  -30.1830  -45.1513 C.ar      10 UNK        -0.0863 
     10 C10        19.1115  -31.3949  -44.5962 C.ar      10 UNK        -0.1009 
     11 C11        18.6194  -31.8188  -43.3577 C.ar      10 UNK        -0.0712 
     12 C12        17.7173  -31.0076  -42.6621 C.ar      10 UNK        -0.0894 
     13 C13        17.2920  -29.7885  -43.2001 C.ar      10 UNK        -0.0745 
     14 C14        17.7768  -29.3848  -44.4474 C.ar      10 UNK        -0.0972 
     15 C15        16.2519  -28.9531  -42.4640 C.3       10 UNK         0.0209 
     16 S16        16.9210  -28.1586  -40.9663 S.3       10 UNK        -0.2568 
     17 C17        17.3788  -26.4777  -41.5251 C.3       10 UNK        -0.0983 
     18 CA         18.8916  -26.1589  -41.3919 C.3       3 UNK         0.0876 
     19 N          19.2684  -25.0510  -42.2885 N.am      3 UNK        -0.4424 
     20 C          20.5063  -24.6015  -42.5386 C.2       2 UNK         0.4918 
     21 O          21.5105  -24.9872  -41.9402 O.2       2 UNK        -0.4875 
     22 CA         20.6579  -23.6160  -43.7089 C.3       2 UNK         0.0481 
     23 CB         21.8626  -22.6766  -43.5213 C.3       2 UNK        -0.1831 
     24 N          20.8401  -24.4013  -44.9287 N.am      2 UNK        -0.4498 
     25 C          19.8382  -25.0130  -45.5729 C.2       1 UNK         0.5027 
     26 O          18.6457  -24.7729  -45.3600 O.2       1 UNK        -0.4969 
     27 C          19.3456  -25.9967  -39.9158 C.2       3 UNK         0.5005 
     28 O          19.3859  -26.9855  -39.1830 O.2       3 UNK        -0.5279 
     29 N          19.7388  -24.7798  -39.5070 N.am      4 UNK        -0.4463 
     30 CA         20.4303  -24.5079  -38.2406 C.3       4 UNK         0.0283 
     31 CB         20.6157  -22.9911  -38.0758 C.3       4 UNK        -0.1875 
     32 C          21.7881  -25.2332  -38.1192 C.2       4 UNK         0.4949 
     33 O          22.1607  -25.6288  -37.0144 O.2       4 UNK        -0.5039 
     34 N          22.4823  -25.4109  -39.2517 N.am      5 UNK        -0.4663 
     35 CA         23.6843  -26.2386  -39.3865 C.3       5 UNK         0.0242 
     36 CB         24.7685  -25.4375  -40.1262 C.3       5 UNK        -0.1982 
     37 C          23.3714  -27.5417  -40.1425 C.2       5 UNK         0.5017 
     38 O          23.9053  -28.5916  -39.7825 O.2       5 UNK        -0.5012 
     39 N          22.5029  -27.4449  -41.1604 N.am      6 UNK        -0.4439 
     40 CA         22.0366  -28.5046  -42.0569 C.3       6 UNK         0.0297 
     41 CB         21.1856  -29.5374  -41.2897 C.3       6 UNK        -0.2006 
     42 C          23.1827  -29.1087  -42.8925 C.2       6 UNK         0.4892 
     43 O          24.0887  -28.3734  -43.2910 O.2       6 UNK        -0.5089 
     44 N          23.1133  -30.4154  -43.1693 N.am      7 UNK        -0.4243 
     45 CA         24.0947  -31.1634  -43.9551 C.3       7 UNK         0.0196 
     46 CB         23.5727  -31.3386  -45.3940 C.3       7 UNK        -0.2007 
     47 C          24.4050  -32.4950  -43.2580 C.2       7 UNK         0.5020 
     48 O          24.3577  -33.5500  -43.8926 O.2       7 UNK        -0.5147 
     49 N          24.6690  -32.4261  -41.9439 N.am      8 UNK        -0.4734 
     50 CA         24.9343  -33.5197  -40.9905 C.3       8 UNK         0.0238 
     51 CB         26.1739  -34.3432  -41.3932 C.3       8 UNK        -0.1912 
     52 C          23.7240  -34.4325  -40.7147 C.2       8 UNK         0.5038 
     53 O          23.4698  -34.7531  -39.5532 O.2       8 UNK        -0.5046 
     54 N          22.9921  -34.8006  -41.7722 N.am      9 UNK        -0.4200 
     55 CA         21.7108  -35.5255  -41.7619 C.3       9 UNK         0.0839 
     56 C          21.8010  -37.0125  -41.3042 C.2       9 UNK         0.5513 
     57 N          22.9793  -37.6237  -41.2742 N.am      9 UNK        -0.7519 
     58 O          20.7861  -37.6355  -41.0019 O.2       9 UNK        -0.4960 
     59 C59        20.5773  -34.7402  -41.0390 C.3       10 UNK        -0.0876 
     60 S60        20.4092  -33.0180  -41.6270 S.3       10 UNK        -0.2414 
     61 C61        19.0230  -33.1713  -42.7886 C.3       10 UNK         0.0169 
     62 H62        18.2281  -26.1479  -50.5265 H         1 UNK         0.0903 
     63 H63        17.3121  -26.8242  -49.1786 H         1 UNK         0.0903 
     64 H64        17.1665  -25.1098  -49.5708 H         1 UNK         0.0903 
     65 H65        18.5571  -27.1386  -47.3429 H         1 UNK         0.3096 
     66 H66        21.1669  -25.9117  -47.0128 H         1 UNK         0.1121 
     67 H67        21.3657  -27.2634  -45.0061 H         1 UNK         0.0849 
     68 H68        19.6664  -27.5859  -44.9243 H         1 UNK         0.0849 
     69 H69        18.4248  -29.1160  -47.0126 H         1 UNK         0.0865 
     70 H70        19.2058  -30.6580  -47.1791 H         1 UNK         0.0865 
     71 H71        19.8044  -32.0210  -45.1420 H         1 UNK         0.1346 
     72 H72        17.3310  -31.3335  -41.7058 H         1 UNK         0.1412 
     73 H73        17.4265  -28.4576  -44.8800 H         1 UNK         0.1426 
     74 H74        15.4330  -29.6081  -42.1631 H         1 UNK         0.0716 
     75 H75        15.8042  -28.2077  -43.1228 H         1 UNK         0.0716 
     76 H76        16.7826  -25.7509  -40.9703 H         1 UNK         0.0695 
     77 H77        17.0728  -26.3744  -42.5672 H         1 UNK         0.0695 
     78 H78        19.4325  -27.0282  -41.7686 H         1 UNK         0.0983 
     79 H79        18.5215  -24.6861  -42.8645 H         1 UNK         0.3095 
     80 H80        19.7562  -23.0043  -43.7830 H         1 UNK         0.0454 
     81 H81        21.9403  -21.9654  -44.3436 H         1 UNK         0.0851 
     82 H82        22.8051  -23.2229  -43.4631 H         1 UNK         0.0851 
     83 H83        21.7653  -22.0984  -42.6015 H         1 UNK         0.0851 
     84 H84        21.7910  -24.6675  -45.1434 H         1 UNK         0.2976 
     85 H85        19.6661  -24.0146  -40.1613 H         1 UNK         0.3116 
     86 H86        19.7916  -24.8653  -37.4301 H         1 UNK         0.0646 
     87 H87        21.1067  -22.7600  -37.1294 H         1 UNK         0.0847 
     88 H88        19.6581  -22.4702  -38.0766 H         1 UNK         0.0847 
     89 H89        21.2305  -22.5690  -38.8720 H         1 UNK         0.0847 
     90 H90        22.0843  -25.0565  -40.1159 H         1 UNK         0.3040 
     91 H91        24.0718  -26.5124  -38.4025 H         1 UNK         0.1015 
     92 H92        25.0406  -24.5382  -39.5736 H         1 UNK         0.0786 
     93 H93        24.4398  -25.1327  -41.1209 H         1 UNK         0.0786 
     94 H94        25.6759  -26.0305  -40.2490 H         1 UNK         0.0786 
     95 H95        22.1905  -26.5104  -41.4160 H         1 UNK         0.3172 
     96 H96        21.3770  -28.0128  -42.7708 H         1 UNK         0.0595 
     97 H97        21.7940  -30.1930  -40.6653 H         1 UNK         0.0839 
     98 H98        20.6159  -30.1559  -41.9821 H         1 UNK         0.0839 
     99 H99        20.4572  -29.0517  -40.6410 H         1 UNK         0.0839 
    100 H100       22.3427  -30.9525  -42.7940 H         1 UNK         0.2998 
    101 H101       25.0400  -30.6182  -43.9997 H         1 UNK         0.0822 
    102 H102       22.6205  -31.8701  -45.4154 H         1 UNK         0.0787 
    103 H103       23.4279  -30.3732  -45.8786 H         1 UNK         0.0787 
    104 H104       24.2795  -31.9017  -46.0049 H         1 UNK         0.0787 
    105 H105       24.6426  -31.5045  -41.5271 H         1 UNK         0.3055 
    106 H106       25.1665  -33.0301  -40.0429 H         1 UNK         0.1106 
    107 H107       26.0215  -34.8901  -42.3239 H         1 UNK         0.0828 
    108 H108       27.0490  -33.7058  -41.5187 H         1 UNK         0.0828 
    109 H109       26.4171  -35.0780  -40.6245 H         1 UNK         0.0828 
    110 H110       23.3236  -34.4949  -42.6835 H         1 UNK         0.2931 
    111 H111       21.4243  -35.5869  -42.8123 H         1 UNK         0.0412 
    112 H112       23.8170  -37.1258  -41.5297 H         1 UNK         0.3472 
    113 H113       23.0302  -38.5889  -40.9875 H         1 UNK         0.3472 
    114 H114       19.6203  -35.2510  -41.1583 H         1 UNK         0.0970 
    115 H115       20.7645  -34.7126  -39.9644 H         1 UNK         0.0970 
    116 H116       19.3022  -33.8543  -43.5924 H         1 UNK         0.0612 
    117 H117       18.1706  -33.6234  -42.2792 H         1 UNK         0.0612 
@<TRIPOS>BOND
     1    1    2 1    
     2    1   62 1    
     3    1   63 1    
     4    1   64 1    
     5    2    3 2    
     6    2    4 am   BACKBONE|DICT|INTERRES
     7    4    5 1    
     8    4   65 1    
     9    5    6 1    
    10    5   25 1    
    11    5   66 1    
    12    6    7 1    
    13    6   67 1    
    14    6   68 1    
    15    7    8 1    
    16    8    9 1    
    17    8   69 1    
    18    8   70 1    
    19    9   10 ar   
    20    9   14 ar   
    21   10   11 ar   
    22   10   71 1    
    23   11   12 ar   
    24   11   61 1    
    25   12   13 ar   
    26   12   72 1    
    27   13   14 ar   
    28   13   15 1    
    29   14   73 1    
    30   15   16 1    
    31   15   74 1    
    32   15   75 1    
    33   16   17 1    
    34   17   18 1    
    35   17   76 1    
    36   17   77 1    
    37   18   19 1    
    38   18   27 1    
    39   18   78 1    
    40   19   20 am   BACKBONE|DICT|INTERRES
    41   19   79 1    
    42   20   21 2    
    43   20   22 1    
    44   22   23 1    
    45   22   24 1    
    46   22   80 1    
    47   23   81 1    
    48   23   82 1    
    49   23   83 1    
    50   24   25 am   BACKBONE|DICT|INTERRES
    51   24   84 1    
    52   25   26 2    
    53   27   28 2    
    54   27   29 am   BACKBONE|DICT|INTERRES
    55   29   30 1    
    56   29   85 1    
    57   30   31 1    
    58   30   32 1    
    59   30   86 1    
    60   31   87 1    
    61   31   88 1    
    62   31   89 1    
    63   32   33 2    
    64   32   34 am   BACKBONE|DICT|INTERRES
    65   34   35 1    
    66   34   90 1    
    67   35   36 1    
    68   35   37 1    
    69   35   91 1    
    70   36   92 1    
    71   36   93 1    
    72   36   94 1    
    73   37   38 2    
    74   37   39 am   BACKBONE|DICT|INTERRES
    75   39   40 1    
    76   39   95 1    
    77   40   41 1    
    78   40   42 1    
    79   40   96 1    
    80   41   97 1    
    81   41   98 1    
    82   41   99 1    
    83   42   43 2    
    84   42   44 am   BACKBONE|DICT|INTERRES
    85   44   45 1    
    86   44  100 1    
    87   45   46 1    
    88   45   47 1    
    89   45  101 1    
    90   46  102 1    
    91   46  103 1    
    92   46  104 1    
    93   47   48 2    
    94   47   49 am   BACKBONE|DICT|INTERRES
    95   49   50 1    
    96   49  105 1    
    97   50   51 1    
    98   50   52 1    
    99   50  106 1    
   100   51  107 1    
   101   51  108 1    
   102   51  109 1    
   103   52   53 2    
   104   52   54 am   BACKBONE|DICT|INTERRES
   105   54   55 1    
   106   54  110 1    
   107   55   56 1    
   108   55   59 1    
   109   55  111 1    
   110   56   57 am   BACKBONE|DICT|INTERRES
   111   56   58 2    
   112   57  112 1    
   113   57  113 1    
   114   59   60 1    
   115   59  114 1    
   116   59  115 1    
   117   60   61 1    
   118   61  116 1    
   119   61  117 1    
@<TRIPOS>SUBSTRUCTURE
     1 UNK         1 GROUP             0       ****    0 ROOT    
