@<TRIPOS>MOLECULE
3R8
117   119    1
SMALL
USER_CHARGES


@<TRIPOS>ATOM
      1 CA         20.2149  -28.5328  -42.2328 C.3       0 UNK        -0.2013 
      2 C          18.8146  -27.9486  -42.1359 C.2       0 UNK         0.4866 
      3 O          18.5099  -27.2637  -41.1598 O.2       0 UNK        -0.5176 
      4 N          17.9532  -28.2163  -43.1292 N.am      1 UNK        -0.4884 
      5 CA         16.5580  -27.7477  -43.1648 C.3       1 UNK         0.0853 
      6 C6         15.7102  -28.4354  -44.2661 C.3       10 UNK        -0.0849 
      7 S7         15.7408  -30.2591  -44.1976 S.3       10 UNK        -0.2776 
      8 C8         16.4875  -30.6780  -45.8075 C.3       10 UNK         0.0316 
      9 C9         17.9910  -30.4496  -45.7967 C.ar      10 UNK        -0.0863 
     10 C10        18.8391  -31.4482  -45.3110 C.ar      10 UNK        -0.1009 
     11 C11        20.2199  -31.2423  -45.2529 C.ar      10 UNK        -0.0712 
     12 C12        20.7514  -30.0387  -45.7216 C.ar      10 UNK        -0.0894 
     13 C13        19.9130  -29.0224  -46.1948 C.ar      10 UNK        -0.0745 
     14 C14        18.5335  -29.2418  -46.2471 C.ar      10 UNK        -0.0972 
     15 C15        20.4923  -27.6726  -46.5997 C.3       10 UNK         0.0209 
     16 S16        21.4719  -26.9751  -45.2367 S.3       10 UNK        -0.2568 
     17 C17        21.6682  -25.2172  -45.6869 C.3       10 UNK        -0.0983 
     18 CA         21.2683  -24.2481  -44.5327 C.3       3 UNK         0.0876 
     19 N          19.8479  -24.3291  -44.2068 N.am      3 UNK        -0.4424 
     20 C          18.8393  -23.8899  -44.9623 C.2       2 UNK         0.4918 
     21 O          18.9926  -23.3001  -46.0330 O.2       2 UNK        -0.4875 
     22 CA         17.4294  -24.2118  -44.4455 C.3       2 UNK         0.0481 
     23 CB         16.3185  -23.8288  -45.4463 C.3       2 UNK        -0.1831 
     24 N          17.3592  -25.6362  -44.1195 N.am      2 UNK        -0.4498 
     25 C          16.4519  -26.2163  -43.3237 C.2       1 UNK         0.5027 
     26 O          15.5542  -25.6044  -42.7427 O.2       1 UNK        -0.4969 
     27 C          22.0604  -24.5043  -43.2325 C.2       3 UNK         0.5005 
     28 O          21.4527  -24.7353  -42.1813 O.2       3 UNK        -0.5279 
     29 N          23.3957  -24.5014  -43.3360 N.am      4 UNK        -0.4463 
     30 CA         24.2957  -25.0461  -42.3201 C.3       4 UNK         0.0283 
     31 CB         25.6334  -24.2808  -42.3400 C.3       4 UNK        -0.1875 
     32 C          24.4608  -26.5558  -42.5663 C.2       4 UNK         0.4949 
     33 O          23.7793  -27.3527  -41.9214 O.2       4 UNK        -0.5039 
     34 N          25.3377  -26.9130  -43.5186 N.am      5 UNK        -0.4663 
     35 CA         25.6697  -28.2781  -43.9489 C.3       5 UNK         0.0242 
     36 CB         24.4982  -28.8858  -44.7557 C.3       5 UNK        -0.1982 
     37 C          26.1472  -29.1515  -42.7705 C.2       5 UNK         0.5017 
     38 O          27.0412  -28.7289  -42.0348 O.2       5 UNK        -0.5012 
     39 N          25.5461  -30.3366  -42.6035 N.am      6 UNK        -0.4439 
     40 CA         25.7960  -31.2522  -41.4883 C.3       6 UNK         0.0297 
     41 CB         25.3664  -32.6697  -41.9034 C.3       6 UNK        -0.2006 
     42 C          25.0833  -30.8402  -40.1858 C.2       6 UNK         0.4892 
     43 O          25.3785  -31.4286  -39.1443 O.2       6 UNK        -0.5089 
     44 N          24.1491  -29.8775  -40.2624 N.am      7 UNK        -0.4243 
     45 CA         23.2589  -29.3596  -39.2139 C.3       7 UNK         0.0196 
     46 CB         24.0494  -28.7127  -38.0601 C.3       7 UNK        -0.2007 
     47 C          22.2427  -30.3915  -38.6965 C.2       7 UNK         0.5020 
     48 O          21.0391  -30.1387  -38.7464 O.2       7 UNK        -0.5147 
     49 N          22.7282  -31.5518  -38.2433 N.am      8 UNK        -0.4734 
     50 CA         21.9482  -32.6850  -37.7401 C.3       8 UNK         0.0238 
     51 CB         22.8380  -33.5111  -36.7921 C.3       8 UNK        -0.1912 
     52 C          21.3432  -33.5340  -38.8779 C.2       8 UNK         0.5038 
     53 O          21.4796  -34.7591  -38.8728 O.2       8 UNK        -0.5046 
     54 N          20.6892  -32.8675  -39.8357 N.am      9 UNK        -0.4200 
     55 CA         19.9869  -33.4848  -40.9710 C.3       9 UNK         0.0839 
     56 C          18.6188  -34.1297  -40.5999 C.2       9 UNK         0.5513 
     57 N          18.0673  -33.8977  -39.4142 N.am      9 UNK        -0.7519 
     58 O          18.0505  -34.8632  -41.4044 O.2       9 UNK        -0.4960 
     59 C59        19.8289  -32.4897  -42.1488 C.3       10 UNK        -0.0876 
     60 S60        21.4307  -31.9963  -42.8778 S.3       10 UNK        -0.2414 
     61 C61        21.1379  -32.2987  -44.6531 C.3       10 UNK         0.0169 
     62 H62        20.9570  -27.7341  -42.2358 H         1 UNK         0.0903 
     63 H63        20.4156  -29.1786  -41.3786 H         1 UNK         0.0903 
     64 H64        20.3478  -29.1199  -43.1390 H         1 UNK         0.0903 
     65 H65        18.2361  -28.8178  -43.8927 H         1 UNK         0.3096 
     66 H66        16.1117  -27.9965  -42.1991 H         1 UNK         0.1121 
     67 H67        14.6657  -28.1310  -44.1711 H         1 UNK         0.0849 
     68 H68        16.0188  -28.1004  -45.2570 H         1 UNK         0.0849 
     69 H69        16.2786  -31.7259  -46.0287 H         1 UNK         0.0865 
     70 H70        16.0118  -30.1042  -46.6044 H         1 UNK         0.0865 
     71 H71        18.4160  -32.3787  -44.9598 H         1 UNK         0.1346 
     72 H72        21.8181  -29.8712  -45.6705 H         1 UNK         0.1412 
     73 H73        17.8810  -28.4647  -46.6207 H         1 UNK         0.1426 
     74 H74        21.1237  -27.7907  -47.4810 H         1 UNK         0.0716 
     75 H75        19.6972  -26.9744  -46.8658 H         1 UNK         0.0716 
     76 H76        22.7061  -25.0573  -45.9820 H         1 UNK         0.0695 
     77 H77        21.0811  -25.0013  -46.5802 H         1 UNK         0.0695 
     78 H78        21.4845  -23.2228  -44.8404 H         1 UNK         0.0983 
     79 H79        19.6692  -24.7491  -43.3018 H         1 UNK         0.3095 
     80 H80        17.2879  -23.6337  -43.5302 H         1 UNK         0.0454 
     81 H81        16.4054  -24.3915  -46.3763 H         1 UNK         0.0851 
     82 H82        15.3260  -24.0123  -45.0354 H         1 UNK         0.0851 
     83 H83        16.3676  -22.7689  -45.6987 H         1 UNK         0.0851 
     84 H84        18.0803  -26.2171  -44.5256 H         1 UNK         0.2976 
     85 H85        23.8044  -24.3127  -44.2400 H         1 UNK         0.3116 
     86 H86        23.8597  -24.9202  -41.3264 H         1 UNK         0.0646 
     87 H87        26.3512  -24.7323  -41.6534 H         1 UNK         0.0847 
     88 H88        25.4938  -23.2473  -42.0223 H         1 UNK         0.0847 
     89 H89        26.0914  -24.2591  -43.3291 H         1 UNK         0.0847 
     90 H90        25.8697  -26.1800  -43.9653 H         1 UNK         0.3040 
     91 H91        26.5246  -28.1933  -44.6217 H         1 UNK         0.1015 
     92 H92        24.7604  -29.8572  -45.1767 H         1 UNK         0.0786 
     93 H93        24.2341  -28.2437  -45.5960 H         1 UNK         0.0786 
     94 H94        23.6015  -29.0109  -44.1468 H         1 UNK         0.0786 
     95 H95        24.8182  -30.5992  -43.2528 H         1 UNK         0.3172 
     96 H96        26.8684  -31.2693  -41.2823 H         1 UNK         0.0595 
     97 H97        25.5851  -33.3910  -41.1145 H         1 UNK         0.0839 
     98 H98        25.8957  -33.0013  -42.7968 H         1 UNK         0.0839 
     99 H99        24.2962  -32.7265  -42.1048 H         1 UNK         0.0839 
    100 H100       24.0183  -29.4312  -41.1627 H         1 UNK         0.2998 
    101 H101       22.6790  -28.5676  -39.6912 H         1 UNK         0.0822 
    102 H102       24.7098  -27.9276  -38.4287 H         1 UNK         0.0787 
    103 H103       23.3737  -28.2551  -37.3365 H         1 UNK         0.0787 
    104 H104       24.6593  -29.4370  -37.5197 H         1 UNK         0.0787 
    105 H105       23.7344  -31.6847  -38.3246 H         1 UNK         0.3055 
    106 H106       21.1099  -32.2983  -37.1562 H         1 UNK         0.1106 
    107 H107       23.2170  -32.9012  -35.9719 H         1 UNK         0.0828 
    108 H108       22.2796  -34.3359  -36.3472 H         1 UNK         0.0828 
    109 H109       23.6942  -33.9390  -37.3153 H         1 UNK         0.0828 
    110 H110       20.6240  -31.8596  -39.7499 H         1 UNK         0.2931 
    111 H111       20.6084  -34.3087  -41.3281 H         1 UNK         0.0412 
    112 H112       17.1834  -34.3271  -39.1887 H         1 UNK         0.3472 
    113 H113       18.5199  -33.2948  -38.7465 H         1 UNK         0.3472 
    114 H114       19.2938  -31.5930  -41.8317 H         1 UNK         0.0970 
    115 H115       19.2171  -32.9430  -42.9282 H         1 UNK         0.0970 
    116 H116       22.0975  -32.2886  -45.1720 H         1 UNK         0.0612 
    117 H117       20.7247  -33.2982  -44.7968 H         1 UNK         0.0612 
@<TRIPOS>BOND
     1    1    2 1    
     2    1   62 1    
     3    1   63 1    
     4    1   64 1    
     5    2    3 2    
     6    2    4 am   BACKBONE|DICT|INTERRES
     7    4    5 1    
     8    4   65 1    
     9    5    6 1    
    10    5   25 1    
    11    5   66 1    
    12    6    7 1    
    13    6   67 1    
    14    6   68 1    
    15    7    8 1    
    16    8    9 1    
    17    8   69 1    
    18    8   70 1    
    19    9   10 ar   
    20    9   14 ar   
    21   10   11 ar   
    22   10   71 1    
    23   11   12 ar   
    24   11   61 1    
    25   12   13 ar   
    26   12   72 1    
    27   13   14 ar   
    28   13   15 1    
    29   14   73 1    
    30   15   16 1    
    31   15   74 1    
    32   15   75 1    
    33   16   17 1    
    34   17   18 1    
    35   17   76 1    
    36   17   77 1    
    37   18   19 1    
    38   18   27 1    
    39   18   78 1    
    40   19   20 am   BACKBONE|DICT|INTERRES
    41   19   79 1    
    42   20   21 2    
    43   20   22 1    
    44   22   23 1    
    45   22   24 1    
    46   22   80 1    
    47   23   81 1    
    48   23   82 1    
    49   23   83 1    
    50   24   25 am   BACKBONE|DICT|INTERRES
    51   24   84 1    
    52   25   26 2    
    53   27   28 2    
    54   27   29 am   BACKBONE|DICT|INTERRES
    55   29   30 1    
    56   29   85 1    
    57   30   31 1    
    58   30   32 1    
    59   30   86 1    
    60   31   87 1    
    61   31   88 1    
    62   31   89 1    
    63   32   33 2    
    64   32   34 am   BACKBONE|DICT|INTERRES
    65   34   35 1    
    66   34   90 1    
    67   35   36 1    
    68   35   37 1    
    69   35   91 1    
    70   36   92 1    
    71   36   93 1    
    72   36   94 1    
    73   37   38 2    
    74   37   39 am   BACKBONE|DICT|INTERRES
    75   39   40 1    
    76   39   95 1    
    77   40   41 1    
    78   40   42 1    
    79   40   96 1    
    80   41   97 1    
    81   41   98 1    
    82   41   99 1    
    83   42   43 2    
    84   42   44 am   BACKBONE|DICT|INTERRES
    85   44   45 1    
    86   44  100 1    
    87   45   46 1    
    88   45   47 1    
    89   45  101 1    
    90   46  102 1    
    91   46  103 1    
    92   46  104 1    
    93   47   48 2    
    94   47   49 am   BACKBONE|DICT|INTERRES
    95   49   50 1    
    96   49  105 1    
    97   50   51 1    
    98   50   52 1    
    99   50  106 1    
   100   51  107 1    
   101   51  108 1    
   102   51  109 1    
   103   52   53 2    
   104   52   54 am   BACKBONE|DICT|INTERRES
   105   54   55 1    
   106   54  110 1    
   107   55   56 1    
   108   55   59 1    
   109   55  111 1    
   110   56   57 am   BACKBONE|DICT|INTERRES
   111   56   58 2    
   112   57  112 1    
   113   57  113 1    
   114   59   60 1    
   115   59  114 1    
   116   59  115 1    
   117   60   61 1    
   118   61  116 1    
   119   61  117 1    
@<TRIPOS>SUBSTRUCTURE
     1 UNK         1 GROUP             0       ****    0 ROOT    
