@<TRIPOS>MOLECULE
3R8
117   119    1
SMALL
USER_CHARGES


@<TRIPOS>ATOM
      1 CA         19.2737  -26.2385  -41.6763 C.3       0 UNK        -0.2013 
      2 C          18.3125  -25.4008  -42.4969 C.2       0 UNK         0.4866 
      3 O          18.3911  -24.1726  -42.4708 O.2       0 UNK        -0.5176 
      4 N          17.4067  -26.0568  -43.2337 N.am      1 UNK        -0.4884 
      5 CA         16.4205  -25.3923  -44.0942 C.3       1 UNK         0.0853 
      6 C6         15.1641  -26.2720  -44.3160 C.3       10 UNK        -0.0849 
      7 S7         15.4097  -27.7454  -45.3720 S.3       10 UNK        -0.2776 
      8 C8         15.5803  -29.1011  -44.1663 C.3       10 UNK         0.0316 
      9 C9         17.0316  -29.5242  -43.9805 C.ar      10 UNK        -0.0863 
     10 C10        17.6363  -29.4724  -42.7188 C.ar      10 UNK        -0.1009 
     11 C11        18.9418  -29.9431  -42.5411 C.ar      10 UNK        -0.0712 
     12 C12        19.6442  -30.4474  -43.6372 C.ar      10 UNK        -0.0894 
     13 C13        19.0590  -30.4956  -44.9038 C.ar      10 UNK        -0.0745 
     14 C14        17.7506  -30.0349  -45.0680 C.ar      10 UNK        -0.0972 
     15 C15        19.8239  -31.0935  -46.0784 C.3       10 UNK         0.0209 
     16 S16        20.5037  -29.8281  -47.2008 S.3       10 UNK        -0.2568 
     17 C17        21.7616  -29.0196  -46.1529 C.3       10 UNK        -0.0983 
     18 CA         21.8905  -27.4958  -46.4221 C.3       3 UNK         0.0876 
     19 N          20.5931  -26.8095  -46.4325 N.am      3 UNK        -0.4424 
     20 C          20.3740  -25.5948  -46.9596 C.2       2 UNK         0.4918 
     21 O          21.2582  -24.8679  -47.4116 O.2       2 UNK        -0.4875 
     22 CA         18.9190  -25.1136  -47.0282 C.3       2 UNK         0.0481 
     23 CB         18.2168  -25.6938  -48.2713 C.3       2 UNK        -0.1831 
     24 N          18.1819  -25.4501  -45.8119 N.am      2 UNK        -0.4498 
     25 C          17.0327  -24.8833  -45.4186 C.2       1 UNK         0.5027 
     26 O          16.4553  -23.9942  -46.0471 O.2       1 UNK        -0.4969 
     27 C          22.8847  -26.8213  -45.4527 C.2       3 UNK         0.5005 
     28 O          23.7782  -26.0981  -45.8964 O.2       3 UNK        -0.5279 
     29 N          22.7046  -27.0675  -44.1494 N.am      4 UNK        -0.4463 
     30 CA         23.4986  -26.5485  -43.0394 C.3       4 UNK         0.0283 
     31 CB         24.9337  -27.1128  -43.0642 C.3       4 UNK        -0.1875 
     32 C          22.8015  -26.9739  -41.7466 C.2       4 UNK         0.4949 
     33 O          22.2536  -28.0764  -41.6933 O.2       4 UNK        -0.5039 
     34 N          22.8545  -26.1240  -40.7163 N.am      5 UNK        -0.4663 
     35 CA         22.3152  -26.4049  -39.3817 C.3       5 UNK         0.0242 
     36 CB         21.8822  -25.0788  -38.7274 C.3       5 UNK        -0.1982 
     37 C          23.3514  -27.1738  -38.5419 C.2       5 UNK         0.5017 
     38 O          23.8375  -26.6582  -37.5333 O.2       5 UNK        -0.5012 
     39 N          23.7101  -28.3740  -39.0086 N.am      6 UNK        -0.4439 
     40 CA         24.7561  -29.2262  -38.4497 C.3       6 UNK         0.0297 
     41 CB         26.1481  -28.6921  -38.8626 C.3       6 UNK        -0.2006 
     42 C          24.5014  -30.6833  -38.8682 C.2       6 UNK         0.4892 
     43 O          23.3439  -31.0800  -39.0295 O.2       6 UNK        -0.5089 
     44 N          25.5828  -31.4527  -39.0612 N.am      7 UNK        -0.4243 
     45 CA         25.6107  -32.8825  -39.4028 C.3       7 UNK         0.0196 
     46 CB         27.0758  -33.3498  -39.4402 C.3       7 UNK        -0.2007 
     47 C          24.8841  -33.2839  -40.7031 C.2       7 UNK         0.5020 
     48 O          24.6941  -34.4779  -40.9357 O.2       7 UNK        -0.5147 
     49 N          24.4638  -32.3005  -41.5111 N.am      8 UNK        -0.4734 
     50 CA         23.5722  -32.4745  -42.6600 C.3       8 UNK         0.0238 
     51 CB         23.4749  -31.1479  -43.4307 C.3       8 UNK        -0.1912 
     52 C          22.1707  -32.9961  -42.2779 C.2       8 UNK         0.5038 
     53 O          21.5220  -33.6083  -43.1268 O.2       8 UNK        -0.5046 
     54 N          21.7402  -32.7790  -41.0258 N.am      9 UNK        -0.4200 
     55 CA         20.5511  -33.4166  -40.4388 C.3       9 UNK         0.0839 
     56 C          20.6593  -33.7092  -38.9159 C.2       9 UNK         0.5513 
     57 N          21.6206  -33.1592  -38.1830 N.am      9 UNK        -0.7519 
     58 O          19.8648  -34.4841  -38.3892 O.2       9 UNK        -0.4960 
     59 C59        19.2156  -32.7359  -40.8485 C.3       10 UNK        -0.0876 
     60 S60        18.8686  -31.1400  -40.0249 S.3       10 UNK        -0.2414 
     61 C61        19.6003  -29.9307  -41.1678 C.3       10 UNK         0.0169 
     62 H62        18.7758  -26.6276  -40.7889 H         1 UNK         0.0903 
     63 H63        19.6612  -27.0712  -42.2615 H         1 UNK         0.0903 
     64 H64        20.1174  -25.6313  -41.3534 H         1 UNK         0.0903 
     65 H65        17.3802  -27.0678  -43.2312 H         1 UNK         0.3096 
     66 H66        16.0795  -24.4972  -43.5677 H         1 UNK         0.1121 
     67 H67        14.7453  -26.5698  -43.3539 H         1 UNK         0.0849 
     68 H68        14.3841  -25.6695  -44.7855 H         1 UNK         0.0849 
     69 H69        15.1208  -28.8316  -43.2145 H         1 UNK         0.0865 
     70 H70        15.0175  -29.9603  -44.5341 H         1 UNK         0.0865 
     71 H71        17.0847  -29.1028  -41.8647 H         1 UNK         0.1346 
     72 H72        20.6459  -30.8232  -43.4986 H         1 UNK         0.1412 
     73 H73        17.2839  -30.0886  -46.0425 H         1 UNK         0.1426 
     74 H74        19.1566  -31.7421  -46.6477 H         1 UNK         0.0716 
     75 H75        20.6349  -31.7327  -45.7249 H         1 UNK         0.0716 
     76 H76        22.7179  -29.5149  -46.3306 H         1 UNK         0.0695 
     77 H77        21.5173  -29.2067  -45.1095 H         1 UNK         0.0695 
     78 H78        22.3124  -27.3884  -47.4244 H         1 UNK         0.0983 
     79 H79        19.8046  -27.3784  -46.1645 H         1 UNK         0.3095 
     80 H80        18.9448  -24.0256  -47.1206 H         1 UNK         0.0454 
     81 H81        18.7856  -25.4808  -49.1773 H         1 UNK         0.0851 
     82 H82        17.2246  -25.2642  -48.4084 H         1 UNK         0.0851 
     83 H83        18.1043  -26.7764  -48.2022 H         1 UNK         0.0851 
     84 H84        18.6025  -26.1256  -45.1918 H         1 UNK         0.2976 
     85 H85        21.9516  -27.6754  -43.8521 H         1 UNK         0.3116 
     86 H86        23.5225  -25.4586  -43.0998 H         1 UNK         0.0646 
     87 H87        24.9365  -28.2034  -43.0569 H         1 UNK         0.0847 
     88 H88        25.4834  -26.7833  -43.9455 H         1 UNK         0.0847 
     89 H89        25.5005  -26.7802  -42.1935 H         1 UNK         0.0847 
     90 H90        23.3616  -25.2563  -40.8223 H         1 UNK         0.3040 
     91 H91        21.4291  -27.0389  -39.4663 H         1 UNK         0.1015 
     92 H92        21.1182  -24.5738  -39.3184 H         1 UNK         0.0786 
     93 H93        21.4597  -25.2529  -37.7368 H         1 UNK         0.0786 
     94 H94        22.7210  -24.3919  -38.6084 H         1 UNK         0.0786 
     95 H95        23.2239  -28.7423  -39.8198 H         1 UNK         0.3172 
     96 H96        24.6801  -29.2011  -37.3609 H         1 UNK         0.0595 
     97 H97        26.3044  -28.7611  -39.9401 H         1 UNK         0.0839 
     98 H98        26.9530  -29.2376  -38.3690 H         1 UNK         0.0839 
     99 H99        26.2717  -27.6461  -38.5815 H         1 UNK         0.0839 
    100 H100       26.4855  -31.0212  -38.9246 H         1 UNK         0.2998 
    101 H101       25.1050  -33.4127  -38.5930 H         1 UNK         0.0822 
    102 H102       27.1430  -34.4190  -39.6470 H         1 UNK         0.0787 
    103 H103       27.5735  -33.1778  -38.4856 H         1 UNK         0.0787 
    104 H104       27.6432  -32.8323  -40.2149 H         1 UNK         0.0787 
    105 H105       24.6691  -31.3516  -41.2362 H         1 UNK         0.3055 
    106 H106       24.0229  -33.2212  -43.3176 H         1 UNK         0.1106 
    107 H107       23.0156  -30.3632  -42.8294 H         1 UNK         0.0828 
    108 H108       24.4574  -30.7973  -43.7469 H         1 UNK         0.0828 
    109 H109       22.8744  -31.2687  -44.3328 H         1 UNK         0.0828 
    110 H110       22.3229  -32.2475  -40.3899 H         1 UNK         0.2931 
    111 H111       20.5168  -34.4188  -40.8716 H         1 UNK         0.0412 
    112 H112       21.6624  -33.3880  -37.2029 H         1 UNK         0.3472 
    113 H113       22.2452  -32.4474  -38.5497 H         1 UNK         0.3472 
    114 H114       19.1682  -32.6175  -41.9307 H         1 UNK         0.0970 
    115 H115       18.3870  -33.4038  -40.6072 H         1 UNK         0.0970 
    116 H116       20.6694  -30.1303  -41.2464 H         1 UNK         0.0612 
    117 H117       19.5090  -28.9400  -40.7249 H         1 UNK         0.0612 
@<TRIPOS>BOND
     1    1    2 1    
     2    1   62 1    
     3    1   63 1    
     4    1   64 1    
     5    2    3 2    
     6    2    4 am   BACKBONE|DICT|INTERRES
     7    4    5 1    
     8    4   65 1    
     9    5    6 1    
    10    5   25 1    
    11    5   66 1    
    12    6    7 1    
    13    6   67 1    
    14    6   68 1    
    15    7    8 1    
    16    8    9 1    
    17    8   69 1    
    18    8   70 1    
    19    9   10 ar   
    20    9   14 ar   
    21   10   11 ar   
    22   10   71 1    
    23   11   12 ar   
    24   11   61 1    
    25   12   13 ar   
    26   12   72 1    
    27   13   14 ar   
    28   13   15 1    
    29   14   73 1    
    30   15   16 1    
    31   15   74 1    
    32   15   75 1    
    33   16   17 1    
    34   17   18 1    
    35   17   76 1    
    36   17   77 1    
    37   18   19 1    
    38   18   27 1    
    39   18   78 1    
    40   19   20 am   BACKBONE|DICT|INTERRES
    41   19   79 1    
    42   20   21 2    
    43   20   22 1    
    44   22   23 1    
    45   22   24 1    
    46   22   80 1    
    47   23   81 1    
    48   23   82 1    
    49   23   83 1    
    50   24   25 am   BACKBONE|DICT|INTERRES
    51   24   84 1    
    52   25   26 2    
    53   27   28 2    
    54   27   29 am   BACKBONE|DICT|INTERRES
    55   29   30 1    
    56   29   85 1    
    57   30   31 1    
    58   30   32 1    
    59   30   86 1    
    60   31   87 1    
    61   31   88 1    
    62   31   89 1    
    63   32   33 2    
    64   32   34 am   BACKBONE|DICT|INTERRES
    65   34   35 1    
    66   34   90 1    
    67   35   36 1    
    68   35   37 1    
    69   35   91 1    
    70   36   92 1    
    71   36   93 1    
    72   36   94 1    
    73   37   38 2    
    74   37   39 am   BACKBONE|DICT|INTERRES
    75   39   40 1    
    76   39   95 1    
    77   40   41 1    
    78   40   42 1    
    79   40   96 1    
    80   41   97 1    
    81   41   98 1    
    82   41   99 1    
    83   42   43 2    
    84   42   44 am   BACKBONE|DICT|INTERRES
    85   44   45 1    
    86   44  100 1    
    87   45   46 1    
    88   45   47 1    
    89   45  101 1    
    90   46  102 1    
    91   46  103 1    
    92   46  104 1    
    93   47   48 2    
    94   47   49 am   BACKBONE|DICT|INTERRES
    95   49   50 1    
    96   49  105 1    
    97   50   51 1    
    98   50   52 1    
    99   50  106 1    
   100   51  107 1    
   101   51  108 1    
   102   51  109 1    
   103   52   53 2    
   104   52   54 am   BACKBONE|DICT|INTERRES
   105   54   55 1    
   106   54  110 1    
   107   55   56 1    
   108   55   59 1    
   109   55  111 1    
   110   56   57 am   BACKBONE|DICT|INTERRES
   111   56   58 2    
   112   57  112 1    
   113   57  113 1    
   114   59   60 1    
   115   59  114 1    
   116   59  115 1    
   117   60   61 1    
   118   61  116 1    
   119   61  117 1    
@<TRIPOS>SUBSTRUCTURE
     1 UNK         1 GROUP             0       ****    0 ROOT    
