@<TRIPOS>MOLECULE
3R8
117   119    1
SMALL
USER_CHARGES


@<TRIPOS>ATOM
      1 CA         14.9076  -24.3976  -40.9641 C.3       0 UNK        -0.2013 
      2 C          15.5728  -24.3352  -42.3311 C.2       0 UNK         0.4866 
      3 O          15.8063  -23.2426  -42.8495 O.2       0 UNK        -0.5176 
      4 N          15.8708  -25.4985  -42.9223 N.am      1 UNK        -0.4884 
      5 CA         16.5647  -25.6295  -44.2075 C.3       1 UNK         0.0853 
      6 C6         16.4813  -27.0744  -44.7553 C.3       10 UNK        -0.0849 
      7 S7         14.7848  -27.5703  -45.2082 S.3       10 UNK        -0.2776 
      8 C8         14.7385  -29.3220  -44.6752 C.3       10 UNK         0.0316 
      9 C9         15.8935  -30.1913  -45.1811 C.ar      10 UNK        -0.0863 
     10 C10        16.3278  -31.2667  -44.3959 C.ar      10 UNK        -0.1009 
     11 C11        17.4023  -32.0630  -44.8049 C.ar      10 UNK        -0.0712 
     12 C12        18.0483  -31.7763  -46.0091 C.ar      10 UNK        -0.0894 
     13 C13        17.6463  -30.6914  -46.7896 C.ar      10 UNK        -0.0745 
     14 C14        16.5434  -29.9305  -46.3956 C.ar      10 UNK        -0.0972 
     15 C15        18.4752  -30.2823  -47.9981 C.3       10 UNK         0.0209 
     16 S16        19.5099  -28.8135  -47.6487 S.3       10 UNK        -0.2568 
     17 C17        20.1762  -29.1751  -45.9811 C.3       10 UNK        -0.0983 
     18 CA         21.0652  -28.0552  -45.3848 C.3       3 UNK         0.0876 
     19 N          20.4240  -26.7433  -45.5016 N.am      3 UNK        -0.4424 
     20 C          20.9740  -25.5542  -45.2231 C.2       2 UNK         0.4918 
     21 O          22.1504  -25.4007  -44.8966 O.2       2 UNK        -0.4875 
     22 CA         20.0371  -24.3300  -45.2942 C.3       2 UNK         0.0481 
     23 CB         20.2631  -23.5604  -46.6051 C.3       2 UNK        -0.1831 
     24 N          18.6095  -24.6628  -45.1668 N.am      2 UNK        -0.4498 
     25 C          18.0462  -25.2217  -44.0845 C.2       1 UNK         0.5027 
     26 O          18.6745  -25.5029  -43.0618 O.2       1 UNK        -0.4969 
     27 C          21.4228  -28.4212  -43.9246 C.2       3 UNK         0.5005 
     28 O          22.2968  -29.2640  -43.7134 O.2       3 UNK        -0.5279 
     29 N          20.7398  -27.8135  -42.9397 N.am      4 UNK        -0.4463 
     30 CA         20.9568  -28.0274  -41.5084 C.3       4 UNK         0.0283 
     31 CB         19.6596  -27.7065  -40.7430 C.3       4 UNK        -0.1875 
     32 C          22.1650  -27.2190  -41.0035 C.2       4 UNK         0.4949 
     33 O          22.0119  -26.2939  -40.2043 O.2       4 UNK        -0.5039 
     34 N          23.3481  -27.5813  -41.5019 N.am      5 UNK        -0.4663 
     35 CA         24.6466  -27.0158  -41.1538 C.3       5 UNK         0.0242 
     36 CB         25.0338  -25.9641  -42.2080 C.3       5 UNK        -0.1982 
     37 C          25.6742  -28.1529  -41.1006 C.2       5 UNK         0.5017 
     38 O          25.3994  -29.2467  -41.5994 O.2       5 UNK        -0.5012 
     39 N          26.8361  -27.8808  -40.4881 N.am      6 UNK        -0.4439 
     40 CA         27.9916  -28.7849  -40.3536 C.3       6 UNK         0.0297 
     41 CB         28.6739  -28.9858  -41.7240 C.3       6 UNK        -0.2006 
     42 C          27.6703  -30.1257  -39.6548 C.2       6 UNK         0.4892 
     43 O          28.2999  -31.1406  -39.9578 O.2       6 UNK        -0.5089 
     44 N          26.6898  -30.0963  -38.7384 N.am      7 UNK        -0.4243 
     45 CA         26.1373  -31.2281  -37.9834 C.3       7 UNK         0.0196 
     46 CB         27.1896  -31.8084  -37.0128 C.3       7 UNK        -0.2007 
     47 C          25.4707  -32.3084  -38.8642 C.2       7 UNK         0.5020 
     48 O          25.4567  -33.4781  -38.4766 O.2       7 UNK        -0.5147 
     49 N          24.9210  -31.9079  -40.0210 N.am      8 UNK        -0.4734 
     50 CA         24.1303  -32.7622  -40.9105 C.3       8 UNK         0.0238 
     51 CB         24.2811  -32.2632  -42.3630 C.3       8 UNK        -0.1912 
     52 C          22.6697  -32.8384  -40.4202 C.2       8 UNK         0.5038 
     53 O          22.4126  -33.4532  -39.3835 O.2       8 UNK        -0.5046 
     54 N          21.7373  -32.2404  -41.1719 N.am      9 UNK        -0.4200 
     55 CA         20.3020  -32.1785  -40.8520 C.3       9 UNK         0.0839 
     56 C          19.9832  -31.2937  -39.6127 C.2       9 UNK         0.5513 
     57 N          18.7778  -31.4050  -39.0715 N.am      9 UNK        -0.7519 
     58 O          20.7983  -30.5005  -39.1467 O.2       9 UNK        -0.4960 
     59 C59        19.4728  -31.7608  -42.0963 C.3       10 UNK        -0.0876 
     60 S60        19.6209  -33.0010  -43.4278 S.3       10 UNK        -0.2414 
     61 C61        17.8878  -33.2237  -43.9478 C.3       10 UNK         0.0169 
     62 H62        15.5283  -23.8956  -40.2223 H         1 UNK         0.0903 
     63 H63        13.9400  -23.8973  -40.9943 H         1 UNK         0.0903 
     64 H64        14.7484  -25.4240  -40.6341 H         1 UNK         0.0903 
     65 H65        15.6642  -26.3654  -42.4480 H         1 UNK         0.3096 
     66 H66        16.0836  -24.9545  -44.9194 H         1 UNK         0.1121 
     67 H67        17.0905  -27.1813  -45.6550 H         1 UNK         0.0849 
     68 H68        16.8899  -27.7804  -44.0287 H         1 UNK         0.0849 
     69 H69        14.7133  -29.3388  -43.5844 H         1 UNK         0.0865 
     70 H70        13.7991  -29.7634  -45.0103 H         1 UNK         0.0865 
     71 H71        15.8338  -31.4795  -43.4574 H         1 UNK         0.1346 
     72 H72        18.9028  -32.3679  -46.3085 H         1 UNK         0.1412 
     73 H73        16.2360  -29.0973  -47.0118 H         1 UNK         0.1426 
     74 H74        17.8177  -30.0660  -48.8413 H         1 UNK         0.0716 
     75 H75        19.1219  -31.1020  -48.3151 H         1 UNK         0.0716 
     76 H76        20.7283  -30.1159  -46.0284 H         1 UNK         0.0695 
     77 H77        19.3319  -29.3471  -45.3111 H         1 UNK         0.0695 
     78 H78        21.9998  -28.0154  -45.9482 H         1 UNK         0.0983 
     79 H79        19.4680  -26.7580  -45.8210 H         1 UNK         0.3095 
     80 H80        20.2990  -23.6726  -44.4627 H         1 UNK         0.0454 
     81 H81        21.3099  -23.2725  -46.7129 H         1 UNK         0.0851 
     82 H82        19.6741  -22.6436  -46.6354 H         1 UNK         0.0851 
     83 H83        19.9998  -24.1599  -47.4774 H         1 UNK         0.0851 
     84 H84        18.0318  -24.4685  -45.9730 H         1 UNK         0.2976 
     85 H85        20.0718  -27.0891  -43.1798 H         1 UNK         0.3116 
     86 H86        21.1860  -29.0810  -41.3449 H         1 UNK         0.0646 
     87 H87        19.3858  -26.6547  -40.8273 H         1 UNK         0.0847 
     88 H88        18.8234  -28.3034  -41.1071 H         1 UNK         0.0847 
     89 H89        19.7744  -27.9248  -39.6807 H         1 UNK         0.0847 
     90 H90        23.3826  -28.3698  -42.1431 H         1 UNK         0.3040 
     91 H91        24.5977  -26.5506  -40.1666 H         1 UNK         0.1015 
     92 H92        25.9956  -25.5048  -41.9766 H         1 UNK         0.0786 
     93 H93        24.2957  -25.1629  -42.2559 H         1 UNK         0.0786 
     94 H94        25.1103  -26.4032  -43.2038 H         1 UNK         0.0786 
     95 H95        26.9611  -26.9577  -40.0940 H         1 UNK         0.3172 
     96 H96        28.7038  -28.2738  -39.7042 H         1 UNK         0.0595 
     97 H97        28.0397  -29.5470  -42.4113 H         1 UNK         0.0839 
     98 H98        29.6092  -29.5375  -41.6212 H         1 UNK         0.0839 
     99 H99        28.9141  -28.0316  -42.1926 H         1 UNK         0.0839 
    100 H100       26.2438  -29.2050  -38.5725 H         1 UNK         0.2998 
    101 H101       25.3319  -30.8140  -37.3749 H         1 UNK         0.0822 
    102 H102       26.7409  -32.5399  -36.3395 H         1 UNK         0.0787 
    103 H103       27.6302  -31.0286  -36.3918 H         1 UNK         0.0787 
    104 H104       27.9978  -32.3112  -37.5448 H         1 UNK         0.0787 
    105 H105       25.0122  -30.9366  -40.2970 H         1 UNK         0.3055 
    106 H106       24.5264  -33.7797  -40.8731 H         1 UNK         0.1106 
    107 H107       25.3265  -32.2751  -42.6721 H         1 UNK         0.0828 
    108 H108       23.7359  -32.9026  -43.0588 H         1 UNK         0.0828 
    109 H109       23.9168  -31.2437  -42.4933 H         1 UNK         0.0828 
    110 H110       22.0266  -31.7522  -42.0064 H         1 UNK         0.2931 
    111 H111       19.9998  -33.1920  -40.5791 H         1 UNK         0.0412 
    112 H112       18.5497  -30.8380  -38.2697 H         1 UNK         0.3472 
    113 H113       18.0996  -32.0592  -39.4296 H         1 UNK         0.3472 
    114 H114       18.4190  -31.6417  -41.8394 H         1 UNK         0.0970 
    115 H115       19.7997  -30.7930  -42.4793 H         1 UNK         0.0970 
    116 H116       17.8145  -34.1428  -44.5306 H         1 UNK         0.0612 
    117 H117       17.2546  -33.3651  -43.0706 H         1 UNK         0.0612 
@<TRIPOS>BOND
     1    1    2 1    
     2    1   62 1    
     3    1   63 1    
     4    1   64 1    
     5    2    3 2    
     6    2    4 am   BACKBONE|DICT|INTERRES
     7    4    5 1    
     8    4   65 1    
     9    5    6 1    
    10    5   25 1    
    11    5   66 1    
    12    6    7 1    
    13    6   67 1    
    14    6   68 1    
    15    7    8 1    
    16    8    9 1    
    17    8   69 1    
    18    8   70 1    
    19    9   10 ar   
    20    9   14 ar   
    21   10   11 ar   
    22   10   71 1    
    23   11   12 ar   
    24   11   61 1    
    25   12   13 ar   
    26   12   72 1    
    27   13   14 ar   
    28   13   15 1    
    29   14   73 1    
    30   15   16 1    
    31   15   74 1    
    32   15   75 1    
    33   16   17 1    
    34   17   18 1    
    35   17   76 1    
    36   17   77 1    
    37   18   19 1    
    38   18   27 1    
    39   18   78 1    
    40   19   20 am   BACKBONE|DICT|INTERRES
    41   19   79 1    
    42   20   21 2    
    43   20   22 1    
    44   22   23 1    
    45   22   24 1    
    46   22   80 1    
    47   23   81 1    
    48   23   82 1    
    49   23   83 1    
    50   24   25 am   BACKBONE|DICT|INTERRES
    51   24   84 1    
    52   25   26 2    
    53   27   28 2    
    54   27   29 am   BACKBONE|DICT|INTERRES
    55   29   30 1    
    56   29   85 1    
    57   30   31 1    
    58   30   32 1    
    59   30   86 1    
    60   31   87 1    
    61   31   88 1    
    62   31   89 1    
    63   32   33 2    
    64   32   34 am   BACKBONE|DICT|INTERRES
    65   34   35 1    
    66   34   90 1    
    67   35   36 1    
    68   35   37 1    
    69   35   91 1    
    70   36   92 1    
    71   36   93 1    
    72   36   94 1    
    73   37   38 2    
    74   37   39 am   BACKBONE|DICT|INTERRES
    75   39   40 1    
    76   39   95 1    
    77   40   41 1    
    78   40   42 1    
    79   40   96 1    
    80   41   97 1    
    81   41   98 1    
    82   41   99 1    
    83   42   43 2    
    84   42   44 am   BACKBONE|DICT|INTERRES
    85   44   45 1    
    86   44  100 1    
    87   45   46 1    
    88   45   47 1    
    89   45  101 1    
    90   46  102 1    
    91   46  103 1    
    92   46  104 1    
    93   47   48 2    
    94   47   49 am   BACKBONE|DICT|INTERRES
    95   49   50 1    
    96   49  105 1    
    97   50   51 1    
    98   50   52 1    
    99   50  106 1    
   100   51  107 1    
   101   51  108 1    
   102   51  109 1    
   103   52   53 2    
   104   52   54 am   BACKBONE|DICT|INTERRES
   105   54   55 1    
   106   54  110 1    
   107   55   56 1    
   108   55   59 1    
   109   55  111 1    
   110   56   57 am   BACKBONE|DICT|INTERRES
   111   56   58 2    
   112   57  112 1    
   113   57  113 1    
   114   59   60 1    
   115   59  114 1    
   116   59  115 1    
   117   60   61 1    
   118   61  116 1    
   119   61  117 1    
@<TRIPOS>SUBSTRUCTURE
     1 UNK         1 GROUP             0       ****    0 ROOT    
