@<TRIPOS>MOLECULE
3R8
117   119    1
SMALL
USER_CHARGES


@<TRIPOS>ATOM
      1 CA         17.7889  -29.6901  -40.6541 C.3       0 UNK        -0.2013 
      2 C          17.2124  -28.3179  -40.9563 C.2       0 UNK         0.4866 
      3 O          16.7736  -27.6225  -40.0391 O.2       0 UNK        -0.5176 
      4 N          17.2023  -27.9364  -42.2387 N.am      1 UNK        -0.4884 
      5 CA         16.6834  -26.6537  -42.7291 C.3       1 UNK         0.0853 
      6 C6         15.8762  -26.8068  -44.0505 C.3       10 UNK        -0.0849 
      7 S7         14.6054  -28.1188  -43.9498 S.3       10 UNK        -0.2776 
      8 C8         14.8825  -29.0792  -45.4767 C.3       10 UNK         0.0316 
      9 C9         16.3251  -29.5416  -45.6478 C.ar      10 UNK        -0.0863 
     10 C10        16.8867  -30.4737  -44.7688 C.ar      10 UNK        -0.1009 
     11 C11        18.2069  -30.9039  -44.9412 C.ar      10 UNK        -0.0712 
     12 C12        18.9644  -30.3960  -46.0010 C.ar      10 UNK        -0.0894 
     13 C13        18.4152  -29.4603  -46.8824 C.ar      10 UNK        -0.0745 
     14 C14        17.0942  -29.0426  -46.7039 C.ar      10 UNK        -0.0972 
     15 C15        19.2394  -28.9080  -48.0371 C.3       10 UNK         0.0209 
     16 S16        19.7546  -27.1855  -47.7475 S.3       10 UNK        -0.2568 
     17 C17        20.9703  -27.4068  -46.4084 C.3       10 UNK        -0.0983 
     18 CA         21.3320  -26.0781  -45.7018 C.3       3 UNK         0.0876 
     19 N          20.1550  -25.4257  -45.1237 N.am      3 UNK        -0.4424 
     20 C          20.1286  -24.1911  -44.6042 C.2       2 UNK         0.4918 
     21 O          21.1077  -23.4442  -44.5726 O.2       2 UNK        -0.4875 
     22 CA         18.7832  -23.6766  -44.0525 C.3       2 UNK         0.0481 
     23 CB         18.1846  -22.6282  -45.0049 C.3       2 UNK        -0.1831 
     24 N          17.7844  -24.7251  -43.8141 N.am      2 UNK        -0.4498 
     25 C          17.8351  -25.6231  -42.8185 C.2       1 UNK         0.5027 
     26 O          18.7472  -25.6460  -41.9888 O.2       1 UNK        -0.4969 
     27 C          22.4015  -26.3412  -44.6248 C.2       3 UNK         0.5005 
     28 O          22.1043  -26.9867  -43.6170 O.2       3 UNK        -0.5279 
     29 N          23.6412  -25.9033  -44.8781 N.am      4 UNK        -0.4463 
     30 CA         24.8057  -26.1332  -44.0166 C.3       4 UNK         0.0283 
     31 CB         25.8067  -24.9783  -44.2096 C.3       4 UNK        -0.1875 
     32 C          25.4378  -27.5170  -44.2730 C.2       4 UNK         0.4949 
     33 O          26.6473  -27.6133  -44.4863 O.2       4 UNK        -0.5039 
     34 N          24.6026  -28.5643  -44.2777 N.am      5 UNK        -0.4663 
     35 CA         25.0051  -29.9548  -44.5059 C.3       5 UNK         0.0242 
     36 CB         23.7581  -30.7995  -44.8211 C.3       5 UNK        -0.1982 
     37 C          25.7732  -30.5388  -43.3095 C.2       5 UNK         0.5017 
     38 O          26.7953  -31.1977  -43.5012 O.2       5 UNK        -0.5012 
     39 N          25.2610  -30.2620  -42.1066 N.am      6 UNK        -0.4439 
     40 CA         25.7475  -30.6558  -40.7876 C.3       6 UNK         0.0297 
     41 CB         25.8344  -32.1915  -40.6543 C.3       6 UNK        -0.2006 
     42 C          24.7638  -30.0727  -39.7635 C.2       6 UNK         0.4892 
     43 O          23.6951  -29.5910  -40.1563 O.2       6 UNK        -0.5089 
     44 N          25.1213  -30.1389  -38.4737 N.am      7 UNK        -0.4243 
     45 CA         24.2783  -29.7262  -37.3460 C.3       7 UNK         0.0196 
     46 CB         25.0624  -29.8956  -36.0336 C.3       7 UNK        -0.2007 
     47 C          22.9644  -30.5265  -37.3185 C.2       7 UNK         0.5020 
     48 O          22.9945  -31.7303  -37.0562 O.2       7 UNK        -0.5147 
     49 N          21.8577  -29.8581  -37.6764 N.am      8 UNK        -0.4734 
     50 CA         20.5172  -30.4221  -37.9028 C.3       8 UNK         0.0238 
     51 CB         19.8874  -30.8732  -36.5676 C.3       8 UNK        -0.1912 
     52 C          20.4912  -31.5339  -38.9770 C.2       8 UNK         0.5038 
     53 O          19.6662  -32.4448  -38.8894 O.2       8 UNK        -0.5046 
     54 N          21.4076  -31.4466  -39.9534 N.am      9 UNK        -0.4200 
     55 CA         21.7003  -32.4686  -40.9733 C.3       9 UNK         0.0839 
     56 C          22.2841  -33.7986  -40.4002 C.2       9 UNK         0.5513 
     57 N          22.7702  -33.8420  -39.1644 N.am      9 UNK        -0.7519 
     58 O          22.3366  -34.8062  -41.1005 O.2       9 UNK        -0.4960 
     59 C59        20.5280  -32.7098  -41.9676 C.3       10 UNK        -0.0876 
     60 S60        20.0614  -31.2174  -42.9043 S.3       10 UNK        -0.2414 
     61 C61        18.8104  -31.9417  -44.0076 C.3       10 UNK         0.0169 
     62 H62        17.4440  -30.0536  -39.6863 H         1 UNK         0.0903 
     63 H63        17.4917  -30.4162  -41.4105 H         1 UNK         0.0903 
     64 H64        18.8761  -29.6356  -40.6343 H         1 UNK         0.0903 
     65 H65        17.5917  -28.5469  -42.9436 H         1 UNK         0.3096 
     66 H66        15.9904  -26.2489  -41.9881 H         1 UNK         0.1121 
     67 H67        15.3545  -25.8784  -44.2892 H         1 UNK         0.0849 
     68 H68        16.5469  -27.0011  -44.8874 H         1 UNK         0.0849 
     69 H69        14.2283  -29.9520  -45.4667 H         1 UNK         0.0865 
     70 H70        14.5663  -28.4759  -46.3293 H         1 UNK         0.0865 
     71 H71        16.2911  -30.8655  -43.9552 H         1 UNK         0.1346 
     72 H72        19.9847  -30.7295  -46.1343 H         1 UNK         0.1412 
     73 H73        16.6695  -28.3217  -47.3896 H         1 UNK         0.1426 
     74 H74        18.6476  -28.9491  -48.9527 H         1 UNK         0.0716 
     75 H75        20.1219  -29.5242  -48.2167 H         1 UNK         0.0716 
     76 H76        20.5742  -28.1191  -45.6825 H         1 UNK         0.0695 
     77 H77        21.8608  -27.8694  -46.8391 H         1 UNK         0.0695 
     78 H78        21.7474  -25.3969  -46.4478 H         1 UNK         0.0983 
     79 H79        19.3100  -25.9745  -45.1082 H         1 UNK         0.3095 
     80 H80        18.9921  -23.1851  -43.1000 H         1 UNK         0.0454 
     81 H81        18.8848  -21.8090  -45.1747 H         1 UNK         0.0851 
     82 H82        17.9443  -23.0566  -45.9788 H         1 UNK         0.0851 
     83 H83        17.2743  -22.1907  -44.5946 H         1 UNK         0.0851 
     84 H84        17.0046  -24.7522  -44.4551 H         1 UNK         0.2976 
     85 H85        23.8184  -25.4149  -45.7449 H         1 UNK         0.3116 
     86 H86        24.4862  -26.1179  -42.9722 H         1 UNK         0.0646 
     87 H87        26.6619  -25.0857  -43.5409 H         1 UNK         0.0847 
     88 H88        25.3477  -24.0142  -43.9898 H         1 UNK         0.0847 
     89 H89        26.1927  -24.9424  -45.2291 H         1 UNK         0.0847 
     90 H90        23.6256  -28.3844  -44.0729 H         1 UNK         0.3040 
     91 H91        25.6685  -29.9842  -45.3735 H         1 UNK         0.1015 
     92 H92        23.0398  -30.7884  -44.0001 H         1 UNK         0.0786 
     93 H93        24.0280  -31.8406  -45.0035 H         1 UNK         0.0786 
     94 H94        23.2487  -30.4365  -45.7141 H         1 UNK         0.0786 
     95 H95        24.4182  -29.6999  -42.0523 H         1 UNK         0.3172 
     96 H96        26.7291  -30.2080  -40.6234 H         1 UNK         0.0595 
     97 H97        26.0455  -32.4976  -39.6291 H         1 UNK         0.0839 
     98 H98        24.9053  -32.6739  -40.9531 H         1 UNK         0.0839 
     99 H99        26.6321  -32.6024  -41.2724 H         1 UNK         0.0839 
    100 H100       26.0053  -30.5665  -38.2384 H         1 UNK         0.2998 
    101 H101       24.0479  -28.6658  -37.4687 H         1 UNK         0.0822 
    102 H102       24.4572  -29.5943  -35.1775 H         1 UNK         0.0787 
    103 H103       25.3623  -30.9318  -35.8713 H         1 UNK         0.0787 
    104 H104       25.9623  -29.2802  -36.0258 H         1 UNK         0.0787 
    105 H105       21.9603  -28.8816  -37.9198 H         1 UNK         0.3055 
    106 H106       19.9040  -29.6107  -38.2976 H         1 UNK         0.1106 
    107 H107       20.4105  -31.7308  -36.1432 H         1 UNK         0.0828 
    108 H108       19.9034  -30.0714  -35.8296 H         1 UNK         0.0828 
    109 H109       18.8450  -31.1640  -36.7037 H         1 UNK         0.0828 
    110 H110       22.0561  -30.6654  -39.9356 H         1 UNK         0.2931 
    111 H111       22.5219  -32.0489  -41.5548 H         1 UNK         0.0412 
    112 H112       23.1520  -34.7091  -38.8221 H         1 UNK         0.3472 
    113 H113       22.7453  -33.0324  -38.5535 H         1 UNK         0.3472 
    114 H114       19.6504  -33.0946  -41.4463 H         1 UNK         0.0970 
    115 H115       20.8026  -33.4725  -42.6986 H         1 UNK         0.0970 
    116 H116       18.0326  -32.4128  -43.4045 H         1 UNK         0.0612 
    117 H117       19.2677  -32.7356  -44.5999 H         1 UNK         0.0612 
@<TRIPOS>BOND
     1    1    2 1    
     2    1   62 1    
     3    1   63 1    
     4    1   64 1    
     5    2    3 2    
     6    2    4 am   BACKBONE|DICT|INTERRES
     7    4    5 1    
     8    4   65 1    
     9    5    6 1    
    10    5   25 1    
    11    5   66 1    
    12    6    7 1    
    13    6   67 1    
    14    6   68 1    
    15    7    8 1    
    16    8    9 1    
    17    8   69 1    
    18    8   70 1    
    19    9   10 ar   
    20    9   14 ar   
    21   10   11 ar   
    22   10   71 1    
    23   11   12 ar   
    24   11   61 1    
    25   12   13 ar   
    26   12   72 1    
    27   13   14 ar   
    28   13   15 1    
    29   14   73 1    
    30   15   16 1    
    31   15   74 1    
    32   15   75 1    
    33   16   17 1    
    34   17   18 1    
    35   17   76 1    
    36   17   77 1    
    37   18   19 1    
    38   18   27 1    
    39   18   78 1    
    40   19   20 am   BACKBONE|DICT|INTERRES
    41   19   79 1    
    42   20   21 2    
    43   20   22 1    
    44   22   23 1    
    45   22   24 1    
    46   22   80 1    
    47   23   81 1    
    48   23   82 1    
    49   23   83 1    
    50   24   25 am   BACKBONE|DICT|INTERRES
    51   24   84 1    
    52   25   26 2    
    53   27   28 2    
    54   27   29 am   BACKBONE|DICT|INTERRES
    55   29   30 1    
    56   29   85 1    
    57   30   31 1    
    58   30   32 1    
    59   30   86 1    
    60   31   87 1    
    61   31   88 1    
    62   31   89 1    
    63   32   33 2    
    64   32   34 am   BACKBONE|DICT|INTERRES
    65   34   35 1    
    66   34   90 1    
    67   35   36 1    
    68   35   37 1    
    69   35   91 1    
    70   36   92 1    
    71   36   93 1    
    72   36   94 1    
    73   37   38 2    
    74   37   39 am   BACKBONE|DICT|INTERRES
    75   39   40 1    
    76   39   95 1    
    77   40   41 1    
    78   40   42 1    
    79   40   96 1    
    80   41   97 1    
    81   41   98 1    
    82   41   99 1    
    83   42   43 2    
    84   42   44 am   BACKBONE|DICT|INTERRES
    85   44   45 1    
    86   44  100 1    
    87   45   46 1    
    88   45   47 1    
    89   45  101 1    
    90   46  102 1    
    91   46  103 1    
    92   46  104 1    
    93   47   48 2    
    94   47   49 am   BACKBONE|DICT|INTERRES
    95   49   50 1    
    96   49  105 1    
    97   50   51 1    
    98   50   52 1    
    99   50  106 1    
   100   51  107 1    
   101   51  108 1    
   102   51  109 1    
   103   52   53 2    
   104   52   54 am   BACKBONE|DICT|INTERRES
   105   54   55 1    
   106   54  110 1    
   107   55   56 1    
   108   55   59 1    
   109   55  111 1    
   110   56   57 am   BACKBONE|DICT|INTERRES
   111   56   58 2    
   112   57  112 1    
   113   57  113 1    
   114   59   60 1    
   115   59  114 1    
   116   59  115 1    
   117   60   61 1    
   118   61  116 1    
   119   61  117 1    
@<TRIPOS>SUBSTRUCTURE
     1 UNK         1 GROUP             0       ****    0 ROOT    
