@<TRIPOS>MOLECULE
3R8
117   119    1
SMALL
USER_CHARGES


@<TRIPOS>ATOM
      1 CA         13.8121  -23.9162  -43.3310 C.3       0 UNK        -0.2013 
      2 C          15.0638  -24.6748  -42.9158 C.2       0 UNK         0.4866 
      3 O          15.5053  -24.5411  -41.7745 O.2       0 UNK        -0.5176 
      4 N          15.6361  -25.4621  -43.8385 N.am      1 UNK        -0.4884 
      5 CA         16.8330  -26.2994  -43.6551 C.3       1 UNK         0.0853 
      6 C6         16.6239  -27.4795  -42.6644 C.3       10 UNK        -0.0849 
      7 S7         15.4189  -28.6878  -43.3111 S.3       10 UNK        -0.2776 
      8 C8         16.3576  -30.2568  -43.2149 C.3       10 UNK         0.0316 
      9 C9         17.6012  -30.3516  -44.1042 C.ar      10 UNK        -0.0863 
     10 C10        18.6204  -31.2376  -43.7396 C.ar      10 UNK        -0.1009 
     11 C11        19.7609  -31.3904  -44.5340 C.ar      10 UNK        -0.0712 
     12 C12        19.8942  -30.6276  -45.6982 C.ar      10 UNK        -0.0894 
     13 C13        18.8758  -29.7535  -46.0926 C.ar      10 UNK        -0.0745 
     14 C14        17.7307  -29.6291  -45.2971 C.ar      10 UNK        -0.0972 
     15 C15        18.9692  -29.0119  -47.4210 C.3       10 UNK         0.0209 
     16 S16        18.7944  -27.2067  -47.2364 S.3       10 UNK        -0.2568 
     17 C17        20.4867  -26.5811  -47.5556 C.3       10 UNK        -0.0983 
     18 CA         21.1916  -25.9867  -46.3079 C.3       3 UNK         0.0876 
     19 N          20.2975  -25.0785  -45.5930 N.am      3 UNK        -0.4424 
     20 C          20.6235  -24.1478  -44.6896 C.2       2 UNK         0.4918 
     21 O          21.7796  -23.8519  -44.3903 O.2       2 UNK        -0.4875 
     22 CA         19.4386  -23.4614  -43.9759 C.3       2 UNK         0.0481 
     23 CB         19.1367  -22.1000  -44.6209 C.3       2 UNK        -0.1831 
     24 N          18.2163  -24.2818  -43.9727 N.am      2 UNK        -0.4498 
     25 C          18.1067  -25.4743  -43.3643 C.2       1 UNK         0.5027 
     26 O          19.0022  -25.9445  -42.6637 O.2       1 UNK        -0.4969 
     27 C          21.8097  -27.0948  -45.4252 C.2       3 UNK         0.5005 
     28 O          22.7305  -27.7680  -45.8936 O.2       3 UNK        -0.5279 
     29 N          21.3413  -27.2762  -44.1788 N.am      4 UNK        -0.4463 
     30 CA         21.8270  -28.2870  -43.2305 C.3       4 UNK         0.0283 
     31 CB         20.7518  -28.5406  -42.1585 C.3       4 UNK        -0.1875 
     32 C          23.1932  -27.9303  -42.6083 C.2       4 UNK         0.4949 
     33 O          23.3435  -27.9503  -41.3856 O.2       4 UNK        -0.5039 
     34 N          24.1806  -27.6271  -43.4608 N.am      5 UNK        -0.4663 
     35 CA         25.5441  -27.2213  -43.0981 C.3       5 UNK         0.0242 
     36 CB         26.2871  -26.7784  -44.3687 C.3       5 UNK        -0.1982 
     37 C          26.3463  -28.3019  -42.3504 C.2       5 UNK         0.5017 
     38 O          27.2933  -27.9665  -41.6387 O.2       5 UNK        -0.5012 
     39 N          25.9396  -29.5694  -42.5044 N.am      6 UNK        -0.4439 
     40 CA         26.4610  -30.7214  -41.7662 C.3       6 UNK         0.0297 
     41 CB         26.0147  -32.0085  -42.4782 C.3       6 UNK        -0.2006 
     42 C          26.0491  -30.7479  -40.2786 C.2       6 UNK         0.4892 
     43 O          26.6922  -31.4660  -39.5129 O.2       6 UNK        -0.5089 
     44 N          25.0194  -29.9653  -39.9105 N.am      7 UNK        -0.4243 
     45 CA         24.4015  -29.8025  -38.5895 C.3       7 UNK         0.0196 
     46 CB         25.4230  -29.3625  -37.5212 C.3       7 UNK        -0.2007 
     47 C          23.6087  -31.0442  -38.1460 C.2       7 UNK         0.5020 
     48 O          24.1887  -32.1088  -37.9300 O.2       7 UNK        -0.5147 
     49 N          22.2869  -30.8686  -37.9948 N.am      8 UNK        -0.4734 
     50 CA         21.3055  -31.8664  -37.5352 C.3       8 UNK         0.0238 
     51 CB         21.5456  -32.2240  -36.0520 C.3       8 UNK        -0.1912 
     52 C          21.2066  -33.1139  -38.4396 C.2       8 UNK         0.5038 
     53 O          20.9151  -34.2073  -37.9511 O.2       8 UNK        -0.5046 
     54 N          21.4430  -32.9232  -39.7432 N.am      9 UNK        -0.4200 
     55 CA         21.3783  -33.9599  -40.7843 C.3       9 UNK         0.0839 
     56 C          19.9428  -34.4178  -41.1782 C.2       9 UNK         0.5513 
     57 N          18.8821  -33.7601  -40.7245 N.am      9 UNK        -0.7519 
     58 O          19.7912  -35.3982  -41.9023 O.2       9 UNK        -0.4960 
     59 C59        22.2355  -33.5710  -42.0189 C.3       10 UNK        -0.0876 
     60 S60        21.7999  -31.9429  -42.7273 S.3       10 UNK        -0.2414 
     61 C61        20.8039  -32.4371  -44.1666 C.3       10 UNK         0.0169 
     62 H62        13.5344  -24.1192  -44.3652 H         1 UNK         0.0903 
     63 H63        12.9745  -24.1992  -42.6941 H         1 UNK         0.0903 
     64 H64        13.9717  -22.8433  -43.2271 H         1 UNK         0.0903 
     65 H65        15.2075  -25.5275  -44.7521 H         1 UNK         0.3096 
     66 H66        17.0318  -26.7411  -44.6326 H         1 UNK         0.1121 
     67 H67        16.2854  -27.1205  -41.6916 H         1 UNK         0.0849 
     68 H68        17.5608  -28.0050  -42.4769 H         1 UNK         0.0849 
     69 H69        16.6356  -30.4215  -42.1725 H         1 UNK         0.0865 
     70 H70        15.6861  -31.0733  -43.4833 H         1 UNK         0.0865 
     71 H71        18.5206  -31.8318  -42.8414 H         1 UNK         0.1346 
     72 H72        20.7709  -30.7481  -46.3197 H         1 UNK         0.1412 
     73 H73        16.9336  -28.9774  -45.6250 H         1 UNK         0.1426 
     74 H74        19.8968  -29.2550  -47.9404 H         1 UNK         0.0716 
     75 H75        18.1652  -29.3673  -48.0668 H         1 UNK         0.0716 
     76 H76        20.3895  -25.7951  -48.3061 H         1 UNK         0.0695 
     77 H77        21.1002  -27.3470  -48.0332 H         1 UNK         0.0695 
     78 H78        22.0370  -25.3915  -46.6605 H         1 UNK         0.0983 
     79 H79        19.3171  -25.2307  -45.7791 H         1 UNK         0.3095 
     80 H80        19.7324  -23.2917  -42.9381 H         1 UNK         0.0454 
     81 H81        18.3509  -21.5704  -44.0820 H         1 UNK         0.0851 
     82 H82        18.8217  -22.2042  -45.6600 H         1 UNK         0.0851 
     83 H83        20.0202  -21.4601  -44.6116 H         1 UNK         0.0851 
     84 H84        17.4334  -23.9461  -44.5160 H         1 UNK         0.2976 
     85 H85        20.6032  -26.6712  -43.8375 H         1 UNK         0.3116 
     86 H86        21.9650  -29.2181  -43.7824 H         1 UNK         0.0646 
     87 H87        19.8020  -28.8205  -42.6118 H         1 UNK         0.0847 
     88 H88        21.0424  -29.3535  -41.4932 H         1 UNK         0.0847 
     89 H89        20.5871  -27.6618  -41.5351 H         1 UNK         0.0847 
     90 H90        23.9509  -27.6538  -44.4519 H         1 UNK         0.3040 
     91 H91        25.4644  -26.3627  -42.4277 H         1 UNK         0.1015 
     92 H92        26.3724  -27.5922  -45.0901 H         1 UNK         0.0786 
     93 H93        27.2981  -26.4418  -44.1342 H         1 UNK         0.0786 
     94 H94        25.7764  -25.9484  -44.8576 H         1 UNK         0.0786 
     95 H95        25.1613  -29.7373  -43.1254 H         1 UNK         0.3172 
     96 H96        27.5518  -30.6780  -41.7973 H         1 UNK         0.0595 
     97 H97        24.9295  -32.0700  -42.5518 H         1 UNK         0.0839 
     98 H98        26.3582  -32.8949  -41.9428 H         1 UNK         0.0839 
     99 H99        26.4220  -32.0645  -43.4879 H         1 UNK         0.0839 
    100 H100       24.5796  -29.4077  -40.6356 H         1 UNK         0.2998 
    101 H101       23.6970  -28.9774  -38.7088 H         1 UNK         0.0822 
    102 H102       24.9209  -29.1200  -36.5838 H         1 UNK         0.0787 
    103 H103       26.1501  -30.1449  -37.3019 H         1 UNK         0.0787 
    104 H104       25.9699  -28.4741  -37.8372 H         1 UNK         0.0787 
    105 H105       21.9057  -29.9545  -38.2009 H         1 UNK         0.3055 
    106 H106       20.3284  -31.3842  -37.5970 H         1 UNK         0.1106 
    107 H107       21.5878  -31.3305  -35.4294 H         1 UNK         0.0828 
    108 H108       20.7403  -32.8484  -35.6630 H         1 UNK         0.0828 
    109 H109       22.4770  -32.7739  -35.9135 H         1 UNK         0.0828 
    110 H110       21.6672  -31.9938  -40.0656 H         1 UNK         0.2931 
    111 H111       21.8460  -34.8507  -40.3602 H         1 UNK         0.0412 
    112 H112       18.9947  -32.9610  -40.1229 H         1 UNK         0.3472 
    113 H113       17.9599  -34.0784  -40.9768 H         1 UNK         0.3472 
    114 H114       23.2826  -33.5306  -41.7177 H         1 UNK         0.0970 
    115 H115       22.1917  -34.3429  -42.7897 H         1 UNK         0.0970 
    116 H116       20.2894  -33.3760  -43.9591 H         1 UNK         0.0612 
    117 H117       21.4717  -32.6347  -45.0064 H         1 UNK         0.0612 
@<TRIPOS>BOND
     1    1    2 1    
     2    1   62 1    
     3    1   63 1    
     4    1   64 1    
     5    2    3 2    
     6    2    4 am   BACKBONE|DICT|INTERRES
     7    4    5 1    
     8    4   65 1    
     9    5    6 1    
    10    5   25 1    
    11    5   66 1    
    12    6    7 1    
    13    6   67 1    
    14    6   68 1    
    15    7    8 1    
    16    8    9 1    
    17    8   69 1    
    18    8   70 1    
    19    9   10 ar   
    20    9   14 ar   
    21   10   11 ar   
    22   10   71 1    
    23   11   12 ar   
    24   11   61 1    
    25   12   13 ar   
    26   12   72 1    
    27   13   14 ar   
    28   13   15 1    
    29   14   73 1    
    30   15   16 1    
    31   15   74 1    
    32   15   75 1    
    33   16   17 1    
    34   17   18 1    
    35   17   76 1    
    36   17   77 1    
    37   18   19 1    
    38   18   27 1    
    39   18   78 1    
    40   19   20 am   BACKBONE|DICT|INTERRES
    41   19   79 1    
    42   20   21 2    
    43   20   22 1    
    44   22   23 1    
    45   22   24 1    
    46   22   80 1    
    47   23   81 1    
    48   23   82 1    
    49   23   83 1    
    50   24   25 am   BACKBONE|DICT|INTERRES
    51   24   84 1    
    52   25   26 2    
    53   27   28 2    
    54   27   29 am   BACKBONE|DICT|INTERRES
    55   29   30 1    
    56   29   85 1    
    57   30   31 1    
    58   30   32 1    
    59   30   86 1    
    60   31   87 1    
    61   31   88 1    
    62   31   89 1    
    63   32   33 2    
    64   32   34 am   BACKBONE|DICT|INTERRES
    65   34   35 1    
    66   34   90 1    
    67   35   36 1    
    68   35   37 1    
    69   35   91 1    
    70   36   92 1    
    71   36   93 1    
    72   36   94 1    
    73   37   38 2    
    74   37   39 am   BACKBONE|DICT|INTERRES
    75   39   40 1    
    76   39   95 1    
    77   40   41 1    
    78   40   42 1    
    79   40   96 1    
    80   41   97 1    
    81   41   98 1    
    82   41   99 1    
    83   42   43 2    
    84   42   44 am   BACKBONE|DICT|INTERRES
    85   44   45 1    
    86   44  100 1    
    87   45   46 1    
    88   45   47 1    
    89   45  101 1    
    90   46  102 1    
    91   46  103 1    
    92   46  104 1    
    93   47   48 2    
    94   47   49 am   BACKBONE|DICT|INTERRES
    95   49   50 1    
    96   49  105 1    
    97   50   51 1    
    98   50   52 1    
    99   50  106 1    
   100   51  107 1    
   101   51  108 1    
   102   51  109 1    
   103   52   53 2    
   104   52   54 am   BACKBONE|DICT|INTERRES
   105   54   55 1    
   106   54  110 1    
   107   55   56 1    
   108   55   59 1    
   109   55  111 1    
   110   56   57 am   BACKBONE|DICT|INTERRES
   111   56   58 2    
   112   57  112 1    
   113   57  113 1    
   114   59   60 1    
   115   59  114 1    
   116   59  115 1    
   117   60   61 1    
   118   61  116 1    
   119   61  117 1    
@<TRIPOS>SUBSTRUCTURE
     1 UNK         1 GROUP             0       ****    0 ROOT    
