@<TRIPOS>MOLECULE
3R8
117   119    1
SMALL
USER_CHARGES


@<TRIPOS>ATOM
      1 CA         15.2591  -23.4715  -47.3473 C.3       0 UNK        -0.2013 
      2 C          16.6424  -23.4846  -46.7140 C.2       0 UNK         0.4866 
      3 O          17.0039  -22.5397  -46.0115 O.2       0 UNK        -0.5176 
      4 N          17.4221  -24.5431  -46.9641 N.am      1 UNK        -0.4884 
      5 CA         18.7461  -24.7680  -46.3758 C.3       1 UNK         0.0853 
      6 C6         19.5768  -25.7660  -47.2268 C.3       10 UNK        -0.0849 
      7 S7         18.7997  -27.4094  -47.4424 S.3       10 UNK        -0.2776 
      8 C8         19.8436  -28.4127  -46.3384 C.3       10 UNK         0.0316 
      9 C9         19.1058  -29.6062  -45.7499 C.ar      10 UNK        -0.0863 
     10 C10        19.6302  -30.8959  -45.8755 C.ar      10 UNK        -0.1009 
     11 C11        19.0250  -31.9749  -45.2244 C.ar      10 UNK        -0.0712 
     12 C12        17.8700  -31.7627  -44.4665 C.ar      10 UNK        -0.0894 
     13 C13        17.3304  -30.4800  -44.3397 C.ar      10 UNK        -0.0745 
     14 C14        17.9450  -29.4097  -44.9969 C.ar      10 UNK        -0.0972 
     15 C15        16.1031  -30.2510  -43.4674 C.3       10 UNK         0.0209 
     16 S16        16.3517  -28.9304  -42.2345 S.3       10 UNK        -0.2568 
     17 C17        17.7791  -29.5446  -41.2717 C.3       10 UNK        -0.0983 
     18 CA         19.1462  -28.9577  -41.7223 C.3       3 UNK         0.0876 
     19 N          19.1021  -27.5070  -41.9339 N.am      3 UNK        -0.4424 
     20 C          20.0576  -26.7840  -42.5309 C.2       2 UNK         0.4918 
     21 O          21.1191  -27.2455  -42.9568 O.2       2 UNK        -0.4875 
     22 CA         19.7652  -25.2834  -42.6897 C.3       2 UNK         0.0481 
     23 CB         20.8331  -24.4267  -41.9908 C.3       2 UNK        -0.1831 
     24 N          19.6809  -24.9134  -44.1039 N.am      2 UNK        -0.4498 
     25 C          18.6341  -25.1945  -44.8929 C.2       1 UNK         0.5027 
     26 O          17.6176  -25.7679  -44.4910 O.2       1 UNK        -0.4969 
     27 C          20.2497  -29.3525  -40.7252 C.2       3 UNK         0.5005 
     28 O          20.9869  -30.3071  -40.9706 O.2       3 UNK        -0.5279 
     29 N          20.3460  -28.6000  -39.6229 N.am      4 UNK        -0.4463 
     30 CA         21.3722  -28.7528  -38.5960 C.3       4 UNK         0.0283 
     31 CB         20.7848  -28.3290  -37.2401 C.3       4 UNK        -0.1875 
     32 C          22.5988  -27.8955  -38.9337 C.2       4 UNK         0.4949 
     33 O          22.4677  -26.8739  -39.6124 O.2       4 UNK        -0.5039 
     34 N          23.7598  -28.3169  -38.4158 N.am      5 UNK        -0.4663 
     35 CA         25.0823  -27.6753  -38.4707 C.3       5 UNK         0.0242 
     36 CB         25.0714  -26.3078  -37.7583 C.3       5 UNK        -0.1982 
     37 C          25.7012  -27.5625  -39.8755 C.2       5 UNK         0.5017 
     38 O          26.8352  -28.0039  -40.0616 O.2       5 UNK        -0.5012 
     39 N          24.9672  -26.9674  -40.8237 N.am      6 UNK        -0.4439 
     40 CA         25.3889  -26.7678  -42.2100 C.3       6 UNK         0.0297 
     41 CB         24.5187  -25.6907  -42.8777 C.3       6 UNK        -0.2006 
     42 C          25.3604  -28.0893  -42.9889 C.2       6 UNK         0.4892 
     43 O          26.4170  -28.5760  -43.3936 O.2       6 UNK        -0.5089 
     44 N          24.1575  -28.6537  -43.1663 N.am      7 UNK        -0.4243 
     45 CA         23.9683  -29.9655  -43.7886 C.3       7 UNK         0.0196 
     46 CB         22.5407  -30.0666  -44.3378 C.3       7 UNK        -0.2007 
     47 C          24.2591  -31.1195  -42.8158 C.2       7 UNK         0.5020 
     48 O          24.7439  -32.1639  -43.2512 O.2       7 UNK        -0.5147 
     49 N          23.9628  -30.9003  -41.5249 N.am      8 UNK        -0.4734 
     50 CA         24.0878  -31.8460  -40.4074 C.3       8 UNK         0.0238 
     51 CB         25.5700  -32.1687  -40.1231 C.3       8 UNK        -0.1912 
     52 C          23.2101  -33.1037  -40.5813 C.2       8 UNK         0.5038 
     53 O          23.6249  -34.2049  -40.2139 O.2       8 UNK        -0.5046 
     54 N          22.0067  -32.9043  -41.1302 N.am      9 UNK        -0.4200 
     55 CA         20.9719  -33.9304  -41.3194 C.3       9 UNK         0.0839 
     56 C          20.1128  -34.1815  -40.0476 C.2       9 UNK         0.5513 
     57 N          20.1637  -33.3301  -39.0293 N.am      9 UNK        -0.7519 
     58 O          19.3914  -35.1733  -39.9824 O.2       9 UNK        -0.4960 
     59 C59        20.0667  -33.6014  -42.5343 C.3       10 UNK        -0.0876 
     60 S60        20.9857  -33.5864  -44.1107 S.3       10 UNK        -0.2414 
     61 C61        19.6372  -33.3648  -45.3152 C.3       10 UNK         0.0169 
     62 H62        15.0792  -24.3600  -47.9524 H         1 UNK         0.0903 
     63 H63        14.4931  -23.4278  -46.5735 H         1 UNK         0.0903 
     64 H64        15.1474  -22.5970  -47.9878 H         1 UNK         0.0903 
     65 H65        17.0646  -25.3125  -47.5133 H         1 UNK         0.3096 
     66 H66        19.2736  -23.8111  -46.3913 H         1 UNK         0.1121 
     67 H67        19.7250  -25.3451  -48.2227 H         1 UNK         0.0849 
     68 H68        20.5824  -25.8761  -46.8168 H         1 UNK         0.0849 
     69 H69        20.7295  -28.7304  -46.8901 H         1 UNK         0.0865 
     70 H70        20.2004  -27.8043  -45.5068 H         1 UNK         0.0865 
     71 H71        20.5344  -31.0584  -46.4457 H         1 UNK         0.1346 
     72 H72        17.4054  -32.5953  -43.9562 H         1 UNK         0.1412 
     73 H73        17.5446  -28.4111  -44.8834 H         1 UNK         0.1426 
     74 H74        15.8162  -31.1661  -42.9469 H         1 UNK         0.0716 
     75 H75        15.2620  -29.9817  -44.1073 H         1 UNK         0.0716 
     76 H76        17.8020  -30.6352  -41.3198 H         1 UNK         0.0695 
     77 H77        17.5803  -29.2958  -40.2274 H         1 UNK         0.0695 
     78 H78        19.4156  -29.4141  -42.6761 H         1 UNK         0.0983 
     79 H79        18.2378  -27.0532  -41.6754 H         1 UNK         0.3095 
     80 H80        18.8076  -25.0593  -42.2142 H         1 UNK         0.0454 
     81 H81        20.9813  -24.7485  -40.9588 H         1 UNK         0.0851 
     82 H82        20.5404  -23.3771  -41.9638 H         1 UNK         0.0851 
     83 H83        21.7975  -24.4882  -42.4920 H         1 UNK         0.0851 
     84 H84        20.4967  -24.4709  -44.5019 H         1 UNK         0.2976 
     85 H85        19.7480  -27.7905  -39.5436 H         1 UNK         0.3116 
     86 H86        21.6738  -29.8007  -38.5329 H         1 UNK         0.0646 
     87 H87        19.9122  -28.9290  -36.9810 H         1 UNK         0.0847 
     88 H88        20.4832  -27.2806  -37.2389 H         1 UNK         0.0847 
     89 H89        21.5132  -28.4577  -36.4384 H         1 UNK         0.0847 
     90 H90        23.7390  -29.1725  -37.8777 H         1 UNK         0.3040 
     91 H91        25.7456  -28.3272  -37.8989 H         1 UNK         0.1015 
     92 H92        26.0726  -25.8754  -37.7311 H         1 UNK         0.0786 
     93 H93        24.7323  -26.4022  -36.7267 H         1 UNK         0.0786 
     94 H94        24.4227  -25.5879  -38.2583 H         1 UNK         0.0786 
     95 H95        24.0223  -26.6874  -40.5655 H         1 UNK         0.3172 
     96 H96        26.4187  -26.4035  -42.2040 H         1 UNK         0.0595 
     97 H97        24.8419  -25.5108  -43.9039 H         1 UNK         0.0839 
     98 H98        24.5847  -24.7414  -42.3460 H         1 UNK         0.0839 
     99 H99        23.4703  -25.9818  -42.9144 H         1 UNK         0.0839 
    100 H100       23.3271  -28.1729  -42.8428 H         1 UNK         0.2998 
    101 H101       24.6574  -30.0589  -44.6311 H         1 UNK         0.0822 
    102 H102       22.3964  -31.0158  -44.8537 H         1 UNK         0.0787 
    103 H103       22.3390  -29.2710  -45.0536 H         1 UNK         0.0787 
    104 H104       21.7910  -30.0061  -43.5487 H         1 UNK         0.0787 
    105 H105       23.5129  -30.0234  -41.3040 H         1 UNK         0.3055 
    106 H106       23.6927  -31.3334  -39.5297 H         1 UNK         0.1106 
    107 H107       26.1547  -31.2585  -39.9880 H         1 UNK         0.0828 
    108 H108       25.6744  -32.7587  -39.2118 H         1 UNK         0.0828 
    109 H109       26.0227  -32.7411  -40.9331 H         1 UNK         0.0828 
    110 H110       21.7226  -31.9476  -41.3295 H         1 UNK         0.2931 
    111 H111       21.4721  -34.8770  -41.5337 H         1 UNK         0.0412 
    112 H112       20.7353  -32.5030  -39.0872 H         1 UNK         0.3472 
    113 H113       19.6064  -33.5067  -38.2082 H         1 UNK         0.3472 
    114 H114       19.5904  -32.6298  -42.3922 H         1 UNK         0.0970 
    115 H115       19.2614  -34.3331  -42.6249 H         1 UNK         0.0970 
    116 H116       20.0333  -33.5247  -46.3190 H         1 UNK         0.0612 
    117 H117       18.8781  -34.1331  -45.1604 H         1 UNK         0.0612 
@<TRIPOS>BOND
     1    1    2 1    
     2    1   62 1    
     3    1   63 1    
     4    1   64 1    
     5    2    3 2    
     6    2    4 am   BACKBONE|DICT|INTERRES
     7    4    5 1    
     8    4   65 1    
     9    5    6 1    
    10    5   25 1    
    11    5   66 1    
    12    6    7 1    
    13    6   67 1    
    14    6   68 1    
    15    7    8 1    
    16    8    9 1    
    17    8   69 1    
    18    8   70 1    
    19    9   10 ar   
    20    9   14 ar   
    21   10   11 ar   
    22   10   71 1    
    23   11   12 ar   
    24   11   61 1    
    25   12   13 ar   
    26   12   72 1    
    27   13   14 ar   
    28   13   15 1    
    29   14   73 1    
    30   15   16 1    
    31   15   74 1    
    32   15   75 1    
    33   16   17 1    
    34   17   18 1    
    35   17   76 1    
    36   17   77 1    
    37   18   19 1    
    38   18   27 1    
    39   18   78 1    
    40   19   20 am   BACKBONE|DICT|INTERRES
    41   19   79 1    
    42   20   21 2    
    43   20   22 1    
    44   22   23 1    
    45   22   24 1    
    46   22   80 1    
    47   23   81 1    
    48   23   82 1    
    49   23   83 1    
    50   24   25 am   BACKBONE|DICT|INTERRES
    51   24   84 1    
    52   25   26 2    
    53   27   28 2    
    54   27   29 am   BACKBONE|DICT|INTERRES
    55   29   30 1    
    56   29   85 1    
    57   30   31 1    
    58   30   32 1    
    59   30   86 1    
    60   31   87 1    
    61   31   88 1    
    62   31   89 1    
    63   32   33 2    
    64   32   34 am   BACKBONE|DICT|INTERRES
    65   34   35 1    
    66   34   90 1    
    67   35   36 1    
    68   35   37 1    
    69   35   91 1    
    70   36   92 1    
    71   36   93 1    
    72   36   94 1    
    73   37   38 2    
    74   37   39 am   BACKBONE|DICT|INTERRES
    75   39   40 1    
    76   39   95 1    
    77   40   41 1    
    78   40   42 1    
    79   40   96 1    
    80   41   97 1    
    81   41   98 1    
    82   41   99 1    
    83   42   43 2    
    84   42   44 am   BACKBONE|DICT|INTERRES
    85   44   45 1    
    86   44  100 1    
    87   45   46 1    
    88   45   47 1    
    89   45  101 1    
    90   46  102 1    
    91   46  103 1    
    92   46  104 1    
    93   47   48 2    
    94   47   49 am   BACKBONE|DICT|INTERRES
    95   49   50 1    
    96   49  105 1    
    97   50   51 1    
    98   50   52 1    
    99   50  106 1    
   100   51  107 1    
   101   51  108 1    
   102   51  109 1    
   103   52   53 2    
   104   52   54 am   BACKBONE|DICT|INTERRES
   105   54   55 1    
   106   54  110 1    
   107   55   56 1    
   108   55   59 1    
   109   55  111 1    
   110   56   57 am   BACKBONE|DICT|INTERRES
   111   56   58 2    
   112   57  112 1    
   113   57  113 1    
   114   59   60 1    
   115   59  114 1    
   116   59  115 1    
   117   60   61 1    
   118   61  116 1    
   119   61  117 1    
@<TRIPOS>SUBSTRUCTURE
     1 UNK         1 GROUP             0       ****    0 ROOT    
