@<TRIPOS>MOLECULE
3R8
117   119    1
SMALL
USER_CHARGES


@<TRIPOS>ATOM
      1 CA         20.5525  -26.3624  -41.2585 C.3       0 UNK        -0.2013 
      2 C          19.2416  -25.7572  -41.7249 C.2       0 UNK         0.4866 
      3 O          18.9214  -24.6280  -41.3526 O.2       0 UNK        -0.5176 
      4 N          18.4813  -26.4882  -42.5494 N.am      1 UNK        -0.4884 
      5 CA         17.1574  -26.1053  -43.0623 C.3       1 UNK         0.0853 
      6 C6         16.3149  -27.3446  -43.4778 C.3       10 UNK        -0.0849 
      7 S7         16.3629  -28.7293  -42.2849 S.3       10 UNK        -0.2776 
      8 C8         16.6440  -30.1529  -43.3912 C.3       10 UNK         0.0316 
      9 C9         18.1043  -30.3140  -43.8026 C.ar      10 UNK        -0.0863 
     10 C10        18.9527  -31.1333  -43.0506 C.ar      10 UNK        -0.1009 
     11 C11        20.2705  -31.3589  -43.4605 C.ar      10 UNK        -0.0712 
     12 C12        20.7457  -30.7433  -44.6207 C.ar      10 UNK        -0.0894 
     13 C13        19.9171  -29.9070  -45.3732 C.ar      10 UNK        -0.0745 
     14 C14        18.5947  -29.7038  -44.9640 C.ar      10 UNK        -0.0972 
     15 C15        20.4435  -29.2553  -46.6473 C.3       10 UNK         0.0209 
     16 S16        21.8326  -28.1178  -46.3269 S.3       10 UNK        -0.2568 
     17 C17        21.0273  -26.8431  -45.3026 C.3       10 UNK        -0.0983 
     18 CA         21.4621  -25.3982  -45.6601 C.3       3 UNK         0.0876 
     19 N          20.5046  -24.4456  -45.1087 N.am      3 UNK        -0.4424 
     20 C          19.5929  -23.7476  -45.7931 C.2       2 UNK         0.4918 
     21 O          19.5195  -23.7194  -47.0227 O.2       2 UNK        -0.4875 
     22 CA         18.5478  -23.0195  -44.9221 C.3       2 UNK         0.0481 
     23 CB         17.4616  -22.2913  -45.7418 C.3       2 UNK        -0.1831 
     24 N          17.9618  -23.9539  -43.9488 N.am      2 UNK        -0.4498 
     25 C          17.2899  -25.0850  -44.2201 C.2       1 UNK         0.5027 
     26 O          16.8550  -25.3656  -45.3387 O.2       1 UNK        -0.4969 
     27 C          22.8555  -25.0680  -45.0950 C.2       3 UNK         0.5005 
     28 O          22.9558  -24.4788  -44.0143 O.2       3 UNK        -0.5279 
     29 N          23.9044  -25.4644  -45.8287 N.am      4 UNK        -0.4463 
     30 CA         25.3040  -25.3349  -45.4118 C.3       4 UNK         0.0283 
     31 CB         26.2171  -25.4677  -46.6414 C.3       4 UNK        -0.1875 
     32 C          25.7018  -26.3597  -44.3340 C.2       4 UNK         0.4949 
     33 O          26.5757  -26.0664  -43.5175 O.2       4 UNK        -0.5039 
     34 N          25.0595  -27.5350  -44.3478 N.am      5 UNK        -0.4663 
     35 CA         25.1883  -28.5628  -43.3152 C.3       5 UNK         0.0242 
     36 CB         24.8872  -29.9351  -43.9399 C.3       5 UNK        -0.1982 
     37 C          24.2064  -28.2758  -42.1708 C.2       5 UNK         0.5017 
     38 O          23.1320  -27.7294  -42.4219 O.2       5 UNK        -0.5012 
     39 N          24.5699  -28.6765  -40.9458 N.am      6 UNK        -0.4439 
     40 CA         23.7002  -28.6052  -39.7680 C.3       6 UNK         0.0297 
     41 CB         24.5352  -28.8628  -38.5034 C.3       6 UNK        -0.2006 
     42 C          22.5554  -29.6256  -39.8673 C.2       6 UNK         0.4892 
     43 O          22.7737  -30.7293  -40.3723 O.2       6 UNK        -0.5089 
     44 N          21.3751  -29.2634  -39.3458 N.am      7 UNK        -0.4243 
     45 CA         20.1312  -30.0457  -39.3933 C.3       7 UNK         0.0196 
     46 CB         18.9347  -29.1052  -39.1521 C.3       7 UNK        -0.2007 
     47 C          20.1209  -31.2705  -38.4498 C.2       7 UNK         0.5020 
     48 O          19.1512  -31.4799  -37.7196 O.2       7 UNK        -0.5147 
     49 N          21.2021  -32.0549  -38.4767 N.am      8 UNK        -0.4734 
     50 CA         21.4163  -33.2591  -37.6697 C.3       8 UNK         0.0238 
     51 CB         22.5260  -32.9681  -36.6424 C.3       8 UNK        -0.1912 
     52 C          21.7643  -34.4867  -38.5321 C.2       8 UNK         0.5038 
     53 O          22.0695  -35.5407  -37.9712 O.2       8 UNK        -0.5046 
     54 N          21.7381  -34.3387  -39.8641 N.am      9 UNK        -0.4200 
     55 CA         22.0156  -35.4044  -40.8371 C.3       9 UNK         0.0839 
     56 C          20.9407  -36.5298  -40.8589 C.2       9 UNK         0.5513 
     57 N          21.2918  -37.7070  -41.3590 N.am      9 UNK        -0.7519 
     58 O          19.7949  -36.3445  -40.4522 O.2       9 UNK        -0.4960 
     59 C59        22.3181  -34.8240  -42.2460 C.3       10 UNK        -0.0876 
     60 S60        20.9055  -34.0190  -43.0835 S.3       10 UNK        -0.2414 
     61 C61        21.1818  -32.2746  -42.6609 C.3       10 UNK         0.0169 
     62 H62        20.6471  -27.4037  -41.5666 H         1 UNK         0.0903 
     63 H63        21.3913  -25.8056  -41.6760 H         1 UNK         0.0903 
     64 H64        20.6222  -26.3200  -40.1725 H         1 UNK         0.0903 
     65 H65        18.7883  -27.4119  -42.8216 H         1 UNK         0.3096 
     66 H66        16.6163  -25.6021  -42.2575 H         1 UNK         0.1121 
     67 H67        15.2717  -27.0527  -43.6117 H         1 UNK         0.0849 
     68 H68        16.6362  -27.7169  -44.4489 H         1 UNK         0.0849 
     69 H69        16.3101  -31.0559  -42.8777 H         1 UNK         0.0865 
     70 H70        16.0080  -30.0670  -44.2738 H         1 UNK         0.0865 
     71 H71        18.5791  -31.6203  -42.1602 H         1 UNK         0.1346 
     72 H72        21.7618  -30.9184  -44.9452 H         1 UNK         0.1412 
     73 H73        17.9439  -29.0888  -45.5685 H         1 UNK         0.1426 
     74 H74        19.6519  -28.7139  -47.1678 H         1 UNK         0.0716 
     75 H75        20.7802  -30.0361  -47.3305 H         1 UNK         0.0716 
     76 H76        21.2087  -27.0684  -44.2499 H         1 UNK         0.0695 
     77 H77        19.9485  -26.9371  -45.4401 H         1 UNK         0.0695 
     78 H78        21.4990  -25.2869  -46.7462 H         1 UNK         0.0983 
     79 H79        20.5592  -24.3306  -44.1066 H         1 UNK         0.3095 
     80 H80        19.0874  -22.2668  -44.3455 H         1 UNK         0.0454 
     81 H81        17.9061  -21.5228  -46.3751 H         1 UNK         0.0851 
     82 H82        16.9152  -22.9700  -46.3970 H         1 UNK         0.0851 
     83 H83        16.7389  -21.7980  -45.0922 H         1 UNK         0.0851 
     84 H84        18.2886  -23.8559  -42.9901 H         1 UNK         0.2976 
     85 H85        23.7319  -25.9498  -46.6985 H         1 UNK         0.3116 
     86 H86        25.4475  -24.3378  -44.9894 H         1 UNK         0.0646 
     87 H87        27.2650  -25.3490  -46.3622 H         1 UNK         0.0847 
     88 H88        25.9945  -24.7040  -47.3867 H         1 UNK         0.0847 
     89 H89        26.1167  -26.4437  -47.1181 H         1 UNK         0.0847 
     90 H90        24.3042  -27.6589  -45.0069 H         1 UNK         0.3040 
     91 H91        26.2081  -28.5662  -42.9235 H         1 UNK         0.1015 
     92 H92        25.5858  -30.1673  -44.7439 H         1 UNK         0.0786 
     93 H93        23.8778  -29.9750  -44.3502 H         1 UNK         0.0786 
     94 H94        24.9682  -30.7308  -43.1979 H         1 UNK         0.0786 
     95 H95        25.4466  -29.1636  -40.8306 H         1 UNK         0.3172 
     96 H96        23.2773  -27.5996  -39.7118 H         1 UNK         0.0595 
     97 H97        25.3395  -28.1337  -38.4023 H         1 UNK         0.0839 
     98 H98        24.9818  -29.8582  -38.5092 H         1 UNK         0.0839 
     99 H99        23.9194  -28.7893  -37.6059 H         1 UNK         0.0839 
    100 H100       21.3135  -28.3679  -38.8839 H         1 UNK         0.2998 
    101 H101       20.0251  -30.4341  -40.4062 H         1 UNK         0.0822 
    102 H102       18.8967  -28.3076  -39.8926 H         1 UNK         0.0787 
    103 H103       17.9892  -29.6444  -39.2287 H         1 UNK         0.0787 
    104 H104       18.9721  -28.6485  -38.1624 H         1 UNK         0.0787 
    105 H105       21.9562  -31.7787  -39.1041 H         1 UNK         0.3055 
    106 H106       20.5041  -33.5183  -37.1277 H         1 UNK         0.1106 
    107 H107       23.4737  -32.7344  -37.1291 H         1 UNK         0.0828 
    108 H108       22.2613  -32.1258  -36.0030 H         1 UNK         0.0828 
    109 H109       22.6953  -33.8256  -35.9897 H         1 UNK         0.0828 
    110 H110       21.4281  -33.4592  -40.2448 H         1 UNK         0.2931 
    111 H111       22.9384  -35.8795  -40.4971 H         1 UNK         0.0412 
    112 H112       22.2267  -37.8737  -41.6984 H         1 UNK         0.3472 
    113 H113       20.6087  -38.4482  -41.3922 H         1 UNK         0.3472 
    114 H114       22.6745  -35.6206  -42.9012 H         1 UNK         0.0970 
    115 H115       23.1502  -34.1209  -42.1828 H         1 UNK         0.0970 
    116 H116       20.9930  -32.1435  -41.5978 H         1 UNK         0.0612 
    117 H117       22.2263  -32.0087  -42.8320 H         1 UNK         0.0612 
@<TRIPOS>BOND
     1    1    2 1    
     2    1   62 1    
     3    1   63 1    
     4    1   64 1    
     5    2    3 2    
     6    2    4 am   BACKBONE|DICT|INTERRES
     7    4    5 1    
     8    4   65 1    
     9    5    6 1    
    10    5   25 1    
    11    5   66 1    
    12    6    7 1    
    13    6   67 1    
    14    6   68 1    
    15    7    8 1    
    16    8    9 1    
    17    8   69 1    
    18    8   70 1    
    19    9   10 ar   
    20    9   14 ar   
    21   10   11 ar   
    22   10   71 1    
    23   11   12 ar   
    24   11   61 1    
    25   12   13 ar   
    26   12   72 1    
    27   13   14 ar   
    28   13   15 1    
    29   14   73 1    
    30   15   16 1    
    31   15   74 1    
    32   15   75 1    
    33   16   17 1    
    34   17   18 1    
    35   17   76 1    
    36   17   77 1    
    37   18   19 1    
    38   18   27 1    
    39   18   78 1    
    40   19   20 am   BACKBONE|DICT|INTERRES
    41   19   79 1    
    42   20   21 2    
    43   20   22 1    
    44   22   23 1    
    45   22   24 1    
    46   22   80 1    
    47   23   81 1    
    48   23   82 1    
    49   23   83 1    
    50   24   25 am   BACKBONE|DICT|INTERRES
    51   24   84 1    
    52   25   26 2    
    53   27   28 2    
    54   27   29 am   BACKBONE|DICT|INTERRES
    55   29   30 1    
    56   29   85 1    
    57   30   31 1    
    58   30   32 1    
    59   30   86 1    
    60   31   87 1    
    61   31   88 1    
    62   31   89 1    
    63   32   33 2    
    64   32   34 am   BACKBONE|DICT|INTERRES
    65   34   35 1    
    66   34   90 1    
    67   35   36 1    
    68   35   37 1    
    69   35   91 1    
    70   36   92 1    
    71   36   93 1    
    72   36   94 1    
    73   37   38 2    
    74   37   39 am   BACKBONE|DICT|INTERRES
    75   39   40 1    
    76   39   95 1    
    77   40   41 1    
    78   40   42 1    
    79   40   96 1    
    80   41   97 1    
    81   41   98 1    
    82   41   99 1    
    83   42   43 2    
    84   42   44 am   BACKBONE|DICT|INTERRES
    85   44   45 1    
    86   44  100 1    
    87   45   46 1    
    88   45   47 1    
    89   45  101 1    
    90   46  102 1    
    91   46  103 1    
    92   46  104 1    
    93   47   48 2    
    94   47   49 am   BACKBONE|DICT|INTERRES
    95   49   50 1    
    96   49  105 1    
    97   50   51 1    
    98   50   52 1    
    99   50  106 1    
   100   51  107 1    
   101   51  108 1    
   102   51  109 1    
   103   52   53 2    
   104   52   54 am   BACKBONE|DICT|INTERRES
   105   54   55 1    
   106   54  110 1    
   107   55   56 1    
   108   55   59 1    
   109   55  111 1    
   110   56   57 am   BACKBONE|DICT|INTERRES
   111   56   58 2    
   112   57  112 1    
   113   57  113 1    
   114   59   60 1    
   115   59  114 1    
   116   59  115 1    
   117   60   61 1    
   118   61  116 1    
   119   61  117 1    
@<TRIPOS>SUBSTRUCTURE
     1 UNK         1 GROUP             0       ****    0 ROOT    
