@<TRIPOS>MOLECULE
3R8
117   119    1
SMALL
USER_CHARGES


@<TRIPOS>ATOM
      1 CA         11.0517  -25.2060  -43.3047 C.3       0 UNK        -0.2013 
      2 C          12.4100  -24.9822  -43.9525 C.2       0 UNK         0.4866 
      3 O          12.5808  -24.0206  -44.7027 O.2       0 UNK        -0.5176 
      4 N          13.3771  -25.8575  -43.6660 N.am      1 UNK        -0.4884 
      5 CA         14.7454  -25.8119  -44.1802 C.3       1 UNK         0.0853 
      6 C6         14.8674  -26.2898  -45.6540 C.3       10 UNK        -0.0849 
      7 S7         14.1405  -27.9347  -45.9766 S.3       10 UNK        -0.2776 
      8 C8         15.3418  -28.6525  -47.1451 C.3       10 UNK         0.0316 
      9 C9         16.5510  -29.2960  -46.4721 C.ar      10 UNK        -0.0863 
     10 C10        16.3799  -30.2287  -45.4423 C.ar      10 UNK        -0.1009 
     11 C11        17.4758  -30.9154  -44.9113 C.ar      10 UNK        -0.0712 
     12 C12        18.7519  -30.6680  -45.4266 C.ar      10 UNK        -0.0894 
     13 C13        18.9452  -29.7174  -46.4302 C.ar      10 UNK        -0.0745 
     14 C14        17.8409  -29.0311  -46.9471 C.ar      10 UNK        -0.0972 
     15 C15        20.3377  -29.4817  -46.9998 C.3       10 UNK         0.0209 
     16 S16        21.1460  -28.0153  -46.2869 S.3       10 UNK        -0.2568 
     17 C17        21.8364  -28.6390  -44.7150 C.3       10 UNK        -0.0983 
     18 CA         21.6755  -27.6072  -43.5653 C.3       3 UNK         0.0876 
     19 N          20.3378  -27.6000  -42.9838 N.am      3 UNK        -0.4424 
     20 C          19.3432  -26.7831  -43.3323 C.2       2 UNK         0.4918 
     21 O          19.4285  -25.9124  -44.2031 O.2       2 UNK        -0.4875 
     22 CA         18.0362  -26.9408  -42.5478 C.3       2 UNK         0.0481 
     23 CB         18.1234  -26.2449  -41.1758 C.3       2 UNK        -0.1831 
     24 N          16.9680  -26.3433  -43.3387 N.am      2 UNK        -0.4498 
     25 C          15.6611  -26.5876  -43.2187 C.2       1 UNK         0.5027 
     26 O          15.1739  -27.3637  -42.3903 O.2       1 UNK        -0.4969 
     27 C          22.6330  -27.8583  -42.3927 C.2       3 UNK         0.5005 
     28 O          22.9436  -29.0090  -42.0790 O.2       3 UNK        -0.5279 
     29 N          23.0404  -26.7690  -41.7270 N.am      4 UNK        -0.4463 
     30 CA         23.9119  -26.7843  -40.5476 C.3       4 UNK         0.0283 
     31 CB         23.8377  -25.4164  -39.8503 C.3       4 UNK        -0.1875 
     32 C          25.3757  -27.1548  -40.8503 C.2       4 UNK         0.4949 
     33 O          26.1167  -27.4577  -39.9143 O.2       4 UNK        -0.5039 
     34 N          25.7722  -27.1310  -42.1319 N.am      5 UNK        -0.4663 
     35 CA         27.0861  -27.5454  -42.6307 C.3       5 UNK         0.0242 
     36 CB         27.1310  -27.3541  -44.1559 C.3       5 UNK        -0.1982 
     37 C          27.3887  -29.0040  -42.2479 C.2       5 UNK         0.5017 
     38 O          26.6814  -29.9062  -42.6997 O.2       5 UNK        -0.5012 
     39 N          28.3824  -29.1879  -41.3658 N.am      6 UNK        -0.4439 
     40 CA         28.7743  -30.4507  -40.7218 C.3       6 UNK         0.0297 
     41 CB         29.3585  -31.4337  -41.7592 C.3       6 UNK        -0.2006 
     42 C          27.6584  -31.0947  -39.8666 C.2       6 UNK         0.4892 
     43 O          27.7202  -32.2976  -39.6073 O.2       6 UNK        -0.5089 
     44 N          26.6662  -30.2899  -39.4475 N.am      7 UNK        -0.4243 
     45 CA         25.4485  -30.6717  -38.7219 C.3       7 UNK         0.0196 
     46 CB         25.7862  -31.0798  -37.2722 C.3       7 UNK        -0.2007 
     47 C          24.6066  -31.7284  -39.4673 C.2       7 UNK         0.5020 
     48 O          24.0637  -32.6361  -38.8350 O.2       7 UNK        -0.5147 
     49 N          24.5271  -31.6066  -40.8012 N.am      8 UNK        -0.4734 
     50 CA         23.8357  -32.5517  -41.6836 C.3       8 UNK         0.0238 
     51 CB         24.1580  -32.2142  -43.1485 C.3       8 UNK        -0.1912 
     52 C          22.3146  -32.6113  -41.4650 C.2       8 UNK         0.5038 
     53 O          21.7364  -33.6940  -41.5703 O.2       8 UNK        -0.5046 
     54 N          21.6986  -31.4622  -41.1702 N.am      9 UNK        -0.4200 
     55 CA         20.2607  -31.3139  -40.9433 C.3       9 UNK         0.0839 
     56 C          20.0257  -30.0847  -40.0374 C.2       9 UNK         0.5513 
     57 N          19.6414  -30.2875  -38.7854 N.am      9 UNK        -0.7519 
     58 O          20.1744  -28.9469  -40.4735 O.2       9 UNK        -0.4960 
     59 C59        19.5096  -31.2231  -42.2937 C.3       10 UNK        -0.0876 
     60 S60        17.6944  -31.3179  -42.1644 S.3       10 UNK        -0.2414 
     61 C61        17.2727  -31.9579  -43.8179 C.3       10 UNK         0.0169 
     62 H62        10.7812  -24.3463  -42.6923 H         1 UNK         0.0903 
     63 H63        10.2875  -25.3333  -44.0710 H         1 UNK         0.0903 
     64 H64        11.0445  -26.0914  -42.6690 H         1 UNK         0.0903 
     65 H65        13.2194  -26.6184  -43.0156 H         1 UNK         0.3096 
     66 H66        15.0747  -24.7709  -44.1348 H         1 UNK         0.1121 
     67 H67        14.3630  -25.5760  -46.3070 H         1 UNK         0.0849 
     68 H68        15.9118  -26.2819  -45.9716 H         1 UNK         0.0849 
     69 H69        14.8327  -29.4220  -47.7270 H         1 UNK         0.0865 
     70 H70        15.6481  -27.8886  -47.8617 H         1 UNK         0.0865 
     71 H71        15.3858  -30.4416  -45.0734 H         1 UNK         0.1346 
     72 H72        19.6007  -31.2237  -45.0569 H         1 UNK         0.1412 
     73 H73        17.9867  -28.3186  -47.7478 H         1 UNK         0.1426 
     74 H74        20.2634  -29.3437  -48.0795 H         1 UNK         0.0716 
     75 H75        20.9726  -30.3570  -46.8535 H         1 UNK         0.0716 
     76 H76        22.8920  -28.8501  -44.8978 H         1 UNK         0.0695 
     77 H77        21.3810  -29.5931  -44.4488 H         1 UNK         0.0695 
     78 H78        21.9106  -26.6163  -43.9615 H         1 UNK         0.0983 
     79 H79        20.2212  -28.1939  -42.1639 H         1 UNK         0.3095 
     80 H80        17.8373  -28.0068  -42.4147 H         1 UNK         0.0454 
     81 H81        18.9510  -26.6339  -40.5829 H         1 UNK         0.0851 
     82 H82        17.2145  -26.3981  -40.5941 H         1 UNK         0.0851 
     83 H83        18.2775  -25.1703  -41.2801 H         1 UNK         0.0851 
     84 H84        17.3084  -25.7282  -44.0686 H         1 UNK         0.2976 
     85 H85        22.7124  -25.8627  -42.0305 H         1 UNK         0.3116 
     86 H86        23.5278  -27.5382  -39.8567 H         1 UNK         0.0646 
     87 H87        24.1996  -24.6135  -40.4937 H         1 UNK         0.0847 
     88 H88        22.8168  -25.1766  -39.5524 H         1 UNK         0.0847 
     89 H89        24.4461  -25.4060  -38.9447 H         1 UNK         0.0847 
     90 H90        25.0853  -26.8856  -42.8283 H         1 UNK         0.3040 
     91 H91        27.8365  -26.8914  -42.1813 H         1 UNK         0.1015 
     92 H92        28.1011  -27.6510  -44.5570 H         1 UNK         0.0786 
     93 H93        26.9733  -26.3111  -44.4312 H         1 UNK         0.0786 
     94 H94        26.3727  -27.9539  -44.6615 H         1 UNK         0.0786 
     95 H95        28.8720  -28.3684  -41.0317 H         1 UNK         0.3172 
     96 H96        29.5735  -30.1965  -40.0242 H         1 UNK         0.0595 
     97 H97        28.5946  -31.7968  -42.4477 H         1 UNK         0.0839 
     98 H98        29.7946  -32.3063  -41.2713 H         1 UNK         0.0839 
     99 H99        30.1479  -30.9678  -42.3487 H         1 UNK         0.0839 
    100 H100       26.7116  -29.3080  -39.7068 H         1 UNK         0.2998 
    101 H101       24.8290  -29.7747  -38.6751 H         1 UNK         0.0822 
    102 H102       24.8786  -31.2445  -36.6901 H         1 UNK         0.0787 
    103 H103       26.3579  -30.3028  -36.7649 H         1 UNK         0.0787 
    104 H104       26.3674  -32.0019  -37.2366 H         1 UNK         0.0787 
    105 H105       25.0079  -30.8383  -41.2536 H         1 UNK         0.3055 
    106 H106       24.2300  -33.5476  -41.4700 H         1 UNK         0.1106 
    107 H107       25.2292  -32.2757  -43.3422 H         1 UNK         0.0828 
    108 H108       23.6653  -32.9097  -43.8291 H         1 UNK         0.0828 
    109 H109       23.8295  -31.2085  -43.4138 H         1 UNK         0.0828 
    110 H110       22.2385  -30.5999  -41.1672 H         1 UNK         0.2931 
    111 H111       19.9056  -32.2007  -40.4134 H         1 UNK         0.0412 
    112 H112       19.5110  -31.2199  -38.4246 H         1 UNK         0.3472 
    113 H113       19.4775  -29.4912  -38.1897 H         1 UNK         0.3472 
    114 H114       19.7758  -30.3071  -42.8196 H         1 UNK         0.0970 
    115 H115       19.8371  -32.0461  -42.9297 H         1 UNK         0.0970 
    116 H116       17.8662  -32.8476  -44.0335 H         1 UNK         0.0612 
    117 H117       16.2328  -32.2875  -43.8035 H         1 UNK         0.0612 
@<TRIPOS>BOND
     1    1    2 1    
     2    1   62 1    
     3    1   63 1    
     4    1   64 1    
     5    2    3 2    
     6    2    4 am   BACKBONE|DICT|INTERRES
     7    4    5 1    
     8    4   65 1    
     9    5    6 1    
    10    5   25 1    
    11    5   66 1    
    12    6    7 1    
    13    6   67 1    
    14    6   68 1    
    15    7    8 1    
    16    8    9 1    
    17    8   69 1    
    18    8   70 1    
    19    9   10 ar   
    20    9   14 ar   
    21   10   11 ar   
    22   10   71 1    
    23   11   12 ar   
    24   11   61 1    
    25   12   13 ar   
    26   12   72 1    
    27   13   14 ar   
    28   13   15 1    
    29   14   73 1    
    30   15   16 1    
    31   15   74 1    
    32   15   75 1    
    33   16   17 1    
    34   17   18 1    
    35   17   76 1    
    36   17   77 1    
    37   18   19 1    
    38   18   27 1    
    39   18   78 1    
    40   19   20 am   BACKBONE|DICT|INTERRES
    41   19   79 1    
    42   20   21 2    
    43   20   22 1    
    44   22   23 1    
    45   22   24 1    
    46   22   80 1    
    47   23   81 1    
    48   23   82 1    
    49   23   83 1    
    50   24   25 am   BACKBONE|DICT|INTERRES
    51   24   84 1    
    52   25   26 2    
    53   27   28 2    
    54   27   29 am   BACKBONE|DICT|INTERRES
    55   29   30 1    
    56   29   85 1    
    57   30   31 1    
    58   30   32 1    
    59   30   86 1    
    60   31   87 1    
    61   31   88 1    
    62   31   89 1    
    63   32   33 2    
    64   32   34 am   BACKBONE|DICT|INTERRES
    65   34   35 1    
    66   34   90 1    
    67   35   36 1    
    68   35   37 1    
    69   35   91 1    
    70   36   92 1    
    71   36   93 1    
    72   36   94 1    
    73   37   38 2    
    74   37   39 am   BACKBONE|DICT|INTERRES
    75   39   40 1    
    76   39   95 1    
    77   40   41 1    
    78   40   42 1    
    79   40   96 1    
    80   41   97 1    
    81   41   98 1    
    82   41   99 1    
    83   42   43 2    
    84   42   44 am   BACKBONE|DICT|INTERRES
    85   44   45 1    
    86   44  100 1    
    87   45   46 1    
    88   45   47 1    
    89   45  101 1    
    90   46  102 1    
    91   46  103 1    
    92   46  104 1    
    93   47   48 2    
    94   47   49 am   BACKBONE|DICT|INTERRES
    95   49   50 1    
    96   49  105 1    
    97   50   51 1    
    98   50   52 1    
    99   50  106 1    
   100   51  107 1    
   101   51  108 1    
   102   51  109 1    
   103   52   53 2    
   104   52   54 am   BACKBONE|DICT|INTERRES
   105   54   55 1    
   106   54  110 1    
   107   55   56 1    
   108   55   59 1    
   109   55  111 1    
   110   56   57 am   BACKBONE|DICT|INTERRES
   111   56   58 2    
   112   57  112 1    
   113   57  113 1    
   114   59   60 1    
   115   59  114 1    
   116   59  115 1    
   117   60   61 1    
   118   61  116 1    
   119   61  117 1    
@<TRIPOS>SUBSTRUCTURE
     1 UNK         1 GROUP             0       ****    0 ROOT    
