@<TRIPOS>MOLECULE
3R8
117   119    1
SMALL
USER_CHARGES


@<TRIPOS>ATOM
      1 CA         17.9976  -26.6500  -40.9129 C.3       0 UNK        -0.2013 
      2 C          17.4808  -26.0041  -42.1881 C.2       0 UNK         0.4866 
      3 O          16.9729  -24.8832  -42.1392 O.2       0 UNK        -0.5176 
      4 N          17.6059  -26.7042  -43.3232 N.am      1 UNK        -0.4884 
      5 CA         17.2081  -26.2262  -44.6543 C.3       1 UNK         0.0853 
      6 C6         16.6370  -27.3639  -45.5487 C.3       10 UNK        -0.0849 
      7 S7         15.3358  -28.3432  -44.7108 S.3       10 UNK        -0.2776 
      8 C8         16.0648  -30.0149  -44.6219 C.3       10 UNK         0.0316 
      9 C9         17.3284  -30.0591  -43.7719 C.ar      10 UNK        -0.0863 
     10 C10        17.2521  -30.2027  -42.3834 C.ar      10 UNK        -0.1009 
     11 C11        18.4160  -30.2495  -41.6090 C.ar      10 UNK        -0.0712 
     12 C12        19.6583  -30.1161  -42.2411 C.ar      10 UNK        -0.0894 
     13 C13        19.7559  -29.9624  -43.6241 C.ar      10 UNK        -0.0745 
     14 C14        18.5801  -29.9668  -44.3840 C.ar      10 UNK        -0.0972 
     15 C15        21.1473  -29.8051  -44.2406 C.3       10 UNK         0.0209 
     16 S16        21.1485  -29.2119  -45.9640 S.3       10 UNK        -0.2568 
     17 C17        22.7043  -28.2610  -46.0680 C.3       10 UNK        -0.0983 
     18 CA         22.5332  -26.7155  -45.9564 C.3       3 UNK         0.0876 
     19 N          21.2567  -26.2534  -46.5152 N.am      3 UNK        -0.4424 
     20 C          20.9968  -25.0417  -47.0183 C.2       2 UNK         0.4918 
     21 O          21.8429  -24.1575  -47.1493 O.2       2 UNK        -0.4875 
     22 CA         19.5321  -24.7593  -47.4150 C.3       2 UNK         0.0481 
     23 CB         19.3238  -25.0430  -48.9110 C.3       2 UNK        -0.1831 
     24 N          18.5197  -25.4942  -46.6361 N.am      2 UNK        -0.4498 
     25 C          18.3752  -25.4379  -45.3016 C.2       1 UNK         0.5027 
     26 O          19.1427  -24.7916  -44.5850 O.2       1 UNK        -0.4969 
     27 C          22.8191  -26.1762  -44.5325 C.2       3 UNK         0.5005 
     28 O          23.9260  -26.3909  -44.0365 O.2       3 UNK        -0.5279 
     29 N          21.8623  -25.4561  -43.9205 N.am      4 UNK        -0.4463 
     30 CA         21.9782  -24.6991  -42.6671 C.3       4 UNK         0.0283 
     31 CB         22.9412  -23.5055  -42.8439 C.3       4 UNK        -0.1875 
     32 C          22.3214  -25.5714  -41.4460 C.2       4 UNK         0.4949 
     33 O          23.2348  -25.2405  -40.6878 O.2       4 UNK        -0.5039 
     34 N          21.5596  -26.6620  -41.2777 N.am      5 UNK        -0.4663 
     35 CA         21.6788  -27.6752  -40.2226 C.3       5 UNK         0.0242 
     36 CB         21.4435  -27.0801  -38.8156 C.3       5 UNK        -0.1982 
     37 C          22.9907  -28.4655  -40.3554 C.2       5 UNK         0.5017 
     38 O          23.0157  -29.4583  -41.0832 O.2       5 UNK        -0.5012 
     39 N          24.0410  -28.0261  -39.6451 N.am      6 UNK        -0.4439 
     40 CA         25.4222  -28.5345  -39.6762 C.3       6 UNK         0.0297 
     41 CB         26.0696  -28.1965  -41.0364 C.3       6 UNK        -0.2006 
     42 C          25.5740  -30.0311  -39.3244 C.2       6 UNK         0.4892 
     43 O          26.5722  -30.6437  -39.7066 O.2       6 UNK        -0.5089 
     44 N          24.5730  -30.5939  -38.6280 N.am      7 UNK        -0.4243 
     45 CA         24.3799  -32.0204  -38.3299 C.3       7 UNK         0.0196 
     46 CB         25.4762  -32.5400  -37.3754 C.3       7 UNK        -0.2007 
     47 C          24.2216  -32.9032  -39.5891 C.2       7 UNK         0.5020 
     48 O          24.4275  -34.1148  -39.5105 O.2       7 UNK        -0.5147 
     49 N          23.8393  -32.2970  -40.7222 N.am      8 UNK        -0.4734 
     50 CA         23.6608  -32.9574  -42.0192 C.3       8 UNK         0.0238 
     51 CB         24.2370  -32.0395  -43.1134 C.3       8 UNK        -0.1912 
     52 C          22.1908  -33.3262  -42.2991 C.2       8 UNK         0.5038 
     53 O          21.8690  -33.6963  -43.4291 O.2       8 UNK        -0.5046 
     54 N          21.3289  -33.2015  -41.2820 N.am      9 UNK        -0.4200 
     55 CA         19.8872  -33.4821  -41.3185 C.3       9 UNK         0.0839 
     56 C          19.5544  -34.9510  -41.6961 C.2       9 UNK         0.5513 
     57 N          18.4873  -35.1708  -42.4518 N.am      9 UNK        -0.7519 
     58 O          20.2228  -35.8903  -41.2688 O.2       9 UNK        -0.4960 
     59 C59        19.1970  -33.1016  -39.9795 C.3       10 UNK        -0.0876 
     60 S60        19.6289  -31.4370  -39.3592 S.3       10 UNK        -0.2414 
     61 C61        18.3108  -30.4098  -40.0930 C.3       10 UNK         0.0169 
     62 H62        17.1659  -27.0205  -40.3143 H         1 UNK         0.0903 
     63 H63        18.6639  -27.4818  -41.1289 H         1 UNK         0.0903 
     64 H64        18.5507  -25.9227  -40.3192 H         1 UNK         0.0903 
     65 H65        17.9907  -27.6388  -43.2971 H         1 UNK         0.3096 
     66 H66        16.4034  -25.4980  -44.5295 H         1 UNK         0.1121 
     67 H67        16.1807  -26.9415  -46.4456 H         1 UNK         0.0849 
     68 H68        17.4291  -28.0220  -45.9026 H         1 UNK         0.0849 
     69 H69        15.3233  -30.6992  -44.2069 H         1 UNK         0.0865 
     70 H70        16.2694  -30.3732  -45.6321 H         1 UNK         0.0865 
     71 H71        16.2838  -30.2807  -41.9078 H         1 UNK         0.1346 
     72 H72        20.5664  -30.1581  -41.6591 H         1 UNK         0.1412 
     73 H73        18.6249  -29.8911  -45.4601 H         1 UNK         0.1426 
     74 H74        21.6561  -30.7684  -44.2065 H         1 UNK         0.0716 
     75 H75        21.7300  -29.1161  -43.6267 H         1 UNK         0.0716 
     76 H76        23.1289  -28.4888  -47.0468 H         1 UNK         0.0695 
     77 H77        23.4294  -28.6536  -45.3521 H         1 UNK         0.0695 
     78 H78        23.3224  -26.2737  -46.5693 H         1 UNK         0.0983 
     79 H79        20.5065  -26.9282  -46.4711 H         1 UNK         0.3095 
     80 H80        19.3553  -23.6951  -47.2462 H         1 UNK         0.0454 
     81 H81        20.0435  -24.4909  -49.5174 H         1 UNK         0.0851 
     82 H82        18.3297  -24.7399  -49.2398 H         1 UNK         0.0851 
     83 H83        19.4480  -26.1015  -49.1431 H         1 UNK         0.0851 
     84 H84        17.8608  -26.0417  -47.1707 H         1 UNK         0.2976 
     85 H85        20.9714  -25.3359  -44.3960 H         1 UNK         0.3116 
     86 H86        20.9868  -24.2871  -42.4719 H         1 UNK         0.0646 
     87 H87        23.9681  -23.8339  -43.0078 H         1 UNK         0.0847 
     88 H88        22.6490  -22.8821  -43.6890 H         1 UNK         0.0847 
     89 H89        22.9419  -22.8693  -41.9580 H         1 UNK         0.0847 
     90 H90        20.8768  -26.8561  -41.9954 H         1 UNK         0.3040 
     91 H91        20.8735  -28.3888  -40.3840 H         1 UNK         0.1015 
     92 H92        21.5128  -27.8542  -38.0501 H         1 UNK         0.0786 
     93 H93        20.4464  -26.6470  -38.7387 H         1 UNK         0.0786 
     94 H94        22.1577  -26.2991  -38.5555 H         1 UNK         0.0786 
     95 H95        23.9017  -27.1806  -39.1075 H         1 UNK         0.3172 
     96 H96        25.9648  -27.9868  -38.9046 H         1 UNK         0.0595 
     97 H97        25.6181  -28.7668  -41.8494 H         1 UNK         0.0839 
     98 H98        27.1369  -28.4211  -41.0340 H         1 UNK         0.0839 
     99 H99        25.9630  -27.1380  -41.2750 H         1 UNK         0.0839 
    100 H100       23.8091  -29.9886  -38.3623 H         1 UNK         0.2998 
    101 H101       23.4278  -32.0889  -37.8014 H         1 UNK         0.0822 
    102 H102       25.2474  -33.5481  -37.0274 H         1 UNK         0.0787 
    103 H103       25.5661  -31.9077  -36.4921 H         1 UNK         0.0787 
    104 H104       26.4517  -32.5796  -37.8610 H         1 UNK         0.0787 
    105 H105       23.6616  -31.2956  -40.7100 H         1 UNK         0.3055 
    106 H106       24.2234  -33.8934  -42.0388 H         1 UNK         0.1106 
    107 H107       25.2991  -31.8555  -42.9508 H         1 UNK         0.0828 
    108 H108       24.1363  -32.4862  -44.1034 H         1 UNK         0.0828 
    109 H109       23.7357  -31.0723  -43.1360 H         1 UNK         0.0828 
    110 H110       21.6913  -32.8884  -40.3950 H         1 UNK         0.2931 
    111 H111       19.4743  -32.8486  -42.1042 H         1 UNK         0.0412 
    112 H112       18.2434  -36.1189  -42.6933 H         1 UNK         0.3472 
    113 H113       17.9288  -34.4061  -42.7987 H         1 UNK         0.3472 
    114 H114       18.1123  -33.1737  -40.0790 H         1 UNK         0.0970 
    115 H115       19.4714  -33.8153  -39.2001 H         1 UNK         0.0970 
    116 H116       17.3435  -30.8327  -39.8174 H         1 UNK         0.0612 
    117 H117       18.3552  -29.4213  -39.6358 H         1 UNK         0.0612 
@<TRIPOS>BOND
     1    1    2 1    
     2    1   62 1    
     3    1   63 1    
     4    1   64 1    
     5    2    3 2    
     6    2    4 am   BACKBONE|DICT|INTERRES
     7    4    5 1    
     8    4   65 1    
     9    5    6 1    
    10    5   25 1    
    11    5   66 1    
    12    6    7 1    
    13    6   67 1    
    14    6   68 1    
    15    7    8 1    
    16    8    9 1    
    17    8   69 1    
    18    8   70 1    
    19    9   10 ar   
    20    9   14 ar   
    21   10   11 ar   
    22   10   71 1    
    23   11   12 ar   
    24   11   61 1    
    25   12   13 ar   
    26   12   72 1    
    27   13   14 ar   
    28   13   15 1    
    29   14   73 1    
    30   15   16 1    
    31   15   74 1    
    32   15   75 1    
    33   16   17 1    
    34   17   18 1    
    35   17   76 1    
    36   17   77 1    
    37   18   19 1    
    38   18   27 1    
    39   18   78 1    
    40   19   20 am   BACKBONE|DICT|INTERRES
    41   19   79 1    
    42   20   21 2    
    43   20   22 1    
    44   22   23 1    
    45   22   24 1    
    46   22   80 1    
    47   23   81 1    
    48   23   82 1    
    49   23   83 1    
    50   24   25 am   BACKBONE|DICT|INTERRES
    51   24   84 1    
    52   25   26 2    
    53   27   28 2    
    54   27   29 am   BACKBONE|DICT|INTERRES
    55   29   30 1    
    56   29   85 1    
    57   30   31 1    
    58   30   32 1    
    59   30   86 1    
    60   31   87 1    
    61   31   88 1    
    62   31   89 1    
    63   32   33 2    
    64   32   34 am   BACKBONE|DICT|INTERRES
    65   34   35 1    
    66   34   90 1    
    67   35   36 1    
    68   35   37 1    
    69   35   91 1    
    70   36   92 1    
    71   36   93 1    
    72   36   94 1    
    73   37   38 2    
    74   37   39 am   BACKBONE|DICT|INTERRES
    75   39   40 1    
    76   39   95 1    
    77   40   41 1    
    78   40   42 1    
    79   40   96 1    
    80   41   97 1    
    81   41   98 1    
    82   41   99 1    
    83   42   43 2    
    84   42   44 am   BACKBONE|DICT|INTERRES
    85   44   45 1    
    86   44  100 1    
    87   45   46 1    
    88   45   47 1    
    89   45  101 1    
    90   46  102 1    
    91   46  103 1    
    92   46  104 1    
    93   47   48 2    
    94   47   49 am   BACKBONE|DICT|INTERRES
    95   49   50 1    
    96   49  105 1    
    97   50   51 1    
    98   50   52 1    
    99   50  106 1    
   100   51  107 1    
   101   51  108 1    
   102   51  109 1    
   103   52   53 2    
   104   52   54 am   BACKBONE|DICT|INTERRES
   105   54   55 1    
   106   54  110 1    
   107   55   56 1    
   108   55   59 1    
   109   55  111 1    
   110   56   57 am   BACKBONE|DICT|INTERRES
   111   56   58 2    
   112   57  112 1    
   113   57  113 1    
   114   59   60 1    
   115   59  114 1    
   116   59  115 1    
   117   60   61 1    
   118   61  116 1    
   119   61  117 1    
@<TRIPOS>SUBSTRUCTURE
     1 UNK         1 GROUP             0       ****    0 ROOT    
