@<TRIPOS>MOLECULE
3R8
117   119    1
SMALL
USER_CHARGES


@<TRIPOS>ATOM
      1 CA         19.1985  -23.8720  -49.7240 C.3       0 UNK        -0.2013 
      2 C          19.7709  -24.9057  -48.7656 C.2       0 UNK         0.4866 
      3 O          20.5795  -25.7397  -49.1742 O.2       0 UNK        -0.5176 
      4 N          19.3626  -24.8555  -47.4950 N.am      1 UNK        -0.4884 
      5 CA         19.7974  -25.7538  -46.4268 C.3       1 UNK         0.0853 
      6 C6         19.1146  -27.1506  -46.4914 C.3       10 UNK        -0.0849 
      7 S7         17.2869  -27.1047  -46.4679 S.3       10 UNK        -0.2776 
      8 C8         16.8781  -28.8756  -46.6025 C.3       10 UNK         0.0316 
      9 C9         17.2604  -29.6548  -45.3506 C.ar      10 UNK        -0.0863 
     10 C10        18.2588  -30.6318  -45.3997 C.ar      10 UNK        -0.1009 
     11 C11        18.6046  -31.3567  -44.2540 C.ar      10 UNK        -0.0712 
     12 C12        17.9566  -31.0792  -43.0442 C.ar      10 UNK        -0.0894 
     13 C13        16.9401  -30.1207  -42.9880 C.ar      10 UNK        -0.0745 
     14 C14        16.5957  -29.4157  -44.1452 C.ar      10 UNK        -0.0972 
     15 C15        16.1738  -29.8712  -41.6974 C.3       10 UNK         0.0209 
     16 S16        16.4698  -28.1988  -41.0433 S.3       10 UNK        -0.2568 
     17 C17        17.8502  -28.4610  -39.8788 C.3       10 UNK        -0.0983 
     18 CA         19.2537  -28.1663  -40.4692 C.3       3 UNK         0.0876 
     19 N          19.2964  -26.8928  -41.1951 N.am      3 UNK        -0.4424 
     20 C          20.3637  -26.3602  -41.8007 C.2       2 UNK         0.4918 
     21 O          21.5003  -26.8401  -41.7768 O.2       2 UNK        -0.4875 
     22 CA         20.1076  -25.1160  -42.6500 C.3       2 UNK         0.0481 
     23 CB         21.0793  -23.9723  -42.3093 C.3       2 UNK        -0.1831 
     24 N          20.2708  -25.5311  -44.0385 N.am      2 UNK        -0.4498 
     25 C          19.5798  -25.0480  -45.0759 C.2       1 UNK         0.5027 
     26 O          18.7933  -24.0986  -44.9977 O.2       1 UNK        -0.4969 
     27 C          20.3095  -28.2112  -39.3472 C.2       3 UNK         0.5005 
     28 O          20.2805  -27.3520  -38.4626 O.2       3 UNK        -0.5279 
     29 N          21.2368  -29.1752  -39.4229 N.am      4 UNK        -0.4463 
     30 CA         22.3765  -29.4292  -38.5264 C.3       4 UNK         0.0283 
     31 CB         21.9137  -29.7183  -37.0856 C.3       4 UNK        -0.1875 
     32 C          23.4785  -28.3524  -38.5495 C.2       4 UNK         0.4949 
     33 O          24.6522  -28.7012  -38.4262 O.2       4 UNK        -0.5039 
     34 N          23.0998  -27.0793  -38.7161 N.am      5 UNK        -0.4663 
     35 CA         23.9939  -25.9230  -38.8130 C.3       5 UNK         0.0242 
     36 CB         23.1554  -24.6358  -38.7821 C.3       5 UNK        -0.1982 
     37 C          24.8922  -25.9518  -40.0608 C.2       5 UNK         0.5017 
     38 O          26.0387  -25.5079  -39.9856 O.2       5 UNK        -0.5012 
     39 N          24.3617  -26.4816  -41.1692 N.am      6 UNK        -0.4439 
     40 CA         25.0871  -26.7057  -42.4195 C.3       6 UNK         0.0297 
     41 CB         24.7912  -25.5685  -43.4125 C.3       6 UNK        -0.2006 
     42 C          24.7285  -28.0680  -43.0245 C.2       6 UNK         0.4892 
     43 O          25.6251  -28.7891  -43.4632 O.2       6 UNK        -0.5089 
     44 N          23.4317  -28.3984  -43.0377 N.am      7 UNK        -0.4243 
     45 CA         22.8854  -29.6316  -43.5881 C.3       7 UNK         0.0196 
     46 CB         21.6175  -29.2817  -44.3879 C.3       7 UNK        -0.2007 
     47 C          22.6103  -30.5951  -42.4270 C.2       7 UNK         0.5020 
     48 O          21.5250  -30.5704  -41.8438 O.2       7 UNK        -0.5147 
     49 N          23.6124  -31.4079  -42.0815 N.am      8 UNK        -0.4734 
     50 CA         23.5560  -32.3932  -40.9986 C.3       8 UNK         0.0238 
     51 CB         24.8694  -32.3229  -40.1959 C.3       8 UNK        -0.1912 
     52 C          23.2689  -33.7986  -41.5543 C.2       8 UNK         0.5038 
     53 O          24.0670  -34.7163  -41.3524 O.2       8 UNK        -0.5046 
     54 N          22.1443  -33.9364  -42.2673 N.am      9 UNK        -0.4200 
     55 CA         21.6384  -35.2169  -42.7839 C.3       9 UNK         0.0839 
     56 C          21.0330  -36.1234  -41.6744 C.2       9 UNK         0.5513 
     57 N          20.9190  -37.4197  -41.9310 N.am      9 UNK        -0.7519 
     58 O          20.6512  -35.6679  -40.5976 O.2       9 UNK        -0.4960 
     59 C59        20.6806  -35.0200  -43.9907 C.3       10 UNK        -0.0876 
     60 S60        19.1887  -34.0227  -43.6418 S.3       10 UNK        -0.2414 
     61 C61        19.6956  -32.4177  -44.3329 C.3       10 UNK         0.0169 
     62 H62        18.4970  -23.2011  -49.2283 H         1 UNK         0.0903 
     63 H63        20.0006  -23.2699  -50.1501 H         1 UNK         0.0903 
     64 H64        18.6735  -24.3678  -50.5401 H         1 UNK         0.0903 
     65 H65        18.7214  -24.1375  -47.1784 H         1 UNK         0.3096 
     66 H66        20.8760  -25.8941  -46.5326 H         1 UNK         0.1121 
     67 H67        19.4533  -27.7794  -45.6673 H         1 UNK         0.0849 
     68 H68        19.4288  -27.6655  -47.4005 H         1 UNK         0.0849 
     69 H69        15.8047  -28.9769  -46.7684 H         1 UNK         0.0865 
     70 H70        17.3624  -29.2911  -47.4876 H         1 UNK         0.0865 
     71 H71        18.7671  -30.8296  -46.3336 H         1 UNK         0.1346 
     72 H72        18.2295  -31.6292  -42.1540 H         1 UNK         0.1412 
     73 H73        15.8110  -28.6722  -44.1055 H         1 UNK         0.1426 
     74 H74        16.4097  -30.6237  -40.9437 H         1 UNK         0.0716 
     75 H75        15.1074  -29.9766  -41.9017 H         1 UNK         0.0716 
     76 H76        17.8097  -29.4794  -39.4885 H         1 UNK         0.0695 
     77 H77        17.6544  -27.8098  -39.0241 H         1 UNK         0.0695 
     78 H78        19.4807  -28.9465  -41.1989 H         1 UNK         0.0983 
     79 H79        18.4035  -26.4313  -41.2899 H         1 UNK         0.3095 
     80 H80        19.0845  -24.7721  -42.4813 H         1 UNK         0.0454 
     81 H81        22.1218  -24.2750  -42.4077 H         1 UNK         0.0851 
     82 H82        20.9325  -23.6340  -41.2834 H         1 UNK         0.0851 
     83 H83        20.9196  -23.1111  -42.9580 H         1 UNK         0.0851 
     84 H84        20.8885  -26.3192  -44.1740 H         1 UNK         0.2976 
     85 H85        21.2201  -29.7664  -40.2550 H         1 UNK         0.3116 
     86 H86        22.8403  -30.3404  -38.9016 H         1 UNK         0.0646 
     87 H87        21.4622  -28.8437  -36.6165 H         1 UNK         0.0847 
     88 H88        22.7562  -30.0185  -36.4612 H         1 UNK         0.0847 
     89 H89        21.1853  -30.5285  -37.0576 H         1 UNK         0.0847 
     90 H90        22.0992  -26.9008  -38.7482 H         1 UNK         0.3040 
     91 H91        24.6479  -25.9320  -37.9383 H         1 UNK         0.1015 
     92 H92        22.4516  -24.5960  -39.6136 H         1 UNK         0.0786 
     93 H93        23.7913  -23.7517  -38.8476 H         1 UNK         0.0786 
     94 H94        22.5847  -24.5566  -37.8565 H         1 UNK         0.0786 
     95 H95        23.3968  -26.7934  -41.1323 H         1 UNK         0.3172 
     96 H96        26.1615  -26.7191  -42.2232 H         1 UNK         0.0595 
     97 H97        23.7344  -25.5254  -43.6771 H         1 UNK         0.0839 
     98 H98        25.3529  -25.7046  -44.3376 H         1 UNK         0.0839 
     99 H99        25.0741  -24.5995  -43.0011 H         1 UNK         0.0839 
    100 H100       22.7507  -27.7741  -42.6113 H         1 UNK         0.2998 
    101 H101       23.5967  -30.0949  -44.2756 H         1 UNK         0.0822 
    102 H102       21.8210  -28.5035  -45.1232 H         1 UNK         0.0787 
    103 H103       21.2586  -30.1468  -44.9424 H         1 UNK         0.0787 
    104 H104       20.8034  -28.9360  -43.7488 H         1 UNK         0.0787 
    105 H105       24.4743  -31.3678  -42.6092 H         1 UNK         0.3055 
    106 H106       22.7370  -32.1639  -40.3142 H         1 UNK         0.1106 
    107 H107       25.7342  -32.5763  -40.8103 H         1 UNK         0.0828 
    108 H108       24.8514  -33.0168  -39.3544 H         1 UNK         0.0828 
    109 H109       25.0320  -31.3253  -39.7871 H         1 UNK         0.0828 
    110 H110       21.5206  -33.1465  -42.3466 H         1 UNK         0.2931 
    111 H111       22.5051  -35.7578  -43.1703 H         1 UNK         0.0412 
    112 H112       20.5218  -38.0245  -41.2286 H         1 UNK         0.3472 
    113 H113       21.2287  -37.8090  -42.8082 H         1 UNK         0.3472 
    114 H114       21.2315  -34.5675  -44.8165 H         1 UNK         0.0970 
    115 H115       20.3526  -35.9885  -44.3723 H         1 UNK         0.0970 
    116 H116       20.5704  -32.0673  -43.7927 H         1 UNK         0.0612 
    117 H117       20.0066  -32.5661  -45.3682 H         1 UNK         0.0612 
@<TRIPOS>BOND
     1    1    2 1    
     2    1   62 1    
     3    1   63 1    
     4    1   64 1    
     5    2    3 2    
     6    2    4 am   BACKBONE|DICT|INTERRES
     7    4    5 1    
     8    4   65 1    
     9    5    6 1    
    10    5   25 1    
    11    5   66 1    
    12    6    7 1    
    13    6   67 1    
    14    6   68 1    
    15    7    8 1    
    16    8    9 1    
    17    8   69 1    
    18    8   70 1    
    19    9   10 ar   
    20    9   14 ar   
    21   10   11 ar   
    22   10   71 1    
    23   11   12 ar   
    24   11   61 1    
    25   12   13 ar   
    26   12   72 1    
    27   13   14 ar   
    28   13   15 1    
    29   14   73 1    
    30   15   16 1    
    31   15   74 1    
    32   15   75 1    
    33   16   17 1    
    34   17   18 1    
    35   17   76 1    
    36   17   77 1    
    37   18   19 1    
    38   18   27 1    
    39   18   78 1    
    40   19   20 am   BACKBONE|DICT|INTERRES
    41   19   79 1    
    42   20   21 2    
    43   20   22 1    
    44   22   23 1    
    45   22   24 1    
    46   22   80 1    
    47   23   81 1    
    48   23   82 1    
    49   23   83 1    
    50   24   25 am   BACKBONE|DICT|INTERRES
    51   24   84 1    
    52   25   26 2    
    53   27   28 2    
    54   27   29 am   BACKBONE|DICT|INTERRES
    55   29   30 1    
    56   29   85 1    
    57   30   31 1    
    58   30   32 1    
    59   30   86 1    
    60   31   87 1    
    61   31   88 1    
    62   31   89 1    
    63   32   33 2    
    64   32   34 am   BACKBONE|DICT|INTERRES
    65   34   35 1    
    66   34   90 1    
    67   35   36 1    
    68   35   37 1    
    69   35   91 1    
    70   36   92 1    
    71   36   93 1    
    72   36   94 1    
    73   37   38 2    
    74   37   39 am   BACKBONE|DICT|INTERRES
    75   39   40 1    
    76   39   95 1    
    77   40   41 1    
    78   40   42 1    
    79   40   96 1    
    80   41   97 1    
    81   41   98 1    
    82   41   99 1    
    83   42   43 2    
    84   42   44 am   BACKBONE|DICT|INTERRES
    85   44   45 1    
    86   44  100 1    
    87   45   46 1    
    88   45   47 1    
    89   45  101 1    
    90   46  102 1    
    91   46  103 1    
    92   46  104 1    
    93   47   48 2    
    94   47   49 am   BACKBONE|DICT|INTERRES
    95   49   50 1    
    96   49  105 1    
    97   50   51 1    
    98   50   52 1    
    99   50  106 1    
   100   51  107 1    
   101   51  108 1    
   102   51  109 1    
   103   52   53 2    
   104   52   54 am   BACKBONE|DICT|INTERRES
   105   54   55 1    
   106   54  110 1    
   107   55   56 1    
   108   55   59 1    
   109   55  111 1    
   110   56   57 am   BACKBONE|DICT|INTERRES
   111   56   58 2    
   112   57  112 1    
   113   57  113 1    
   114   59   60 1    
   115   59  114 1    
   116   59  115 1    
   117   60   61 1    
   118   61  116 1    
   119   61  117 1    
@<TRIPOS>SUBSTRUCTURE
     1 UNK         1 GROUP             0       ****    0 ROOT    
