@<TRIPOS>MOLECULE
3R8
117   119    1
SMALL
USER_CHARGES


@<TRIPOS>ATOM
      1 CA         15.0244  -22.3483  -47.0954 C.3       0 UNK        -0.2013 
      2 C          16.4003  -22.8882  -46.7345 C.2       0 UNK         0.4866 
      3 O          17.3128  -22.1070  -46.4634 O.2       0 UNK        -0.5176 
      4 N          16.5597  -24.2177  -46.7361 N.am      1 UNK        -0.4884 
      5 CA         17.7909  -24.9107  -46.3463 C.3       1 UNK         0.0853 
      6 C6         17.7888  -26.3702  -46.8612 C.3       10 UNK        -0.0849 
      7 S7         19.4577  -27.1045  -46.9352 S.3       10 UNK        -0.2776 
      8 C8         19.0579  -28.8679  -47.1715 C.3       10 UNK         0.0316 
      9 C9         19.0224  -29.6192  -45.8481 C.ar      10 UNK        -0.0863 
     10 C10        20.1251  -30.3763  -45.4398 C.ar      10 UNK        -0.1009 
     11 C11        20.1095  -31.0556  -44.2174 C.ar      10 UNK        -0.0712 
     12 C12        18.9828  -30.9654  -43.3956 C.ar      10 UNK        -0.0894 
     13 C13        17.8746  -30.2136  -43.7942 C.ar      10 UNK        -0.0745 
     14 C14        17.8924  -29.5591  -45.0280 C.ar      10 UNK        -0.0972 
     15 C15        16.6680  -30.0752  -42.8805 C.3       10 UNK         0.0209 
     16 S16        16.6436  -28.4453  -42.0693 S.3       10 UNK        -0.2568 
     17 C17        18.0952  -28.5541  -40.9683 C.3       10 UNK        -0.0983 
     18 CA         19.3693  -27.8867  -41.5501 C.3       3 UNK         0.0876 
     19 N          19.1337  -26.4963  -41.9616 N.am      3 UNK        -0.4424 
     20 C          20.0456  -25.6562  -42.4674 C.2       2 UNK         0.4918 
     21 O          21.2444  -25.9191  -42.5768 O.2       2 UNK        -0.4875 
     22 CA         19.5191  -24.2995  -42.9550 C.3       2 UNK         0.0481 
     23 CB         20.5592  -23.1787  -42.7849 C.3       2 UNK        -0.1831 
     24 N          19.1513  -24.3982  -44.3653 N.am      2 UNK        -0.4498 
     25 C          17.9706  -24.8397  -44.8152 C.2       1 UNK         0.5027 
     26 O          17.0407  -25.1796  -44.0787 O.2       1 UNK        -0.4969 
     27 C          20.5395  -28.0485  -40.5592 C.2       3 UNK         0.5005 
     28 O          21.3779  -28.9319  -40.7438 O.2       3 UNK        -0.5279 
     29 N          20.5852  -27.1745  -39.5432 N.am      4 UNK        -0.4463 
     30 CA         21.6145  -27.1638  -38.5005 C.3       4 UNK         0.0283 
     31 CB         21.1478  -26.2776  -37.3345 C.3       4 UNK        -0.1875 
     32 C          22.9951  -26.7057  -39.0008 C.2       4 UNK         0.4949 
     33 O          24.0049  -27.1409  -38.4476 O.2       4 UNK        -0.5039 
     34 N          23.0208  -25.8405  -40.0245 N.am      5 UNK        -0.4663 
     35 CA         24.2517  -25.3751  -40.6677 C.3       5 UNK         0.0242 
     36 CB         23.9995  -24.0323  -41.3705 C.3       5 UNK        -0.1982 
     37 C          24.7932  -26.4160  -41.6581 C.2       5 UNK         0.5017 
     38 O          26.0081  -26.6033  -41.7289 O.2       5 UNK        -0.5012 
     39 N          23.8835  -27.0771  -42.3897 N.am      6 UNK        -0.4439 
     40 CA         24.1805  -28.1851  -43.2978 C.3       6 UNK         0.0297 
     41 CB         22.9297  -28.5206  -44.1259 C.3       6 UNK        -0.2006 
     42 C          24.7108  -29.4198  -42.5468 C.2       6 UNK         0.4892 
     43 O          25.7618  -29.9409  -42.9238 O.2       6 UNK        -0.5089 
     44 N          23.9993  -29.8130  -41.4769 N.am      7 UNK        -0.4243 
     45 CA         24.3095  -30.8895  -40.5270 C.3       7 UNK         0.0196 
     46 CB         25.6110  -30.5655  -39.7610 C.3       7 UNK        -0.2007 
     47 C          24.3368  -32.2987  -41.1554 C.2       7 UNK         0.5020 
     48 O          24.0564  -32.4663  -42.3413 O.2       7 UNK        -0.5147 
     49 N          24.6245  -33.3095  -40.3229 N.am      8 UNK        -0.4734 
     50 CA         24.7669  -34.7450  -40.6321 C.3       8 UNK         0.0238 
     51 CB         25.8909  -34.9834  -41.6612 C.3       8 UNK        -0.1912 
     52 C          23.4778  -35.4870  -41.0449 C.2       8 UNK         0.5038 
     53 O          23.4388  -36.7106  -40.9078 O.2       8 UNK        -0.5046 
     54 N          22.4525  -34.7671  -41.5174 N.am      9 UNK        -0.4200 
     55 CA         21.1412  -35.3087  -41.9189 C.3       9 UNK         0.0839 
     56 C          20.2919  -35.9085  -40.7592 C.2       9 UNK         0.5513 
     57 N          20.5879  -35.6203  -39.4972 N.am      9 UNK        -0.7519 
     58 O          19.3453  -36.6487  -41.0133 O.2       9 UNK        -0.4960 
     59 C59        20.2997  -34.2752  -42.7142 C.3       10 UNK        -0.0876 
     60 S60        21.1611  -33.6236  -44.1864 S.3       10 UNK        -0.2414 
     61 C61        21.3236  -31.8573  -43.7749 C.3       10 UNK         0.0169 
     62 H62        14.6209  -21.7666  -46.2670 H         1 UNK         0.0903 
     63 H63        15.0933  -21.6978  -47.9670 H         1 UNK         0.0903 
     64 H64        14.3190  -23.1471  -47.3239 H         1 UNK         0.0903 
     65 H65        15.7652  -24.8106  -46.9314 H         1 UNK         0.3096 
     66 H66        18.6212  -24.3836  -46.8228 H         1 UNK         0.1121 
     67 H67        17.1233  -26.9902  -46.2609 H         1 UNK         0.0849 
     68 H68        17.3897  -26.4030  -47.8766 H         1 UNK         0.0849 
     69 H69        19.8086  -29.3079  -47.8299 H         1 UNK         0.0865 
     70 H70        18.1051  -28.9752  -47.6923 H         1 UNK         0.0865 
     71 H71        21.0018  -30.4313  -46.0706 H         1 UNK         0.1346 
     72 H72        18.9730  -31.4631  -42.4369 H         1 UNK         0.1412 
     73 H73        17.0301  -28.9839  -45.3310 H         1 UNK         0.1426 
     74 H74        16.6535  -30.8629  -42.1255 H         1 UNK         0.0716 
     75 H75        15.7541  -30.1941  -43.4645 H         1 UNK         0.0716 
     76 H76        18.2842  -29.6034  -40.7334 H         1 UNK         0.0695 
     77 H77        17.8176  -28.0832  -40.0233 H         1 UNK         0.0695 
     78 H78        19.6559  -28.4215  -42.4570 H         1 UNK         0.0983 
     79 H79        18.1638  -26.2102  -41.9786 H         1 UNK         0.3095 
     80 H80        18.6436  -24.0303  -42.3600 H         1 UNK         0.0454 
     81 H81        20.1364  -22.2077  -43.0429 H         1 UNK         0.0851 
     82 H82        21.4344  -23.3365  -43.4157 H         1 UNK         0.0851 
     83 H83        20.9037  -23.1165  -41.7519 H         1 UNK         0.0851 
     84 H84        19.8761  -24.1756  -45.0326 H         1 UNK         0.2976 
     85 H85        19.8571  -26.4774  -39.4769 H         1 UNK         0.3116 
     86 H86        21.7253  -28.1845  -38.1275 H         1 UNK         0.0646 
     87 H87        21.8841  -26.2739  -36.5294 H         1 UNK         0.0847 
     88 H88        20.2106  -26.6385  -36.9104 H         1 UNK         0.0847 
     89 H89        21.0014  -25.2424  -37.6451 H         1 UNK         0.0847 
     90 H90        22.1479  -25.5698  -40.4553 H         1 UNK         0.3040 
     91 H91        25.0122  -25.2160  -39.8994 H         1 UNK         0.1015 
     92 H92        23.5967  -23.2895  -40.6818 H         1 UNK         0.0786 
     93 H93        23.3034  -24.1371  -42.2018 H         1 UNK         0.0786 
     94 H94        24.9279  -23.6287  -41.7768 H         1 UNK         0.0786 
     95 H95        22.9087  -26.7990  -42.3101 H         1 UNK         0.3172 
     96 H96        24.9592  -27.8496  -43.9859 H         1 UNK         0.0595 
     97 H97        22.1037  -28.8553  -43.4976 H         1 UNK         0.0839 
     98 H98        23.1417  -29.3135  -44.8436 H         1 UNK         0.0839 
     99 H99        22.5831  -27.6562  -44.6929 H         1 UNK         0.0839 
    100 H100       23.1169  -29.3381  -41.2949 H         1 UNK         0.2998 
    101 H101       23.4870  -30.8870  -39.8100 H         1 UNK         0.0822 
    102 H102       26.4895  -30.6526  -40.4013 H         1 UNK         0.0787 
    103 H103       25.5896  -29.5506  -39.3623 H         1 UNK         0.0787 
    104 H104       25.7578  -31.2355  -38.9138 H         1 UNK         0.0787 
    105 H105       24.7893  -33.0732  -39.3536 H         1 UNK         0.3055 
    106 H106       25.0834  -35.2116  -39.6975 H         1 UNK         0.1106 
    107 H107       26.8275  -34.5282  -41.3394 H         1 UNK         0.0828 
    108 H108       26.0786  -36.0499  -41.7931 H         1 UNK         0.0828 
    109 H109       25.6397  -34.5780  -42.6417 H         1 UNK         0.0828 
    110 H110       22.6168  -33.7848  -41.6986 H         1 UNK         0.2931 
    111 H111       21.3486  -36.1409  -42.5945 H         1 UNK         0.0412 
    112 H112       21.3626  -35.0148  -39.2789 H         1 UNK         0.3472 
    113 H113       20.0317  -36.0172  -38.7560 H         1 UNK         0.3472 
    114 H114       19.3685  -34.7285  -43.0602 H         1 UNK         0.0970 
    115 H115       20.0061  -33.4560  -42.0579 H         1 UNK         0.0970 
    116 H116       21.4903  -31.7262  -42.7048 H         1 UNK         0.0612 
    117 H117       22.2207  -31.4775  -44.2646 H         1 UNK         0.0612 
@<TRIPOS>BOND
     1    1    2 1    
     2    1   62 1    
     3    1   63 1    
     4    1   64 1    
     5    2    3 2    
     6    2    4 am   BACKBONE|DICT|INTERRES
     7    4    5 1    
     8    4   65 1    
     9    5    6 1    
    10    5   25 1    
    11    5   66 1    
    12    6    7 1    
    13    6   67 1    
    14    6   68 1    
    15    7    8 1    
    16    8    9 1    
    17    8   69 1    
    18    8   70 1    
    19    9   10 ar   
    20    9   14 ar   
    21   10   11 ar   
    22   10   71 1    
    23   11   12 ar   
    24   11   61 1    
    25   12   13 ar   
    26   12   72 1    
    27   13   14 ar   
    28   13   15 1    
    29   14   73 1    
    30   15   16 1    
    31   15   74 1    
    32   15   75 1    
    33   16   17 1    
    34   17   18 1    
    35   17   76 1    
    36   17   77 1    
    37   18   19 1    
    38   18   27 1    
    39   18   78 1    
    40   19   20 am   BACKBONE|DICT|INTERRES
    41   19   79 1    
    42   20   21 2    
    43   20   22 1    
    44   22   23 1    
    45   22   24 1    
    46   22   80 1    
    47   23   81 1    
    48   23   82 1    
    49   23   83 1    
    50   24   25 am   BACKBONE|DICT|INTERRES
    51   24   84 1    
    52   25   26 2    
    53   27   28 2    
    54   27   29 am   BACKBONE|DICT|INTERRES
    55   29   30 1    
    56   29   85 1    
    57   30   31 1    
    58   30   32 1    
    59   30   86 1    
    60   31   87 1    
    61   31   88 1    
    62   31   89 1    
    63   32   33 2    
    64   32   34 am   BACKBONE|DICT|INTERRES
    65   34   35 1    
    66   34   90 1    
    67   35   36 1    
    68   35   37 1    
    69   35   91 1    
    70   36   92 1    
    71   36   93 1    
    72   36   94 1    
    73   37   38 2    
    74   37   39 am   BACKBONE|DICT|INTERRES
    75   39   40 1    
    76   39   95 1    
    77   40   41 1    
    78   40   42 1    
    79   40   96 1    
    80   41   97 1    
    81   41   98 1    
    82   41   99 1    
    83   42   43 2    
    84   42   44 am   BACKBONE|DICT|INTERRES
    85   44   45 1    
    86   44  100 1    
    87   45   46 1    
    88   45   47 1    
    89   45  101 1    
    90   46  102 1    
    91   46  103 1    
    92   46  104 1    
    93   47   48 2    
    94   47   49 am   BACKBONE|DICT|INTERRES
    95   49   50 1    
    96   49  105 1    
    97   50   51 1    
    98   50   52 1    
    99   50  106 1    
   100   51  107 1    
   101   51  108 1    
   102   51  109 1    
   103   52   53 2    
   104   52   54 am   BACKBONE|DICT|INTERRES
   105   54   55 1    
   106   54  110 1    
   107   55   56 1    
   108   55   59 1    
   109   55  111 1    
   110   56   57 am   BACKBONE|DICT|INTERRES
   111   56   58 2    
   112   57  112 1    
   113   57  113 1    
   114   59   60 1    
   115   59  114 1    
   116   59  115 1    
   117   60   61 1    
   118   61  116 1    
   119   61  117 1    
@<TRIPOS>SUBSTRUCTURE
     1 UNK         1 GROUP             0       ****    0 ROOT    
