@<TRIPOS>MOLECULE
3R8
117   119    1
SMALL
USER_CHARGES


@<TRIPOS>ATOM
      1 CA         21.3630  -25.0079  -38.9639 C.3       0 UNK        -0.2013 
      2 C          20.2721  -25.0391  -40.0238 C.2       0 UNK         0.4866 
      3 O          19.4970  -24.0885  -40.1355 O.2       0 UNK        -0.5176 
      4 N          20.2044  -26.1300  -40.7959 N.am      1 UNK        -0.4884 
      5 CA         19.2637  -26.3364  -41.9018 C.3       1 UNK         0.0853 
      6 C6         19.3714  -27.7650  -42.4921 C.3       10 UNK        -0.0849 
      7 S7         19.0252  -29.0855  -41.2819 S.3       10 UNK        -0.2776 
      8 C8         18.1553  -30.3143  -42.3078 C.3       10 UNK         0.0316 
      9 C9         18.9698  -30.7441  -43.5225 C.ar      10 UNK        -0.0863 
     10 C10        20.1372  -31.4969  -43.3633 C.ar      10 UNK        -0.1009 
     11 C11        20.8751  -31.9217  -44.4782 C.ar      10 UNK        -0.0712 
     12 C12        20.4387  -31.5555  -45.7561 C.ar      10 UNK        -0.0894 
     13 C13        19.2816  -30.7914  -45.9291 C.ar      10 UNK        -0.0745 
     14 C14        18.5455  -30.3986  -44.8084 C.ar      10 UNK        -0.0972 
     15 C15        18.8181  -30.4021  -47.3273 C.3       10 UNK         0.0209 
     16 S16        19.7932  -29.0297  -48.0252 S.3       10 UNK        -0.2568 
     17 C17        19.3770  -27.6743  -46.8762 C.3       10 UNK        -0.0983 
     18 CA         20.2118  -26.3741  -47.0732 C.3       3 UNK         0.0876 
     19 N          19.8157  -25.3461  -46.1227 N.am      3 UNK        -0.4424 
     20 C          18.6468  -24.7080  -46.0603 C.2       2 UNK         0.4918 
     21 O          17.7645  -24.7974  -46.9154 O.2       2 UNK        -0.4875 
     22 CA         18.4189  -23.8863  -44.7739 C.3       2 UNK         0.0481 
     23 CB         17.1081  -23.0796  -44.8117 C.3       2 UNK        -0.1831 
     24 N          18.4148  -24.7548  -43.5882 N.am      2 UNK        -0.4498 
     25 C          19.4997  -25.3130  -43.0301 C.2       1 UNK         0.5027 
     26 O          20.6501  -25.1110  -43.4312 O.2       1 UNK        -0.4969 
     27 C          21.7337  -26.5281  -46.8833 C.2       3 UNK         0.5005 
     28 O          22.4840  -25.6380  -47.2869 O.2       3 UNK        -0.5279 
     29 N          22.1631  -27.6266  -46.2486 N.am      4 UNK        -0.4463 
     30 CA         23.5642  -27.9911  -46.0259 C.3       4 UNK         0.0283 
     31 CB         23.6253  -29.4996  -45.7342 C.3       4 UNK        -0.1875 
     32 C          24.2647  -27.2105  -44.8974 C.2       4 UNK         0.4949 
     33 O          25.4826  -27.3333  -44.7697 O.2       4 UNK        -0.5039 
     34 N          23.4994  -26.4734  -44.0757 N.am      5 UNK        -0.4663 
     35 CA         23.9278  -25.7529  -42.8636 C.3       5 UNK         0.0242 
     36 CB         24.9828  -24.6724  -43.1842 C.3       5 UNK        -0.1982 
     37 C          24.3535  -26.6759  -41.7022 C.2       5 UNK         0.5017 
     38 O          24.9481  -26.2010  -40.7331 O.2       5 UNK        -0.5012 
     39 N          24.0096  -27.9670  -41.7990 N.am      6 UNK        -0.4439 
     40 CA         24.1137  -28.9590  -40.7295 C.3       6 UNK         0.0297 
     41 CB         23.9560  -30.3593  -41.3459 C.3       6 UNK        -0.2006 
     42 C          23.0246  -28.7232  -39.6719 C.2       6 UNK         0.4892 
     43 O          21.9950  -28.1269  -39.9887 O.2       6 UNK        -0.5089 
     44 N          23.2486  -29.2162  -38.4470 N.am      7 UNK        -0.4243 
     45 CA         22.2650  -29.1580  -37.3585 C.3       7 UNK         0.0196 
     46 CB         22.9361  -29.5548  -36.0334 C.3       7 UNK        -0.2007 
     47 C          21.0295  -30.0364  -37.6293 C.2       7 UNK         0.5020 
     48 O          19.9113  -29.6241  -37.3213 O.2       7 UNK        -0.5147 
     49 N          21.2646  -31.2164  -38.2133 N.am      8 UNK        -0.4734 
     50 CA         20.2819  -32.1940  -38.6719 C.3       8 UNK         0.0238 
     51 CB         19.5167  -32.8116  -37.4832 C.3       8 UNK        -0.1912 
     52 C          21.0403  -33.2841  -39.4400 C.2       8 UNK         0.5038 
     53 O          22.2278  -33.4909  -39.1714 O.2       8 UNK        -0.5046 
     54 N          20.3406  -33.9715  -40.3494 N.am      9 UNK        -0.4200 
     55 CA         20.8516  -35.1180  -41.1249 C.3       9 UNK         0.0839 
     56 C          19.9252  -36.3659  -41.0311 C.2       9 UNK         0.5513 
     57 N          18.9392  -36.4007  -40.1414 N.am      9 UNK        -0.7519 
     58 O          20.1104  -37.3335  -41.7649 O.2       9 UNK        -0.4960 
     59 C59        21.1757  -34.7404  -42.5980 C.3       10 UNK        -0.0876 
     60 S60        22.4997  -33.4918  -42.7321 S.3       10 UNK        -0.2414 
     61 C61        22.1485  -32.7656  -44.3685 C.3       10 UNK         0.0169 
     62 H62        21.0109  -25.4796  -38.0471 H         1 UNK         0.0903 
     63 H63        22.2573  -25.5321  -39.3003 H         1 UNK         0.0903 
     64 H64        21.6456  -23.9806  -38.7351 H         1 UNK         0.0903 
     65 H65        20.8422  -26.9053  -40.6095 H         1 UNK         0.3096 
     66 H66        18.2563  -26.1949  -41.5049 H         1 UNK         0.1121 
     67 H67        18.6773  -27.8721  -43.3277 H         1 UNK         0.0849 
     68 H68        20.3691  -27.9427  -42.8993 H         1 UNK         0.0849 
     69 H69        17.9330  -31.1903  -41.6971 H         1 UNK         0.0865 
     70 H70        17.1906  -29.9041  -42.6107 H         1 UNK         0.0865 
     71 H71        20.4586  -31.7463  -42.3627 H         1 UNK         0.1346 
     72 H72        21.0035  -31.8655  -46.6250 H         1 UNK         0.1412 
     73 H73        17.6436  -29.8160  -44.9392 H         1 UNK         0.1426 
     74 H74        17.7626  -30.1254  -47.3219 H         1 UNK         0.0716 
     75 H75        18.9019  -31.2653  -47.9893 H         1 UNK         0.0716 
     76 H76        18.3170  -27.4582  -47.0163 H         1 UNK         0.0695 
     77 H77        19.4706  -28.0229  -45.8476 H         1 UNK         0.0695 
     78 H78        20.0451  -25.9961  -48.0840 H         1 UNK         0.0983 
     79 H79        20.4642  -25.1868  -45.3566 H         1 UNK         0.3095 
     80 H80        19.2437  -23.1758  -44.6863 H         1 UNK         0.0454 
     81 H81        17.0894  -22.4065  -45.6698 H         1 UNK         0.0851 
     82 H82        16.2341  -23.7276  -44.8871 H         1 UNK         0.0851 
     83 H83        16.9946  -22.4651  -43.9186 H         1 UNK         0.0851 
     84 H84        17.5044  -24.9973  -43.2238 H         1 UNK         0.2976 
     85 H85        21.4724  -28.3161  -45.9854 H         1 UNK         0.3116 
     86 H86        24.1192  -27.7979  -46.9464 H         1 UNK         0.0646 
     87 H87        24.6553  -29.8356  -45.6057 H         1 UNK         0.0847 
     88 H88        23.1980  -30.0813  -46.5512 H         1 UNK         0.0847 
     89 H89        23.0842  -29.7520  -44.8216 H         1 UNK         0.0847 
     90 H90        22.5085  -26.4238  -44.2703 H         1 UNK         0.3040 
     91 H91        23.0433  -25.2314  -42.4965 H         1 UNK         0.1015 
     92 H92        24.6567  -24.0312  -44.0032 H         1 UNK         0.0786 
     93 H93        25.9439  -25.1076  -43.4583 H         1 UNK         0.0786 
     94 H94        25.1563  -24.0289  -42.3209 H         1 UNK         0.0786 
     95 H95        23.4926  -28.2443  -42.6185 H         1 UNK         0.3172 
     96 H96        25.0964  -28.8764  -40.2606 H         1 UNK         0.0595 
     97 H97        24.0622  -31.1392  -40.5905 H         1 UNK         0.0839 
     98 H98        24.7107  -30.5473  -42.1098 H         1 UNK         0.0839 
     99 H99        22.9749  -30.4894  -41.8060 H         1 UNK         0.0839 
    100 H100       24.1197  -29.6907  -38.2569 H         1 UNK         0.2998 
    101 H101       21.9211  -28.1248  -37.2700 H         1 UNK         0.0822 
    102 H102       23.3233  -30.5741  -36.0637 H         1 UNK         0.0787 
    103 H103       23.7634  -28.8872  -35.7920 H         1 UNK         0.0787 
    104 H104       22.2260  -29.5007  -35.2069 H         1 UNK         0.0787 
    105 H105       22.2195  -31.4822  -38.4226 H         1 UNK         0.3055 
    106 H106       19.5859  -31.6938  -39.3491 H         1 UNK         0.1106 
    107 H107       20.1958  -33.2778  -36.7682 H         1 UNK         0.0828 
    108 H108       18.9294  -32.0660  -36.9479 H         1 UNK         0.0828 
    109 H109       18.8194  -33.5796  -37.8194 H         1 UNK         0.0828 
    110 H110       19.3689  -33.7450  -40.5042 H         1 UNK         0.2931 
    111 H111       21.7838  -35.4600  -40.6717 H         1 UNK         0.0412 
    112 H112       18.7978  -35.6469  -39.4893 H         1 UNK         0.3472 
    113 H113       18.3544  -37.2208  -40.0930 H         1 UNK         0.3472 
    114 H114       21.5071  -35.6159  -43.1594 H         1 UNK         0.0970 
    115 H115       20.2757  -34.3826  -43.1002 H         1 UNK         0.0970 
    116 H116       22.1082  -33.5763  -45.0976 H         1 UNK         0.0612 
    117 H117       23.0009  -32.1465  -44.6466 H         1 UNK         0.0612 
@<TRIPOS>BOND
     1    1    2 1    
     2    1   62 1    
     3    1   63 1    
     4    1   64 1    
     5    2    3 2    
     6    2    4 am   BACKBONE|DICT|INTERRES
     7    4    5 1    
     8    4   65 1    
     9    5    6 1    
    10    5   25 1    
    11    5   66 1    
    12    6    7 1    
    13    6   67 1    
    14    6   68 1    
    15    7    8 1    
    16    8    9 1    
    17    8   69 1    
    18    8   70 1    
    19    9   10 ar   
    20    9   14 ar   
    21   10   11 ar   
    22   10   71 1    
    23   11   12 ar   
    24   11   61 1    
    25   12   13 ar   
    26   12   72 1    
    27   13   14 ar   
    28   13   15 1    
    29   14   73 1    
    30   15   16 1    
    31   15   74 1    
    32   15   75 1    
    33   16   17 1    
    34   17   18 1    
    35   17   76 1    
    36   17   77 1    
    37   18   19 1    
    38   18   27 1    
    39   18   78 1    
    40   19   20 am   BACKBONE|DICT|INTERRES
    41   19   79 1    
    42   20   21 2    
    43   20   22 1    
    44   22   23 1    
    45   22   24 1    
    46   22   80 1    
    47   23   81 1    
    48   23   82 1    
    49   23   83 1    
    50   24   25 am   BACKBONE|DICT|INTERRES
    51   24   84 1    
    52   25   26 2    
    53   27   28 2    
    54   27   29 am   BACKBONE|DICT|INTERRES
    55   29   30 1    
    56   29   85 1    
    57   30   31 1    
    58   30   32 1    
    59   30   86 1    
    60   31   87 1    
    61   31   88 1    
    62   31   89 1    
    63   32   33 2    
    64   32   34 am   BACKBONE|DICT|INTERRES
    65   34   35 1    
    66   34   90 1    
    67   35   36 1    
    68   35   37 1    
    69   35   91 1    
    70   36   92 1    
    71   36   93 1    
    72   36   94 1    
    73   37   38 2    
    74   37   39 am   BACKBONE|DICT|INTERRES
    75   39   40 1    
    76   39   95 1    
    77   40   41 1    
    78   40   42 1    
    79   40   96 1    
    80   41   97 1    
    81   41   98 1    
    82   41   99 1    
    83   42   43 2    
    84   42   44 am   BACKBONE|DICT|INTERRES
    85   44   45 1    
    86   44  100 1    
    87   45   46 1    
    88   45   47 1    
    89   45  101 1    
    90   46  102 1    
    91   46  103 1    
    92   46  104 1    
    93   47   48 2    
    94   47   49 am   BACKBONE|DICT|INTERRES
    95   49   50 1    
    96   49  105 1    
    97   50   51 1    
    98   50   52 1    
    99   50  106 1    
   100   51  107 1    
   101   51  108 1    
   102   51  109 1    
   103   52   53 2    
   104   52   54 am   BACKBONE|DICT|INTERRES
   105   54   55 1    
   106   54  110 1    
   107   55   56 1    
   108   55   59 1    
   109   55  111 1    
   110   56   57 am   BACKBONE|DICT|INTERRES
   111   56   58 2    
   112   57  112 1    
   113   57  113 1    
   114   59   60 1    
   115   59  114 1    
   116   59  115 1    
   117   60   61 1    
   118   61  116 1    
   119   61  117 1    
@<TRIPOS>SUBSTRUCTURE
     1 UNK         1 GROUP             0       ****    0 ROOT    
