@<TRIPOS>MOLECULE
3R8
117   119    1
SMALL
USER_CHARGES


@<TRIPOS>ATOM
      1 CA         18.0688  -21.8030  -43.7787 C.3       0 UNK        -0.2013 
      2 C          18.6035  -23.0500  -44.4673 C.2       0 UNK         0.4866 
      3 O          19.5645  -22.9615  -45.2324 O.2       0 UNK        -0.5176 
      4 N          17.9846  -24.2083  -44.2040 N.am      1 UNK        -0.4884 
      5 CA         18.4287  -25.5237  -44.6835 C.3       1 UNK         0.0853 
      6 C6         17.2394  -26.5198  -44.7635 C.3       10 UNK        -0.0849 
      7 S7         17.3069  -27.5221  -46.2841 S.3       10 UNK        -0.2776 
      8 C8         16.2983  -28.9636  -45.8186 C.3       10 UNK         0.0316 
      9 C9         17.0812  -29.9367  -44.9512 C.ar      10 UNK        -0.0863 
     10 C10        18.1240  -30.6786  -45.5128 C.ar      10 UNK        -0.1009 
     11 C11        18.8586  -31.5751  -44.7341 C.ar      10 UNK        -0.0712 
     12 C12        18.5298  -31.7389  -43.3851 C.ar      10 UNK        -0.0894 
     13 C13        17.4731  -31.0203  -42.8155 C.ar      10 UNK        -0.0745 
     14 C14        16.7581  -30.1113  -43.6017 C.ar      10 UNK        -0.0972 
     15 C15        17.0683  -31.2742  -41.3693 C.3       10 UNK         0.0209 
     16 S16        18.4204  -30.9710  -40.1887 S.3       10 UNK        -0.2568 
     17 C17        18.2997  -29.1773  -39.8879 C.3       10 UNK        -0.0983 
     18 CA         19.6630  -28.4795  -40.1127 C.3       3 UNK         0.0876 
     19 N          19.9835  -28.3673  -41.5419 N.am      3 UNK        -0.4424 
     20 C          21.1924  -28.0486  -42.0212 C.2       2 UNK         0.4918 
     21 O          22.1665  -27.8441  -41.3013 O.2       2 UNK        -0.4875 
     22 CA         21.3199  -27.8454  -43.5429 C.3       2 UNK         0.0481 
     23 CB         21.6445  -29.1797  -44.2266 C.3       2 UNK        -0.1831 
     24 N          20.1469  -27.2273  -44.1839 N.am      2 UNK        -0.4498 
     25 C          19.5962  -26.0580  -43.8215 C.2       1 UNK         0.5027 
     26 O          19.9669  -25.4220  -42.8327 O.2       1 UNK        -0.4969 
     27 C          19.7454  -27.1378  -39.3415 C.2       3 UNK         0.5005 
     28 O          19.7997  -27.1672  -38.1108 O.2       3 UNK        -0.5279 
     29 N          19.7761  -25.9992  -40.0487 N.am      4 UNK        -0.4463 
     30 CA         19.9751  -24.6566  -39.4979 C.3       4 UNK         0.0283 
     31 CB         18.8333  -23.7500  -39.9944 C.3       4 UNK        -0.1875 
     32 C          21.3514  -24.0769  -39.8858 C.2       4 UNK         0.4949 
     33 O          21.5784  -22.8857  -39.6685 O.2       4 UNK        -0.5039 
     34 N          22.2418  -24.8993  -40.4563 N.am      5 UNK        -0.4663 
     35 CA         23.5663  -24.5139  -40.9396 C.3       5 UNK         0.0242 
     36 CB         23.4670  -24.1158  -42.4286 C.3       5 UNK        -0.1982 
     37 C          24.5534  -25.6574  -40.6484 C.2       5 UNK         0.5017 
     38 O          24.5257  -26.2066  -39.5445 O.2       5 UNK        -0.5012 
     39 N          25.4104  -25.9983  -41.6210 N.am      6 UNK        -0.4439 
     40 CA         26.2858  -27.1702  -41.5803 C.3       6 UNK         0.0297 
     41 CB         27.4081  -27.0109  -42.6198 C.3       6 UNK        -0.2006 
     42 C          25.4541  -28.4346  -41.8474 C.2       6 UNK         0.4892 
     43 O          24.8619  -28.5431  -42.9232 O.2       6 UNK        -0.5089 
     44 N          25.4050  -29.3329  -40.8550 N.am      7 UNK        -0.4243 
     45 CA         24.5608  -30.5300  -40.8352 C.3       7 UNK         0.0196 
     46 CB         24.6897  -31.2109  -39.4626 C.3       7 UNK        -0.2007 
     47 C          24.8698  -31.5302  -41.9624 C.2       7 UNK         0.5020 
     48 O          26.0253  -31.6783  -42.3666 O.2       7 UNK        -0.5147 
     49 N          23.8222  -32.2270  -42.4083 N.am      8 UNK        -0.4734 
     50 CA         23.8220  -33.2523  -43.4484 C.3       8 UNK         0.0238 
     51 CB         23.9737  -32.5948  -44.8383 C.3       8 UNK        -0.1912 
     52 C          22.5176  -34.0581  -43.3143 C.2       8 UNK         0.5038 
     53 O          21.7662  -33.8345  -42.3594 O.2       8 UNK        -0.5046 
     54 N          22.2490  -34.9420  -44.2853 N.am      9 UNK        -0.4200 
     55 CA         21.0586  -35.8108  -44.3632 C.3       9 UNK         0.0839 
     56 C          21.0257  -36.8999  -43.2449 C.2       9 UNK         0.5513 
     57 N          19.9223  -37.6198  -43.0878 N.am      9 UNK        -0.7519 
     58 O          22.0087  -37.1436  -42.5468 O.2       9 UNK        -0.4960 
     59 C59        19.7220  -35.0117  -44.4946 C.3       10 UNK        -0.0876 
     60 S60        19.6476  -33.9549  -45.9841 S.3       10 UNK        -0.2414 
     61 C61        20.0517  -32.3010  -45.3383 C.3       10 UNK         0.0169 
     62 H62        18.8409  -21.3660  -43.1459 H         1 UNK         0.0903 
     63 H63        17.7743  -21.0609  -44.5202 H         1 UNK         0.0903 
     64 H64        17.2026  -22.0206  -43.1540 H         1 UNK         0.0903 
     65 H65        17.2210  -24.2186  -43.5432 H         1 UNK         0.3096 
     66 H66        18.8347  -25.3751  -45.6871 H         1 UNK         0.1121 
     67 H67        16.2884  -25.9849  -44.7944 H         1 UNK         0.0849 
     68 H68        17.1819  -27.1626  -43.8827 H         1 UNK         0.0849 
     69 H69        15.3869  -28.6307  -45.3192 H         1 UNK         0.0865 
     70 H70        15.9770  -29.4765  -46.7263 H         1 UNK         0.0865 
     71 H71        18.3770  -30.5403  -46.5554 H         1 UNK         0.1346 
     72 H72        19.1000  -32.4190  -42.7681 H         1 UNK         0.1412 
     73 H73        15.9379  -29.5546  -43.1689 H         1 UNK         0.1426 
     74 H74        16.7637  -32.3177  -41.2794 H         1 UNK         0.0716 
     75 H75        16.1966  -30.6810  -41.0885 H         1 UNK         0.0716 
     76 H76        17.9591  -29.0594  -38.8571 H         1 UNK         0.0695 
     77 H77        17.5265  -28.7304  -40.5154 H         1 UNK         0.0695 
     78 H78        20.4370  -29.1057  -39.6621 H         1 UNK         0.0983 
     79 H79        19.2293  -28.5353  -42.1910 H         1 UNK         0.3095 
     80 H80        22.1630  -27.1721  -43.7090 H         1 UNK         0.0454 
     81 H81        20.8522  -29.9051  -44.0611 H         1 UNK         0.0851 
     82 H82        22.5631  -29.6101  -43.8257 H         1 UNK         0.0851 
     83 H83        21.7843  -29.0619  -45.3010 H         1 UNK         0.0851 
     84 H84        19.7640  -27.7076  -44.9871 H         1 UNK         0.2976 
     85 H85        19.7691  -26.0415  -41.0657 H         1 UNK         0.3116 
     86 H86        19.9384  -24.6804  -38.4072 H         1 UNK         0.0646 
     87 H87        18.8590  -23.6273  -41.0777 H         1 UNK         0.0847 
     88 H88        18.9002  -22.7550  -39.5527 H         1 UNK         0.0847 
     89 H89        17.8583  -24.1561  -39.7253 H         1 UNK         0.0847 
     90 H90        22.0216  -25.8857  -40.5493 H         1 UNK         0.3040 
     91 H91        23.9261  -23.6524  -40.3728 H         1 UNK         0.1015 
     92 H92        23.1604  -24.9568  -43.0522 H         1 UNK         0.0786 
     93 H93        24.4166  -23.7373  -42.8085 H         1 UNK         0.0786 
     94 H94        22.7330  -23.3223  -42.5722 H         1 UNK         0.0786 
     95 H95        25.3369  -25.5237  -42.5089 H         1 UNK         0.3172 
     96 H96        26.7458  -27.2361  -40.5917 H         1 UNK         0.0595 
     97 H97        28.0771  -27.8723  -42.6026 H         1 UNK         0.0839 
     98 H98        28.0133  -26.1266  -42.4191 H         1 UNK         0.0839 
     99 H99        27.0146  -26.9261  -43.6337 H         1 UNK         0.0839 
    100 H100       25.9388  -29.1503  -40.0180 H         1 UNK         0.2998 
    101 H101       23.5294  -30.1915  -40.9551 H         1 UNK         0.0822 
    102 H102       24.3951  -30.5389  -38.6561 H         1 UNK         0.0787 
    103 H103       24.0472  -32.0903  -39.3988 H         1 UNK         0.0787 
    104 H104       25.7120  -31.5401  -39.2716 H         1 UNK         0.0787 
    105 H105       22.9208  -32.1256  -41.9551 H         1 UNK         0.3055 
    106 H106       24.6552  -33.9359  -43.2715 H         1 UNK         0.1106 
    107 H107       24.0039  -33.3370  -45.6361 H         1 UNK         0.0828 
    108 H108       23.1520  -31.9121  -45.0547 H         1 UNK         0.0828 
    109 H109       24.8997  -32.0240  -44.9085 H         1 UNK         0.0828 
    110 H110       22.9273  -35.0763  -45.0203 H         1 UNK         0.2931 
    111 H111       21.1894  -36.3755  -45.2870 H         1 UNK         0.0412 
    112 H112       19.1114  -37.4755  -43.6682 H         1 UNK         0.3472 
    113 H113       19.9067  -38.3373  -42.3793 H         1 UNK         0.3472 
    114 H114       19.5322  -34.4248  -43.5983 H         1 UNK         0.0970 
    115 H115       18.8751  -35.6934  -44.5764 H         1 UNK         0.0970 
    116 H116       20.8439  -32.3658  -44.5984 H         1 UNK         0.0612 
    117 H117       20.4636  -31.7092  -46.1572 H         1 UNK         0.0612 
@<TRIPOS>BOND
     1    1    2 1    
     2    1   62 1    
     3    1   63 1    
     4    1   64 1    
     5    2    3 2    
     6    2    4 am   BACKBONE|DICT|INTERRES
     7    4    5 1    
     8    4   65 1    
     9    5    6 1    
    10    5   25 1    
    11    5   66 1    
    12    6    7 1    
    13    6   67 1    
    14    6   68 1    
    15    7    8 1    
    16    8    9 1    
    17    8   69 1    
    18    8   70 1    
    19    9   10 ar   
    20    9   14 ar   
    21   10   11 ar   
    22   10   71 1    
    23   11   12 ar   
    24   11   61 1    
    25   12   13 ar   
    26   12   72 1    
    27   13   14 ar   
    28   13   15 1    
    29   14   73 1    
    30   15   16 1    
    31   15   74 1    
    32   15   75 1    
    33   16   17 1    
    34   17   18 1    
    35   17   76 1    
    36   17   77 1    
    37   18   19 1    
    38   18   27 1    
    39   18   78 1    
    40   19   20 am   BACKBONE|DICT|INTERRES
    41   19   79 1    
    42   20   21 2    
    43   20   22 1    
    44   22   23 1    
    45   22   24 1    
    46   22   80 1    
    47   23   81 1    
    48   23   82 1    
    49   23   83 1    
    50   24   25 am   BACKBONE|DICT|INTERRES
    51   24   84 1    
    52   25   26 2    
    53   27   28 2    
    54   27   29 am   BACKBONE|DICT|INTERRES
    55   29   30 1    
    56   29   85 1    
    57   30   31 1    
    58   30   32 1    
    59   30   86 1    
    60   31   87 1    
    61   31   88 1    
    62   31   89 1    
    63   32   33 2    
    64   32   34 am   BACKBONE|DICT|INTERRES
    65   34   35 1    
    66   34   90 1    
    67   35   36 1    
    68   35   37 1    
    69   35   91 1    
    70   36   92 1    
    71   36   93 1    
    72   36   94 1    
    73   37   38 2    
    74   37   39 am   BACKBONE|DICT|INTERRES
    75   39   40 1    
    76   39   95 1    
    77   40   41 1    
    78   40   42 1    
    79   40   96 1    
    80   41   97 1    
    81   41   98 1    
    82   41   99 1    
    83   42   43 2    
    84   42   44 am   BACKBONE|DICT|INTERRES
    85   44   45 1    
    86   44  100 1    
    87   45   46 1    
    88   45   47 1    
    89   45  101 1    
    90   46  102 1    
    91   46  103 1    
    92   46  104 1    
    93   47   48 2    
    94   47   49 am   BACKBONE|DICT|INTERRES
    95   49   50 1    
    96   49  105 1    
    97   50   51 1    
    98   50   52 1    
    99   50  106 1    
   100   51  107 1    
   101   51  108 1    
   102   51  109 1    
   103   52   53 2    
   104   52   54 am   BACKBONE|DICT|INTERRES
   105   54   55 1    
   106   54  110 1    
   107   55   56 1    
   108   55   59 1    
   109   55  111 1    
   110   56   57 am   BACKBONE|DICT|INTERRES
   111   56   58 2    
   112   57  112 1    
   113   57  113 1    
   114   59   60 1    
   115   59  114 1    
   116   59  115 1    
   117   60   61 1    
   118   61  116 1    
   119   61  117 1    
@<TRIPOS>SUBSTRUCTURE
     1 UNK         1 GROUP             0       ****    0 ROOT    
