@<TRIPOS>MOLECULE
3R8
117   119    1
SMALL
USER_CHARGES


@<TRIPOS>ATOM
      1 CA         15.7521  -28.2798  -45.9584 C.3       0 UNK        -0.2013 
      2 C          16.8039  -27.1909  -46.1118 C.2       0 UNK         0.4866 
      3 O          16.4900  -26.0904  -46.5674 O.2       0 UNK        -0.5176 
      4 N          18.0515  -27.4986  -45.7432 N.am      1 UNK        -0.4884 
      5 CA         19.2020  -26.5870  -45.7631 C.3       1 UNK         0.0853 
      6 C6         20.5637  -27.3472  -45.8246 C.3       10 UNK        -0.0849 
      7 S7         20.5700  -28.8829  -46.8162 S.3       10 UNK        -0.2776 
      8 C8         20.8087  -30.1392  -45.5157 C.3       10 UNK         0.0316 
      9 C9         19.5256  -30.4455  -44.7541 C.ar      10 UNK        -0.0863 
     10 C10        18.7386  -31.5371  -45.1274 C.ar      10 UNK        -0.1009 
     11 C11        17.5746  -31.8528  -44.4202 C.ar      10 UNK        -0.0712 
     12 C12        17.1833  -31.0506  -43.3440 C.ar      10 UNK        -0.0894 
     13 C13        17.9500  -29.9417  -42.9741 C.ar      10 UNK        -0.0745 
     14 C14        19.1293  -29.6573  -43.6691 C.ar      10 UNK        -0.0972 
     15 C15        17.4822  -29.0179  -41.8602 C.3       10 UNK         0.0209 
     16 S16        18.4543  -29.2378  -40.3359 S.3       10 UNK        -0.2568 
     17 C17        18.8578  -27.5024  -39.9399 C.3       10 UNK        -0.0983 
     18 CA         20.2063  -27.0794  -40.5830 C.3       3 UNK         0.0876 
     19 N          20.1060  -25.8242  -41.3285 N.am      3 UNK        -0.4424 
     20 C          21.0632  -25.3288  -42.1232 C.2       2 UNK         0.4918 
     21 O          22.2086  -25.7811  -42.2001 O.2       2 UNK        -0.4875 
     22 CA         20.6203  -24.2230  -43.0990 C.3       2 UNK         0.0481 
     23 CB         21.7391  -23.1951  -43.3421 C.3       2 UNK        -0.1831 
     24 N          20.2477  -24.8474  -44.3723 N.am      2 UNK        -0.4498 
     25 C          19.1773  -25.6414  -44.5372 C.2       1 UNK         0.5027 
     26 O          18.2553  -25.6989  -43.7179 O.2       1 UNK        -0.4969 
     27 C          21.3656  -27.0751  -39.5708 C.2       3 UNK         0.5005 
     28 O          21.4726  -26.1462  -38.7676 O.2       3 UNK        -0.5279 
     29 N          22.2275  -28.0941  -39.6722 N.am      4 UNK        -0.4463 
     30 CA         23.4646  -28.3493  -38.9225 C.3       4 UNK         0.0283 
     31 CB         23.2177  -28.3963  -37.4022 C.3       4 UNK        -0.1875 
     32 C          24.6294  -27.4061  -39.2768 C.2       4 UNK         0.4949 
     33 O          25.7816  -27.8203  -39.1507 O.2       4 UNK        -0.5039 
     34 N          24.3322  -26.1814  -39.7312 N.am      5 UNK        -0.4663 
     35 CA         25.3084  -25.2136  -40.2336 C.3       5 UNK         0.0242 
     36 CB         24.6552  -23.8259  -40.3400 C.3       5 UNK        -0.1982 
     37 C          25.9004  -25.6549  -41.5812 C.2       5 UNK         0.5017 
     38 O          27.1228  -25.6639  -41.7306 O.2       5 UNK        -0.5012 
     39 N          25.0236  -26.0350  -42.5203 N.am      6 UNK        -0.4439 
     40 CA         25.3941  -26.6419  -43.7982 C.3       6 UNK         0.0297 
     41 CB         24.3427  -26.2880  -44.8655 C.3       6 UNK        -0.2006 
     42 C          25.5395  -28.1626  -43.6403 C.2       6 UNK         0.4892 
     43 O          26.6058  -28.7085  -43.9243 O.2       6 UNK        -0.5089 
     44 N          24.4614  -28.8008  -43.1734 N.am      7 UNK        -0.4243 
     45 CA         24.2836  -30.2310  -42.9291 C.3       7 UNK         0.0196 
     46 CB         24.4276  -31.0419  -44.2362 C.3       7 UNK        -0.2007 
     47 C          22.8883  -30.4051  -42.3114 C.2       7 UNK         0.5020 
     48 O          22.1689  -29.4146  -42.1568 O.2       7 UNK        -0.5147 
     49 N          22.5079  -31.6375  -41.9697 N.am      8 UNK        -0.4734 
     50 CA         21.1746  -31.9682  -41.4694 C.3       8 UNK         0.0238 
     51 CB         21.1301  -31.8070  -39.9388 C.3       8 UNK        -0.1912 
     52 C          20.8200  -33.4009  -41.8740 C.2       8 UNK         0.5038 
     53 O          21.7123  -34.2523  -41.9190 O.2       8 UNK        -0.5046 
     54 N          19.5281  -33.6466  -42.1190 N.am      9 UNK        -0.4200 
     55 CA         18.9545  -34.9919  -42.2612 C.3       9 UNK         0.0839 
     56 C          18.9098  -35.7337  -40.8971 C.2       9 UNK         0.5513 
     57 N          19.1017  -37.0455  -40.8990 N.am      9 UNK        -0.7519 
     58 O          18.6614  -35.1401  -39.8494 O.2       9 UNK        -0.4960 
     59 C59        17.5443  -34.9476  -42.9058 C.3       10 UNK        -0.0876 
     60 S60        17.6156  -34.6191  -44.6984 S.3       10 UNK        -0.2414 
     61 C61        16.7243  -33.0385  -44.8508 C.3       10 UNK         0.0169 
     62 H62        16.1886  -29.2230  -45.6289 H         1 UNK         0.0903 
     63 H63        15.0044  -27.9777  -45.2256 H         1 UNK         0.0903 
     64 H64        15.2492  -28.4545  -46.9091 H         1 UNK         0.0903 
     65 H65        18.2482  -28.4230  -45.3828 H         1 UNK         0.3096 
     66 H66        19.1182  -25.9633  -46.6560 H         1 UNK         0.1121 
     67 H67        21.3232  -26.6932  -46.2564 H         1 UNK         0.0849 
     68 H68        20.9338  -27.5824  -44.8253 H         1 UNK         0.0849 
     69 H69        21.1928  -31.0503  -45.9772 H         1 UNK         0.0865 
     70 H70        21.5826  -29.8069  -44.8258 H         1 UNK         0.0865 
     71 H71        19.0348  -32.1524  -45.9663 H         1 UNK         0.1346 
     72 H72        16.2703  -31.2748  -42.8092 H         1 UNK         0.1412 
     73 H73        19.7313  -28.8137  -43.3648 H         1 UNK         0.1426 
     74 H74        16.4285  -29.1860  -41.6328 H         1 UNK         0.0716 
     75 H75        17.5521  -27.9895  -42.2176 H         1 UNK         0.0716 
     76 H76        18.8672  -27.3905  -38.8535 H         1 UNK         0.0695 
     77 H77        18.0371  -26.8673  -40.2769 H         1 UNK         0.0695 
     78 H78        20.4535  -27.8084  -41.3538 H         1 UNK         0.0983 
     79 H79        19.1880  -25.4062  -41.3751 H         1 UNK         0.3095 
     80 H80        19.7557  -23.6990  -42.6860 H         1 UNK         0.0454 
     81 H81        22.6367  -23.6543  -43.7584 H         1 UNK         0.0851 
     82 H82        22.0258  -22.7074  -42.4099 H         1 UNK         0.0851 
     83 H83        21.4154  -22.4125  -44.0282 H         1 UNK         0.0851 
     84 H84        20.9613  -24.8443  -45.0862 H         1 UNK         0.2976 
     85 H85        22.0825  -28.7225  -40.4617 H         1 UNK         0.3116 
     86 H86        23.7801  -29.3478  -39.2296 H         1 UNK         0.0646 
     87 H87        22.9466  -27.4198  -37.0004 H         1 UNK         0.0847 
     88 H88        24.1154  -28.7215  -36.8749 H         1 UNK         0.0847 
     89 H89        22.4221  -29.0974  -37.1505 H         1 UNK         0.0847 
     90 H90        23.3547  -25.9174  -39.7659 H         1 UNK         0.3040 
     91 H91        26.1282  -25.1506  -39.5142 H         1 UNK         0.1015 
     92 H92        23.8063  -23.8269  -41.0236 H         1 UNK         0.0786 
     93 H93        25.3686  -23.0865  -40.7066 H         1 UNK         0.0786 
     94 H94        24.3010  -23.4803  -39.3686 H         1 UNK         0.0786 
     95 H95        24.0286  -25.9766  -42.3086 H         1 UNK         0.3172 
     96 H96        26.3540  -26.2407  -44.1307 H         1 UNK         0.0595 
     97 H97        24.5831  -26.7572  -45.8205 H         1 UNK         0.0839 
     98 H98        24.3022  -25.2121  -45.0349 H         1 UNK         0.0839 
     99 H99        23.3430  -26.6175  -44.5825 H         1 UNK         0.0839 
    100 H100       23.6339  -28.2651  -42.9354 H         1 UNK         0.2998 
    101 H101       25.0260  -30.5598  -42.1997 H         1 UNK         0.0822 
    102 H102       24.2024  -32.0977  -44.0833 H         1 UNK         0.0787 
    103 H103       23.7628  -30.6744  -45.0173 H         1 UNK         0.0787 
    104 H104       25.4450  -30.9956  -44.6239 H         1 UNK         0.0787 
    105 H105       23.1101  -32.4333  -42.1419 H         1 UNK         0.3055 
    106 H106       20.4393  -31.2980  -41.9178 H         1 UNK         0.1106 
    107 H107       20.1500  -32.0814  -39.5459 H         1 UNK         0.0828 
    108 H108       21.8693  -32.4392  -39.4456 H         1 UNK         0.0828 
    109 H109       21.3162  -30.7766  -39.6394 H         1 UNK         0.0828 
    110 H110       18.8645  -32.8884  -42.0644 H         1 UNK         0.2931 
    111 H111       19.6115  -35.5629  -42.9213 H         1 UNK         0.0412 
    112 H112       19.0610  -37.5489  -40.0262 H         1 UNK         0.3472 
    113 H113       19.2962  -37.5426  -41.7549 H         1 UNK         0.3472 
    114 H114       16.9091  -34.2154  -42.4043 H         1 UNK         0.0970 
    115 H115       17.0374  -35.9080  -42.7905 H         1 UNK         0.0970 
    116 H116       15.7931  -33.0880  -44.2843 H         1 UNK         0.0612 
    117 H117       16.4389  -32.9009  -45.8946 H         1 UNK         0.0612 
@<TRIPOS>BOND
     1    1    2 1    
     2    1   62 1    
     3    1   63 1    
     4    1   64 1    
     5    2    3 2    
     6    2    4 am   BACKBONE|DICT|INTERRES
     7    4    5 1    
     8    4   65 1    
     9    5    6 1    
    10    5   25 1    
    11    5   66 1    
    12    6    7 1    
    13    6   67 1    
    14    6   68 1    
    15    7    8 1    
    16    8    9 1    
    17    8   69 1    
    18    8   70 1    
    19    9   10 ar   
    20    9   14 ar   
    21   10   11 ar   
    22   10   71 1    
    23   11   12 ar   
    24   11   61 1    
    25   12   13 ar   
    26   12   72 1    
    27   13   14 ar   
    28   13   15 1    
    29   14   73 1    
    30   15   16 1    
    31   15   74 1    
    32   15   75 1    
    33   16   17 1    
    34   17   18 1    
    35   17   76 1    
    36   17   77 1    
    37   18   19 1    
    38   18   27 1    
    39   18   78 1    
    40   19   20 am   BACKBONE|DICT|INTERRES
    41   19   79 1    
    42   20   21 2    
    43   20   22 1    
    44   22   23 1    
    45   22   24 1    
    46   22   80 1    
    47   23   81 1    
    48   23   82 1    
    49   23   83 1    
    50   24   25 am   BACKBONE|DICT|INTERRES
    51   24   84 1    
    52   25   26 2    
    53   27   28 2    
    54   27   29 am   BACKBONE|DICT|INTERRES
    55   29   30 1    
    56   29   85 1    
    57   30   31 1    
    58   30   32 1    
    59   30   86 1    
    60   31   87 1    
    61   31   88 1    
    62   31   89 1    
    63   32   33 2    
    64   32   34 am   BACKBONE|DICT|INTERRES
    65   34   35 1    
    66   34   90 1    
    67   35   36 1    
    68   35   37 1    
    69   35   91 1    
    70   36   92 1    
    71   36   93 1    
    72   36   94 1    
    73   37   38 2    
    74   37   39 am   BACKBONE|DICT|INTERRES
    75   39   40 1    
    76   39   95 1    
    77   40   41 1    
    78   40   42 1    
    79   40   96 1    
    80   41   97 1    
    81   41   98 1    
    82   41   99 1    
    83   42   43 2    
    84   42   44 am   BACKBONE|DICT|INTERRES
    85   44   45 1    
    86   44  100 1    
    87   45   46 1    
    88   45   47 1    
    89   45  101 1    
    90   46  102 1    
    91   46  103 1    
    92   46  104 1    
    93   47   48 2    
    94   47   49 am   BACKBONE|DICT|INTERRES
    95   49   50 1    
    96   49  105 1    
    97   50   51 1    
    98   50   52 1    
    99   50  106 1    
   100   51  107 1    
   101   51  108 1    
   102   51  109 1    
   103   52   53 2    
   104   52   54 am   BACKBONE|DICT|INTERRES
   105   54   55 1    
   106   54  110 1    
   107   55   56 1    
   108   55   59 1    
   109   55  111 1    
   110   56   57 am   BACKBONE|DICT|INTERRES
   111   56   58 2    
   112   57  112 1    
   113   57  113 1    
   114   59   60 1    
   115   59  114 1    
   116   59  115 1    
   117   60   61 1    
   118   61  116 1    
   119   61  117 1    
@<TRIPOS>SUBSTRUCTURE
     1 UNK         1 GROUP             0       ****    0 ROOT    
