@<TRIPOS>MOLECULE
3R8
117   119    1
SMALL
USER_CHARGES


@<TRIPOS>ATOM
      1 CA         13.4650  -22.9145  -47.4177 C.3       0 UNK        -0.2013 
      2 C          14.8107  -23.3831  -46.8843 C.2       0 UNK         0.4866 
      3 O          15.8336  -22.7604  -47.1716 O.2       0 UNK        -0.5176 
      4 N          14.8206  -24.4804  -46.1167 N.am      1 UNK        -0.4884 
      5 CA         16.0125  -25.0299  -45.4641 C.3       1 UNK         0.0853 
      6 C6         15.7703  -26.4925  -45.0169 C.3       10 UNK        -0.0849 
      7 S7         17.3020  -27.3438  -44.5049 S.3       10 UNK        -0.2776 
      8 C8         16.7263  -28.2113  -43.0120 C.3       10 UNK         0.0316 
      9 C9         17.8819  -28.9231  -42.3294 C.ar      10 UNK        -0.0863 
     10 C10        18.3541  -30.1383  -42.8362 C.ar      10 UNK        -0.1009 
     11 C11        19.4488  -30.7752  -42.2447 C.ar      10 UNK        -0.0712 
     12 C12        20.0651  -30.1882  -41.1366 C.ar      10 UNK        -0.0894 
     13 C13        19.5949  -28.9816  -40.6128 C.ar      10 UNK        -0.0745 
     14 C14        18.4950  -28.3567  -41.2075 C.ar      10 UNK        -0.0972 
     15 C15        20.2950  -28.3483  -39.4207 C.3       10 UNK         0.0209 
     16 S16        21.7809  -27.4313  -39.9388 S.3       10 UNK        -0.2568 
     17 C17        21.0484  -25.9098  -40.6341 C.3       10 UNK        -0.0983 
     18 CA         20.8510  -25.9733  -42.1763 C.3       3 UNK         0.0876 
     19 N          19.7335  -25.1341  -42.6327 N.am      3 UNK        -0.4424 
     20 C          19.6695  -23.7945  -42.5600 C.2       2 UNK         0.4918 
     21 O          20.5656  -23.0918  -42.0912 O.2       2 UNK        -0.4875 
     22 CA         18.3908  -23.1252  -43.0977 C.3       2 UNK         0.0481 
     23 CB         18.6419  -21.6973  -43.6201 C.3       2 UNK        -0.1831 
     24 N          17.7645  -23.9268  -44.1514 N.am      2 UNK        -0.4498 
     25 C          16.4481  -24.1301  -44.2871 C.2       1 UNK         0.5027 
     26 O          15.5944  -23.6670  -43.5256 O.2       1 UNK        -0.4969 
     27 C          22.1347  -25.7079  -42.9967 C.2       3 UNK         0.5005 
     28 O          23.2029  -25.4511  -42.4382 O.2       3 UNK        -0.5279 
     29 N          21.9922  -25.7572  -44.3302 N.am      4 UNK        -0.4463 
     30 CA         23.0763  -25.5440  -45.2961 C.3       4 UNK         0.0283 
     31 CB         22.4687  -25.3006  -46.6874 C.3       4 UNK        -0.1875 
     32 C          24.0962  -26.6984  -45.3481 C.2       4 UNK         0.4949 
     33 O          25.2238  -26.4816  -45.7928 O.2       4 UNK        -0.5039 
     34 N          23.6809  -27.8945  -44.9104 N.am      5 UNK        -0.4663 
     35 CA         24.5165  -29.0859  -44.7742 C.3       5 UNK         0.0242 
     36 CB         23.6590  -30.3303  -45.0954 C.3       5 UNK        -0.1982 
     37 C          25.1555  -29.1052  -43.3718 C.2       5 UNK         0.5017 
     38 O          26.0128  -28.2695  -43.0823 O.2       5 UNK        -0.5012 
     39 N          24.7299  -30.0481  -42.5276 N.am      6 UNK        -0.4439 
     40 CA         25.1146  -30.2132  -41.1315 C.3       6 UNK         0.0297 
     41 CB         26.4476  -30.9775  -41.0351 C.3       6 UNK        -0.2006 
     42 C          23.9851  -30.9850  -40.4443 C.2       6 UNK         0.4892 
     43 O          23.2180  -31.6631  -41.1322 O.2       6 UNK        -0.5089 
     44 N          23.9189  -30.8974  -39.1094 N.am      7 UNK        -0.4243 
     45 CA         22.8651  -31.4790  -38.2650 C.3       7 UNK         0.0196 
     46 CB         23.1046  -31.0603  -36.8055 C.3       7 UNK        -0.2007 
     47 C          22.6942  -33.0072  -38.3664 C.2       7 UNK         0.5020 
     48 O          21.6124  -33.5097  -38.0624 O.2       7 UNK        -0.5147 
     49 N          23.7462  -33.7188  -38.7921 N.am      8 UNK        -0.4734 
     50 CA         23.7105  -35.1567  -39.0752 C.3       8 UNK         0.0238 
     51 CB         25.1498  -35.6979  -39.0952 C.3       8 UNK        -0.1912 
     52 C          22.9891  -35.5032  -40.3929 C.2       8 UNK         0.5038 
     53 O          22.5520  -36.6442  -40.5472 O.2       8 UNK        -0.5046 
     54 N          22.8954  -34.5329  -41.3141 N.am      9 UNK        -0.4200 
     55 CA         22.2812  -34.6366  -42.6491 C.3       9 UNK         0.0839 
     56 C          22.9549  -35.6648  -43.6088 C.2       9 UNK         0.5513 
     57 N          24.2099  -36.0405  -43.3924 N.am      9 UNK        -0.7519 
     58 O          22.3491  -36.1060  -44.5823 O.2       9 UNK        -0.4960 
     59 C59        20.7305  -34.7711  -42.6014 C.3       10 UNK        -0.0876 
     60 S60        19.9156  -33.4475  -41.6423 S.3       10 UNK        -0.2414 
     61 C61        20.0008  -32.0680  -42.8280 C.3       10 UNK         0.0169 
     62 H62        13.4780  -22.8986  -48.5071 H         1 UNK         0.0903 
     63 H63        12.6503  -23.5639  -47.0980 H         1 UNK         0.0903 
     64 H64        13.2527  -21.9057  -47.0645 H         1 UNK         0.0903 
     65 H65        13.9460  -24.9311  -45.8869 H         1 UNK         0.3096 
     66 H66        16.8122  -25.0343  -46.2089 H         1 UNK         0.1121 
     67 H67        15.0286  -26.5302  -44.2163 H         1 UNK         0.0849 
     68 H68        15.3465  -27.0663  -45.8429 H         1 UNK         0.0849 
     69 H69        16.2611  -27.4989  -42.3285 H         1 UNK         0.0865 
     70 H70        15.9535  -28.9326  -43.2828 H         1 UNK         0.0865 
     71 H71        17.8828  -30.5727  -43.7074 H         1 UNK         0.1346 
     72 H72        20.9196  -30.6719  -40.6876 H         1 UNK         0.1412 
     73 H73        18.1349  -27.4163  -40.8126 H         1 UNK         0.1426 
     74 H74        20.5880  -29.1246  -38.7137 H         1 UNK         0.0716 
     75 H75        19.6182  -27.6887  -38.8755 H         1 UNK         0.0716 
     76 H76        21.6650  -25.0558  -40.3482 H         1 UNK         0.0695 
     77 H77        20.0895  -25.7439  -40.1413 H         1 UNK         0.0695 
     78 H78        20.5608  -26.9929  -42.4319 H         1 UNK         0.0983 
     79 H79        18.9390  -25.6279  -43.0148 H         1 UNK         0.3095 
     80 H80        17.7167  -23.0573  -42.2415 H         1 UNK         0.0454 
     81 H81        19.3504  -21.6921  -44.4489 H         1 UNK         0.0851 
     82 H82        19.0477  -21.0552  -42.8373 H         1 UNK         0.0851 
     83 H83        17.7179  -21.2341  -43.9665 H         1 UNK         0.0851 
     84 H84        18.3926  -24.3365  -44.8293 H         1 UNK         0.2976 
     85 H85        21.0794  -25.9590  -44.7122 H         1 UNK         0.3116 
     86 H86        23.6197  -24.6435  -45.0014 H         1 UNK         0.0646 
     87 H87        21.8997  -26.1627  -47.0379 H         1 UNK         0.0847 
     88 H88        23.2492  -25.1060  -47.4245 H         1 UNK         0.0847 
     89 H89        21.8056  -24.4353  -46.6870 H         1 UNK         0.0847 
     90 H90        22.7415  -27.9601  -44.5484 H         1 UNK         0.3040 
     91 H91        25.3354  -29.0483  -45.4963 H         1 UNK         0.1015 
     92 H92        22.7855  -30.4127  -44.4471 H         1 UNK         0.0786 
     93 H93        24.2401  -31.2486  -44.9962 H         1 UNK         0.0786 
     94 H94        23.2982  -30.2965  -46.1238 H         1 UNK         0.0786 
     95 H95        23.9869  -30.6767  -42.8103 H         1 UNK         0.3172 
     96 H96        25.2067  -29.2318  -40.6614 H         1 UNK         0.0595 
     97 H97        26.7492  -31.1159  -39.9962 H         1 UNK         0.0839 
     98 H98        27.2522  -30.4362  -41.5330 H         1 UNK         0.0839 
     99 H99        26.3789  -31.9660  -41.4914 H         1 UNK         0.0839 
    100 H100       24.6077  -30.3325  -38.6331 H         1 UNK         0.2998 
    101 H101       21.9190  -31.0442  -38.5883 H         1 UNK         0.0822 
    102 H102       22.3229  -31.4512  -36.1524 H         1 UNK         0.0787 
    103 H103       24.0588  -31.4329  -36.4308 H         1 UNK         0.0787 
    104 H104       23.0993  -29.9754  -36.6974 H         1 UNK         0.0787 
    105 H105       24.6025  -33.2272  -39.0027 H         1 UNK         0.3055 
    106 H106       23.1677  -35.6564  -38.2693 H         1 UNK         0.1106 
    107 H107       25.1600  -36.7728  -39.2818 H         1 UNK         0.0828 
    108 H108       25.7499  -35.2264  -39.8743 H         1 UNK         0.0828 
    109 H109       25.6489  -35.5333  -38.1401 H         1 UNK         0.0828 
    110 H110       23.2233  -33.6023  -41.0762 H         1 UNK         0.2931 
    111 H111       22.4996  -33.6784  -43.1194 H         1 UNK         0.0412 
    112 H112       24.7233  -35.6779  -42.6056 H         1 UNK         0.3472 
    113 H113       24.6446  -36.6976  -44.0213 H         1 UNK         0.3472 
    114 H114       20.4508  -35.7312  -42.1651 H         1 UNK         0.0970 
    115 H115       20.3096  -34.7661  -43.6084 H         1 UNK         0.0970 
    116 H116       19.4640  -32.3451  -43.7365 H         1 UNK         0.0612 
    117 H117       21.0383  -31.8980  -43.1161 H         1 UNK         0.0612 
@<TRIPOS>BOND
     1    1    2 1    
     2    1   62 1    
     3    1   63 1    
     4    1   64 1    
     5    2    3 2    
     6    2    4 am   BACKBONE|DICT|INTERRES
     7    4    5 1    
     8    4   65 1    
     9    5    6 1    
    10    5   25 1    
    11    5   66 1    
    12    6    7 1    
    13    6   67 1    
    14    6   68 1    
    15    7    8 1    
    16    8    9 1    
    17    8   69 1    
    18    8   70 1    
    19    9   10 ar   
    20    9   14 ar   
    21   10   11 ar   
    22   10   71 1    
    23   11   12 ar   
    24   11   61 1    
    25   12   13 ar   
    26   12   72 1    
    27   13   14 ar   
    28   13   15 1    
    29   14   73 1    
    30   15   16 1    
    31   15   74 1    
    32   15   75 1    
    33   16   17 1    
    34   17   18 1    
    35   17   76 1    
    36   17   77 1    
    37   18   19 1    
    38   18   27 1    
    39   18   78 1    
    40   19   20 am   BACKBONE|DICT|INTERRES
    41   19   79 1    
    42   20   21 2    
    43   20   22 1    
    44   22   23 1    
    45   22   24 1    
    46   22   80 1    
    47   23   81 1    
    48   23   82 1    
    49   23   83 1    
    50   24   25 am   BACKBONE|DICT|INTERRES
    51   24   84 1    
    52   25   26 2    
    53   27   28 2    
    54   27   29 am   BACKBONE|DICT|INTERRES
    55   29   30 1    
    56   29   85 1    
    57   30   31 1    
    58   30   32 1    
    59   30   86 1    
    60   31   87 1    
    61   31   88 1    
    62   31   89 1    
    63   32   33 2    
    64   32   34 am   BACKBONE|DICT|INTERRES
    65   34   35 1    
    66   34   90 1    
    67   35   36 1    
    68   35   37 1    
    69   35   91 1    
    70   36   92 1    
    71   36   93 1    
    72   36   94 1    
    73   37   38 2    
    74   37   39 am   BACKBONE|DICT|INTERRES
    75   39   40 1    
    76   39   95 1    
    77   40   41 1    
    78   40   42 1    
    79   40   96 1    
    80   41   97 1    
    81   41   98 1    
    82   41   99 1    
    83   42   43 2    
    84   42   44 am   BACKBONE|DICT|INTERRES
    85   44   45 1    
    86   44  100 1    
    87   45   46 1    
    88   45   47 1    
    89   45  101 1    
    90   46  102 1    
    91   46  103 1    
    92   46  104 1    
    93   47   48 2    
    94   47   49 am   BACKBONE|DICT|INTERRES
    95   49   50 1    
    96   49  105 1    
    97   50   51 1    
    98   50   52 1    
    99   50  106 1    
   100   51  107 1    
   101   51  108 1    
   102   51  109 1    
   103   52   53 2    
   104   52   54 am   BACKBONE|DICT|INTERRES
   105   54   55 1    
   106   54  110 1    
   107   55   56 1    
   108   55   59 1    
   109   55  111 1    
   110   56   57 am   BACKBONE|DICT|INTERRES
   111   56   58 2    
   112   57  112 1    
   113   57  113 1    
   114   59   60 1    
   115   59  114 1    
   116   59  115 1    
   117   60   61 1    
   118   61  116 1    
   119   61  117 1    
@<TRIPOS>SUBSTRUCTURE
     1 UNK         1 GROUP             0       ****    0 ROOT    
