@<TRIPOS>MOLECULE
3R8
117   119    1
SMALL
USER_CHARGES


@<TRIPOS>ATOM
      1 CA         14.5138  -26.9326  -47.1749 C.3       0 UNK        -0.2013 
      2 C          15.9213  -27.4961  -47.3021 C.2       0 UNK         0.4866 
      3 O          16.4474  -27.5863  -48.4121 O.2       0 UNK        -0.5176 
      4 N          16.5312  -27.8841  -46.1756 N.am      1 UNK        -0.4884 
      5 CA         17.9010  -28.4048  -46.1030 C.3       1 UNK         0.0853 
      6 C6         18.1983  -29.0791  -44.7391 C.3       10 UNK        -0.0849 
      7 S7         17.0248  -30.4047  -44.2939 S.3       10 UNK        -0.2776 
      8 C8         16.2775  -29.7419  -42.7661 C.3       10 UNK         0.0316 
      9 C9         17.2857  -29.6789  -41.6261 C.ar      10 UNK        -0.0863 
     10 C10        17.6481  -30.8471  -40.9513 C.ar      10 UNK        -0.1009 
     11 C11        18.6077  -30.8143  -39.9365 C.ar      10 UNK        -0.0712 
     12 C12        19.1885  -29.5918  -39.5792 C.ar      10 UNK        -0.0894 
     13 C13        18.8070  -28.4082  -40.2203 C.ar      10 UNK        -0.0745 
     14 C14        17.8540  -28.4594  -41.2424 C.ar      10 UNK        -0.0972 
     15 C15        19.3910  -27.0715  -39.7774 C.3       10 UNK         0.0209 
     16 S16        21.0198  -26.7297  -40.5155 S.3       10 UNK        -0.2568 
     17 C17        20.5694  -26.2350  -42.2125 C.3       10 UNK        -0.0983 
     18 CA         21.7733  -26.2474  -43.1894 C.3       3 UNK         0.0876 
     19 N          21.3126  -26.2755  -44.5746 N.am      3 UNK        -0.4424 
     20 C          22.0241  -26.7096  -45.6200 C.2       2 UNK         0.4918 
     21 O          23.1844  -27.1150  -45.5367 O.2       2 UNK        -0.4875 
     22 CA         21.2767  -26.7559  -46.9701 C.3       2 UNK         0.0481 
     23 CB         22.1717  -27.2364  -48.1275 C.3       2 UNK        -0.1831 
     24 N          20.0990  -27.6277  -46.8809 N.am      2 UNK        -0.4498 
     25 C          18.9274  -27.2772  -46.3328 C.2       1 UNK         0.5027 
     26 O          18.6868  -26.1375  -45.9226 O.2       1 UNK        -0.4969 
     27 C          22.7223  -25.0590  -42.9501 C.2       3 UNK         0.5005 
     28 O          22.4498  -23.9479  -43.4132 O.2       3 UNK        -0.5279 
     29 N          23.7915  -25.3146  -42.1930 N.am      4 UNK        -0.4463 
     30 CA         24.7372  -24.3299  -41.6798 C.3       4 UNK         0.0283 
     31 CB         25.9691  -24.2600  -42.6014 C.3       4 UNK        -0.1875 
     32 C          25.0714  -24.7604  -40.2480 C.2       4 UNK         0.4949 
     33 O          26.1754  -25.2390  -39.9863 O.2       4 UNK        -0.5039 
     34 N          24.0555  -24.6947  -39.3742 N.am      5 UNK        -0.4663 
     35 CA         23.9721  -25.2345  -38.0048 C.3       5 UNK         0.0242 
     36 CB         25.0890  -24.6916  -37.0915 C.3       5 UNK        -0.1982 
     37 C          23.8960  -26.7733  -37.9559 C.2       5 UNK         0.5017 
     38 O          23.0952  -27.3119  -37.1911 O.2       5 UNK        -0.5012 
     39 N          24.6928  -27.4412  -38.7942 N.am      6 UNK        -0.4439 
     40 CA         24.5896  -28.8535  -39.1448 C.3       6 UNK         0.0297 
     41 CB         25.9700  -29.5079  -38.9725 C.3       6 UNK        -0.2006 
     42 C          24.1193  -28.9648  -40.6032 C.2       6 UNK         0.4892 
     43 O          24.2580  -28.0084  -41.3724 O.2       6 UNK        -0.5089 
     44 N          23.5951  -30.1391  -40.9605 N.am      7 UNK        -0.4243 
     45 CA         23.1310  -30.4938  -42.2981 C.3       7 UNK         0.0196 
     46 CB         21.6536  -30.0804  -42.4620 C.3       7 UNK        -0.2007 
     47 C          23.2817  -32.0084  -42.4787 C.2       7 UNK         0.5020 
     48 O          23.5686  -32.7208  -41.5128 O.2       7 UNK        -0.5147 
     49 N          23.0220  -32.4833  -43.7039 N.am      8 UNK        -0.4734 
     50 CA         22.8024  -33.9066  -43.9939 C.3       8 UNK         0.0238 
     51 CB         22.9194  -34.1419  -45.5088 C.3       8 UNK        -0.1912 
     52 C          21.4395  -34.4064  -43.4712 C.2       8 UNK         0.5038 
     53 O          21.2857  -35.6051  -43.2355 O.2       8 UNK        -0.5046 
     54 N          20.4929  -33.4723  -43.2980 N.am      9 UNK        -0.4200 
     55 CA         19.1482  -33.6522  -42.7279 C.3       9 UNK         0.0839 
     56 C          18.1695  -34.4941  -43.6013 C.2       9 UNK         0.5513 
     57 N          18.4555  -34.7293  -44.8763 N.am      9 UNK        -0.7519 
     58 O          17.1184  -34.9179  -43.1274 O.2       9 UNK        -0.4960 
     59 C59        19.1650  -34.1059  -41.2372 C.3       10 UNK        -0.0876 
     60 S60        20.2151  -33.0715  -40.1513 S.3       10 UNK        -0.2414 
     61 C61        18.9988  -32.0943  -39.2114 C.3       10 UNK         0.0169 
     62 H62        14.4846  -25.9095  -47.5487 H         1 UNK         0.0903 
     63 H63        13.8160  -27.5300  -47.7612 H         1 UNK         0.0903 
     64 H64        14.1685  -26.9259  -46.1412 H         1 UNK         0.0903 
     65 H65        16.0582  -27.7770  -45.2907 H         1 UNK         0.3096 
     66 H66        18.0196  -29.1489  -46.8941 H         1 UNK         0.1121 
     67 H67        19.1961  -29.5216  -44.7437 H         1 UNK         0.0849 
     68 H68        18.2141  -28.3281  -43.9494 H         1 UNK         0.0849 
     69 H69        15.8501  -28.7577  -42.9631 H         1 UNK         0.0865 
     70 H70        15.4426  -30.3815  -42.4755 H         1 UNK         0.0865 
     71 H71        17.1908  -31.7867  -41.2280 H         1 UNK         0.1346 
     72 H72        19.9283  -29.5567  -38.7910 H         1 UNK         0.1412 
     73 H73        17.5562  -27.5467  -41.7401 H         1 UNK         0.1426 
     74 H74        19.4981  -27.0689  -38.6916 H         1 UNK         0.0716 
     75 H75        18.7072  -26.2547  -40.0135 H         1 UNK         0.0716 
     76 H76        19.8155  -26.9381  -42.5664 H         1 UNK         0.0695 
     77 H77        20.0845  -25.2571  -42.1886 H         1 UNK         0.0695 
     78 H78        22.3401  -27.1659  -43.0292 H         1 UNK         0.0983 
     79 H79        20.3731  -25.9382  -44.7511 H         1 UNK         0.3095 
     80 H80        20.9552  -25.7383  -47.2021 H         1 UNK         0.0454 
     81 H81        22.5349  -28.2521  -47.9658 H         1 UNK         0.0851 
     82 H82        21.6364  -27.2184  -49.0768 H         1 UNK         0.0851 
     83 H83        23.0449  -26.5921  -48.2383 H         1 UNK         0.0851 
     84 H84        20.2375  -28.5885  -47.1610 H         1 UNK         0.2976 
     85 H85        23.9307  -26.2689  -41.8549 H         1 UNK         0.3116 
     86 H86        24.2744  -23.3418  -41.6317 H         1 UNK         0.0646 
     87 H87        26.4585  -25.2302  -42.6959 H         1 UNK         0.0847 
     88 H88        26.7065  -23.5563  -42.2136 H         1 UNK         0.0847 
     89 H89        25.6947  -23.9261  -43.6020 H         1 UNK         0.0847 
     90 H90        23.1795  -24.3364  -39.7311 H         1 UNK         0.3040 
     91 H91        23.0233  -24.8699  -37.6069 H         1 UNK         0.1015 
     92 H92        25.1185  -23.6022  -37.1053 H         1 UNK         0.0786 
     93 H93        26.0739  -25.0587  -37.3808 H         1 UNK         0.0786 
     94 H94        24.9245  -24.9987  -36.0578 H         1 UNK         0.0786 
     95 H95        25.2934  -26.8826  -39.3941 H         1 UNK         0.3172 
     96 H96        23.8659  -29.3598  -38.5026 H         1 UNK         0.0595 
     97 H97        25.9346  -30.5716  -39.2115 H         1 UNK         0.0839 
     98 H98        26.3233  -29.4194  -37.9450 H         1 UNK         0.0839 
     99 H99        26.7173  -29.0514  -39.6232 H         1 UNK         0.0839 
    100 H100       23.5795  -30.9107  -40.3044 H         1 UNK         0.2998 
    101 H101       23.7476  -29.9883  -43.0449 H         1 UNK         0.0822 
    102 H102       21.4856  -29.0520  -42.1568 H         1 UNK         0.0787 
    103 H103       21.3290  -30.1644  -43.4988 H         1 UNK         0.0787 
    104 H104       20.9907  -30.6990  -41.8562 H         1 UNK         0.0787 
    105 H105       22.8415  -31.8317  -44.4547 H         1 UNK         0.3055 
    106 H106       23.5781  -34.4907  -43.4929 H         1 UNK         0.1106 
    107 H107       22.1708  -33.5789  -46.0675 H         1 UNK         0.0828 
    108 H108       23.9032  -33.8540  -45.8799 H         1 UNK         0.0828 
    109 H109       22.7808  -35.1968  -45.7507 H         1 UNK         0.0828 
    110 H110       20.7289  -32.5230  -43.5386 H         1 UNK         0.2931 
    111 H111       18.7212  -32.6511  -42.7510 H         1 UNK         0.0412 
    112 H112       19.3092  -34.3812  -45.2813 H         1 UNK         0.3472 
    113 H113       17.8113  -35.2653  -45.4363 H         1 UNK         0.3472 
    114 H114       19.5256  -35.1333  -41.1665 H         1 UNK         0.0970 
    115 H115       18.1515  -34.1251  -40.8340 H         1 UNK         0.0970 
    116 H116       19.4353  -31.8500  -38.2419 H         1 UNK         0.0612 
    117 H117       18.1134  -32.6939  -38.9965 H         1 UNK         0.0612 
@<TRIPOS>BOND
     1    1    2 1    
     2    1   62 1    
     3    1   63 1    
     4    1   64 1    
     5    2    3 2    
     6    2    4 am   BACKBONE|DICT|INTERRES
     7    4    5 1    
     8    4   65 1    
     9    5    6 1    
    10    5   25 1    
    11    5   66 1    
    12    6    7 1    
    13    6   67 1    
    14    6   68 1    
    15    7    8 1    
    16    8    9 1    
    17    8   69 1    
    18    8   70 1    
    19    9   10 ar   
    20    9   14 ar   
    21   10   11 ar   
    22   10   71 1    
    23   11   12 ar   
    24   11   61 1    
    25   12   13 ar   
    26   12   72 1    
    27   13   14 ar   
    28   13   15 1    
    29   14   73 1    
    30   15   16 1    
    31   15   74 1    
    32   15   75 1    
    33   16   17 1    
    34   17   18 1    
    35   17   76 1    
    36   17   77 1    
    37   18   19 1    
    38   18   27 1    
    39   18   78 1    
    40   19   20 am   BACKBONE|DICT|INTERRES
    41   19   79 1    
    42   20   21 2    
    43   20   22 1    
    44   22   23 1    
    45   22   24 1    
    46   22   80 1    
    47   23   81 1    
    48   23   82 1    
    49   23   83 1    
    50   24   25 am   BACKBONE|DICT|INTERRES
    51   24   84 1    
    52   25   26 2    
    53   27   28 2    
    54   27   29 am   BACKBONE|DICT|INTERRES
    55   29   30 1    
    56   29   85 1    
    57   30   31 1    
    58   30   32 1    
    59   30   86 1    
    60   31   87 1    
    61   31   88 1    
    62   31   89 1    
    63   32   33 2    
    64   32   34 am   BACKBONE|DICT|INTERRES
    65   34   35 1    
    66   34   90 1    
    67   35   36 1    
    68   35   37 1    
    69   35   91 1    
    70   36   92 1    
    71   36   93 1    
    72   36   94 1    
    73   37   38 2    
    74   37   39 am   BACKBONE|DICT|INTERRES
    75   39   40 1    
    76   39   95 1    
    77   40   41 1    
    78   40   42 1    
    79   40   96 1    
    80   41   97 1    
    81   41   98 1    
    82   41   99 1    
    83   42   43 2    
    84   42   44 am   BACKBONE|DICT|INTERRES
    85   44   45 1    
    86   44  100 1    
    87   45   46 1    
    88   45   47 1    
    89   45  101 1    
    90   46  102 1    
    91   46  103 1    
    92   46  104 1    
    93   47   48 2    
    94   47   49 am   BACKBONE|DICT|INTERRES
    95   49   50 1    
    96   49  105 1    
    97   50   51 1    
    98   50   52 1    
    99   50  106 1    
   100   51  107 1    
   101   51  108 1    
   102   51  109 1    
   103   52   53 2    
   104   52   54 am   BACKBONE|DICT|INTERRES
   105   54   55 1    
   106   54  110 1    
   107   55   56 1    
   108   55   59 1    
   109   55  111 1    
   110   56   57 am   BACKBONE|DICT|INTERRES
   111   56   58 2    
   112   57  112 1    
   113   57  113 1    
   114   59   60 1    
   115   59  114 1    
   116   59  115 1    
   117   60   61 1    
   118   61  116 1    
   119   61  117 1    
@<TRIPOS>SUBSTRUCTURE
     1 UNK         1 GROUP             0       ****    0 ROOT    
