@<TRIPOS>MOLECULE
3R8
117   119    1
SMALL
USER_CHARGES


@<TRIPOS>ATOM
      1 CA         18.0666  -27.6482  -41.3540 C.3       0 UNK        -0.2013 
      2 C          17.3931  -26.5024  -42.0871 C.2       0 UNK         0.4866 
      3 O          17.0692  -25.4906  -41.4643 O.2       0 UNK        -0.5176 
      4 N          17.1800  -26.6574  -43.4012 N.am      1 UNK        -0.4884 
      5 CA         16.6432  -25.6188  -44.2825 C.3       1 UNK         0.0853 
      6 C6         15.5336  -26.1608  -45.2311 C.3       10 UNK        -0.0849 
      7 S7         16.0292  -27.3208  -46.5570 S.3       10 UNK        -0.2776 
      8 C8         15.8103  -28.9678  -45.8047 C.3       10 UNK         0.0316 
      9 C9         17.1421  -29.5674  -45.3731 C.ar      10 UNK        -0.0863 
     10 C10        17.3422  -29.9921  -44.0561 C.ar      10 UNK        -0.1009 
     11 C11        18.5707  -30.5362  -43.6645 C.ar      10 UNK        -0.0712 
     12 C12        19.6032  -30.6496  -44.6009 C.ar      10 UNK        -0.0894 
     13 C13        19.4100  -30.2422  -45.9244 C.ar      10 UNK        -0.0745 
     14 C14        18.1742  -29.7158  -46.3051 C.ar      10 UNK        -0.0972 
     15 C15        20.5346  -30.3624  -46.9448 C.3       10 UNK         0.0209 
     16 S16        21.1095  -28.7360  -47.5374 S.3       10 UNK        -0.2568 
     17 C17        21.7808  -28.0216  -46.0004 C.3       10 UNK        -0.0983 
     18 CA         21.8153  -26.4729  -45.9839 C.3       3 UNK         0.0876 
     19 N          20.5268  -25.8801  -46.3610 N.am      3 UNK        -0.4424 
     20 C          20.3648  -24.6212  -46.7898 C.2       2 UNK         0.4918 
     21 O          21.2942  -23.8305  -46.9537 O.2       2 UNK        -0.4875 
     22 CA         18.9228  -24.1514  -47.0669 C.3       2 UNK         0.0481 
     23 CB         18.5902  -24.3097  -48.5588 C.3       2 UNK        -0.1831 
     24 N          17.8917  -24.8290  -46.2711 N.am      2 UNK        -0.4498 
     25 C          17.8205  -24.8588  -44.9336 C.2       1 UNK         0.5027 
     26 O          18.6607  -24.3227  -44.2082 O.2       1 UNK        -0.4969 
     27 C          22.3098  -25.9974  -44.5988 C.2       3 UNK         0.5005 
     28 O          23.4902  -26.1828  -44.2971 O.2       3 UNK        -0.5279 
     29 N          21.4065  -25.4400  -43.7736 N.am      4 UNK        -0.4463 
     30 CA         21.5783  -25.1359  -42.3490 C.3       4 UNK         0.0283 
     31 CB         22.6280  -24.0207  -42.1390 C.3       4 UNK        -0.1875 
     32 C          21.8373  -26.4168  -41.5266 C.2       4 UNK         0.4949 
     33 O          21.3043  -27.4754  -41.8682 O.2       4 UNK        -0.5039 
     34 N          22.6282  -26.3124  -40.4507 N.am      5 UNK        -0.4663 
     35 CA         23.0118  -27.4216  -39.5724 C.3       5 UNK         0.0242 
     36 CB         23.4904  -26.8477  -38.2258 C.3       5 UNK        -0.1982 
     37 C          24.0675  -28.3278  -40.2357 C.2       5 UNK         0.5017 
     38 O          25.2354  -28.3159  -39.8390 O.2       5 UNK        -0.5012 
     39 N          23.6435  -29.0662  -41.2671 N.am      6 UNK        -0.4439 
     40 CA         24.4524  -29.9994  -42.0482 C.3       6 UNK         0.0297 
     41 CB         23.7332  -30.2936  -43.3753 C.3       6 UNK        -0.2006 
     42 C          24.7743  -31.2766  -41.2520 C.2       6 UNK         0.4892 
     43 O          24.1249  -32.3079  -41.4443 O.2       6 UNK        -0.5089 
     44 N          25.7759  -31.1675  -40.3680 N.am      7 UNK        -0.4243 
     45 CA         26.3136  -32.2109  -39.4910 C.3       7 UNK         0.0196 
     46 CB         27.0516  -33.2900  -40.3177 C.3       7 UNK        -0.2007 
     47 C          25.2290  -32.7654  -38.5504 C.2       7 UNK         0.5020 
     48 O          24.8017  -32.0523  -37.6422 O.2       7 UNK        -0.5147 
     49 N          24.8029  -34.0141  -38.7779 N.am      8 UNK        -0.4734 
     50 CA         23.7415  -34.6816  -38.0217 C.3       8 UNK         0.0238 
     51 CB         23.8158  -36.1953  -38.2818 C.3       8 UNK        -0.1912 
     52 C          22.3314  -34.1502  -38.3381 C.2       8 UNK         0.5038 
     53 O          21.4352  -34.3283  -37.5117 O.2       8 UNK        -0.5046 
     54 N          22.1474  -33.5322  -39.5132 N.am      9 UNK        -0.4200 
     55 CA         20.8842  -32.9138  -39.9285 C.3       9 UNK         0.0839 
     56 C          20.6825  -31.5429  -39.2292 C.2       9 UNK         0.5513 
     57 N          19.5081  -31.2953  -38.6660 N.am      9 UNK        -0.7519 
     58 O          21.5674  -30.6913  -39.2294 O.2       9 UNK        -0.4960 
     59 C59        20.8037  -32.7978  -41.4729 C.3       10 UNK        -0.0876 
     60 S60        19.0806  -32.7607  -42.0742 S.3       10 UNK        -0.2414 
     61 C61        18.7912  -30.9698  -42.2223 C.3       10 UNK         0.0169 
     62 H62        17.3236  -28.3491  -40.9756 H         1 UNK         0.0903 
     63 H63        18.7502  -28.1764  -42.0152 H         1 UNK         0.0903 
     64 H64        18.6484  -27.2747  -40.5115 H         1 UNK         0.0903 
     65 H65        17.4775  -27.5071  -43.8622 H         1 UNK         0.3096 
     66 H66        16.1474  -24.8626  -43.6693 H         1 UNK         0.1121 
     67 H67        14.7472  -26.6254  -44.6345 H         1 UNK         0.0849 
     68 H68        15.0426  -25.3159  -45.7177 H         1 UNK         0.0849 
     69 H69        15.1083  -28.9158  -44.9714 H         1 UNK         0.0865 
     70 H70        15.3563  -29.6303  -46.5429 H         1 UNK         0.0865 
     71 H71        16.5428  -29.8969  -43.3335 H         1 UNK         0.1346 
     72 H72        20.5557  -31.0600  -44.2964 H         1 UNK         0.1412 
     73 H73        18.0236  -29.3989  -47.3285 H         1 UNK         0.1426 
     74 H74        20.1817  -30.9444  -47.7972 H         1 UNK         0.0716 
     75 H75        21.3824  -30.9092  -46.5288 H         1 UNK         0.0716 
     76 H76        22.7895  -28.4180  -45.8776 H         1 UNK         0.0695 
     77 H77        21.2031  -28.3880  -45.1504 H         1 UNK         0.0695 
     78 H78        22.5592  -26.1486  -46.7152 H         1 UNK         0.0983 
     79 H79        19.7185  -26.4804  -46.2911 H         1 UNK         0.3095 
     80 H80        18.8758  -23.0892  -46.8187 H         1 UNK         0.0454 
     81 H81        18.5858  -25.3575  -48.8620 H         1 UNK         0.0851 
     82 H82        19.3237  -23.7938  -49.1801 H         1 UNK         0.0851 
     83 H83        17.6141  -23.8866  -48.7962 H         1 UNK         0.0851 
     84 H84        17.1868  -25.3448  -46.7839 H         1 UNK         0.2976 
     85 H85        20.4643  -25.2987  -44.1219 H         1 UNK         0.3116 
     86 H86        20.6150  -24.7512  -42.0108 H         1 UNK         0.0646 
     87 H87        22.6050  -23.6393  -41.1177 H         1 UNK         0.0847 
     88 H88        22.4332  -23.1721  -42.7950 H         1 UNK         0.0847 
     89 H89        23.6420  -24.3676  -42.3417 H         1 UNK         0.0847 
     90 H90        23.0514  -25.4175  -40.2525 H         1 UNK         0.3040 
     91 H91        22.1300  -28.0362  -39.3759 H         1 UNK         0.1015 
     92 H92        22.7039  -26.2715  -37.7382 H         1 UNK         0.0786 
     93 H93        24.3584  -26.1981  -38.3459 H         1 UNK         0.0786 
     94 H94        23.7742  -27.6489  -37.5419 H         1 UNK         0.0786 
     95 H95        22.6730  -28.9523  -41.5414 H         1 UNK         0.3172 
     96 H96        25.3991  -29.5127  -42.2928 H         1 UNK         0.0595 
     97 H97        22.7390  -30.7091  -43.2195 H         1 UNK         0.0839 
     98 H98        24.2968  -31.0074  -43.9774 H         1 UNK         0.0839 
     99 H99        23.6265  -29.3842  -43.9645 H         1 UNK         0.0839 
    100 H100       26.1426  -30.2346  -40.2142 H         1 UNK         0.2998 
    101 H101       27.0521  -31.7269  -38.8499 H         1 UNK         0.0822 
    102 H102       26.3983  -33.7872  -41.0356 H         1 UNK         0.0787 
    103 H103       27.8760  -32.8507  -40.8795 H         1 UNK         0.0787 
    104 H104       27.4817  -34.0562  -39.6710 H         1 UNK         0.0787 
    105 H105       25.1981  -34.5186  -39.5588 H         1 UNK         0.3055 
    106 H106       23.9185  -34.5082  -36.9576 H         1 UNK         0.1106 
    107 H107       23.6545  -36.4336  -39.3339 H         1 UNK         0.0828 
    108 H108       24.7836  -36.6022  -37.9884 H         1 UNK         0.0828 
    109 H109       23.0560  -36.7276  -37.7077 H         1 UNK         0.0828 
    110 H110       22.9493  -33.3478  -40.1068 H         1 UNK         0.2931 
    111 H111       20.0851  -33.5861  -39.6077 H         1 UNK         0.0412 
    112 H112       19.3575  -30.4063  -38.2162 H         1 UNK         0.3472 
    113 H113       18.7744  -31.9867  -38.6710 H         1 UNK         0.3472 
    114 H114       21.3660  -31.9395  -41.8412 H         1 UNK         0.0970 
    115 H115       21.2712  -33.6690  -41.9347 H         1 UNK         0.0970 
    116 H116       19.6276  -30.4068  -41.8064 H         1 UNK         0.0612 
    117 H117       17.9252  -30.7199  -41.6082 H         1 UNK         0.0612 
@<TRIPOS>BOND
     1    1    2 1    
     2    1   62 1    
     3    1   63 1    
     4    1   64 1    
     5    2    3 2    
     6    2    4 am   BACKBONE|DICT|INTERRES
     7    4    5 1    
     8    4   65 1    
     9    5    6 1    
    10    5   25 1    
    11    5   66 1    
    12    6    7 1    
    13    6   67 1    
    14    6   68 1    
    15    7    8 1    
    16    8    9 1    
    17    8   69 1    
    18    8   70 1    
    19    9   10 ar   
    20    9   14 ar   
    21   10   11 ar   
    22   10   71 1    
    23   11   12 ar   
    24   11   61 1    
    25   12   13 ar   
    26   12   72 1    
    27   13   14 ar   
    28   13   15 1    
    29   14   73 1    
    30   15   16 1    
    31   15   74 1    
    32   15   75 1    
    33   16   17 1    
    34   17   18 1    
    35   17   76 1    
    36   17   77 1    
    37   18   19 1    
    38   18   27 1    
    39   18   78 1    
    40   19   20 am   BACKBONE|DICT|INTERRES
    41   19   79 1    
    42   20   21 2    
    43   20   22 1    
    44   22   23 1    
    45   22   24 1    
    46   22   80 1    
    47   23   81 1    
    48   23   82 1    
    49   23   83 1    
    50   24   25 am   BACKBONE|DICT|INTERRES
    51   24   84 1    
    52   25   26 2    
    53   27   28 2    
    54   27   29 am   BACKBONE|DICT|INTERRES
    55   29   30 1    
    56   29   85 1    
    57   30   31 1    
    58   30   32 1    
    59   30   86 1    
    60   31   87 1    
    61   31   88 1    
    62   31   89 1    
    63   32   33 2    
    64   32   34 am   BACKBONE|DICT|INTERRES
    65   34   35 1    
    66   34   90 1    
    67   35   36 1    
    68   35   37 1    
    69   35   91 1    
    70   36   92 1    
    71   36   93 1    
    72   36   94 1    
    73   37   38 2    
    74   37   39 am   BACKBONE|DICT|INTERRES
    75   39   40 1    
    76   39   95 1    
    77   40   41 1    
    78   40   42 1    
    79   40   96 1    
    80   41   97 1    
    81   41   98 1    
    82   41   99 1    
    83   42   43 2    
    84   42   44 am   BACKBONE|DICT|INTERRES
    85   44   45 1    
    86   44  100 1    
    87   45   46 1    
    88   45   47 1    
    89   45  101 1    
    90   46  102 1    
    91   46  103 1    
    92   46  104 1    
    93   47   48 2    
    94   47   49 am   BACKBONE|DICT|INTERRES
    95   49   50 1    
    96   49  105 1    
    97   50   51 1    
    98   50   52 1    
    99   50  106 1    
   100   51  107 1    
   101   51  108 1    
   102   51  109 1    
   103   52   53 2    
   104   52   54 am   BACKBONE|DICT|INTERRES
   105   54   55 1    
   106   54  110 1    
   107   55   56 1    
   108   55   59 1    
   109   55  111 1    
   110   56   57 am   BACKBONE|DICT|INTERRES
   111   56   58 2    
   112   57  112 1    
   113   57  113 1    
   114   59   60 1    
   115   59  114 1    
   116   59  115 1    
   117   60   61 1    
   118   61  116 1    
   119   61  117 1    
@<TRIPOS>SUBSTRUCTURE
     1 UNK         1 GROUP             0       ****    0 ROOT    
