@<TRIPOS>MOLECULE
3R8
117   119    1
SMALL
USER_CHARGES


@<TRIPOS>ATOM
      1 CA         11.8918  -26.5179  -45.3930 C.3       0 UNK        -0.2013 
      2 C          13.3847  -26.2868  -45.5731 C.2       0 UNK         0.4866 
      3 O          13.8316  -25.1390  -45.5734 O.2       0 UNK        -0.5176 
      4 N          14.1578  -27.3668  -45.7364 N.am      1 UNK        -0.4884 
      5 CA         15.6202  -27.3451  -45.8400 C.3       1 UNK         0.0853 
      6 C6         16.1677  -28.6411  -46.4949 C.3       10 UNK        -0.0849 
      7 S7         15.6191  -30.1838  -45.6794 S.3       10 UNK        -0.2776 
      8 C8         17.1671  -31.1443  -45.5971 C.3       10 UNK         0.0316 
      9 C9         18.2049  -30.5550  -44.6474 C.ar      10 UNK        -0.0863 
     10 C10        17.8762  -30.2720  -43.3181 C.ar      10 UNK        -0.1009 
     11 C11        18.8470  -29.8027  -42.4293 C.ar      10 UNK        -0.0712 
     12 C12        20.1554  -29.6044  -42.8815 C.ar      10 UNK        -0.0894 
     13 C13        20.4995  -29.8818  -44.2080 C.ar      10 UNK        -0.0745 
     14 C14        19.5172  -30.3510  -45.0858 C.ar      10 UNK        -0.0972 
     15 C15        21.9358  -29.7253  -44.6912 C.3       10 UNK         0.0209 
     16 S16        22.3324  -28.0128  -45.1619 S.3       10 UNK        -0.2568 
     17 C17        22.8718  -27.2968  -43.5722 C.3       10 UNK        -0.0983 
     18 CA         22.1403  -25.9807  -43.1928 C.3       3 UNK         0.0876 
     19 N          20.7065  -26.1701  -42.9781 N.am      3 UNK        -0.4424 
     20 C          19.7400  -25.9229  -43.8640 C.2       2 UNK         0.4918 
     21 O          19.9316  -25.5220  -45.0156 O.2       2 UNK        -0.4875 
     22 CA         18.3063  -26.1296  -43.3667 C.3       2 UNK         0.0481 
     23 CB         17.7837  -24.8725  -42.6470 C.3       2 UNK        -0.1831 
     24 N          17.4679  -26.4461  -44.5167 N.am      2 UNK        -0.4498 
     25 C          16.2794  -27.0555  -44.4737 C.2       1 UNK         0.5027 
     26 O          15.7169  -27.3907  -43.4267 O.2       1 UNK        -0.4969 
     27 C          22.7270  -25.3837  -41.8990 C.2       3 UNK         0.5005 
     28 O          22.0276  -25.3117  -40.8825 O.2       3 UNK        -0.5279 
     29 N          24.0023  -24.9768  -41.9588 N.am      4 UNK        -0.4463 
     30 CA         24.7935  -24.5074  -40.8189 C.3       4 UNK         0.0283 
     31 CB         25.8401  -23.4912  -41.3234 C.3       4 UNK        -0.1875 
     32 C          25.3938  -25.7034  -40.0471 C.2       4 UNK         0.4949 
     33 O          24.6544  -26.6080  -39.6582 O.2       4 UNK        -0.5039 
     34 N          26.7173  -25.7004  -39.8277 N.am      5 UNK        -0.4663 
     35 CA         27.4477  -26.7514  -39.1069 C.3       5 UNK         0.0242 
     36 CB         28.8887  -26.2835  -38.8471 C.3       5 UNK        -0.1982 
     37 C          27.4444  -28.1126  -39.8260 C.2       5 UNK         0.5017 
     38 O          27.4520  -29.1493  -39.1609 O.2       5 UNK        -0.5012 
     39 N          27.4007  -28.0908  -41.1650 N.am      6 UNK        -0.4439 
     40 CA         27.2951  -29.2660  -42.0330 C.3       6 UNK         0.0297 
     41 CB         27.9076  -28.9273  -43.4053 C.3       6 UNK        -0.2006 
     42 C          25.8357  -29.7524  -42.1388 C.2       6 UNK         0.4892 
     43 O          25.2759  -29.7913  -43.2351 O.2       6 UNK        -0.5089 
     44 N          25.2352  -30.0809  -40.9887 N.am      7 UNK        -0.4243 
     45 CA         23.8603  -30.5623  -40.8664 C.3       7 UNK         0.0196 
     46 CB         23.4383  -30.5071  -39.3900 C.3       7 UNK        -0.2007 
     47 C          23.6959  -31.9839  -41.4279 C.2       7 UNK         0.5020 
     48 O          24.5888  -32.8184  -41.2657 O.2       7 UNK        -0.5147 
     49 N          22.5371  -32.2375  -42.0418 N.am      8 UNK        -0.4734 
     50 CA         22.1408  -33.5256  -42.6151 C.3       8 UNK         0.0238 
     51 CB         22.6711  -33.6412  -44.0586 C.3       8 UNK        -0.1912 
     52 C          20.6137  -33.6795  -42.5212 C.2       8 UNK         0.5038 
     53 O          19.9820  -34.1696  -43.4589 O.2       8 UNK        -0.5046 
     54 N          20.0496  -33.2005  -41.4058 N.am      9 UNK        -0.4200 
     55 CA         18.6077  -33.0832  -41.1615 C.3       9 UNK         0.0839 
     56 C          17.8946  -34.4552  -41.0237 C.2       9 UNK         0.5513 
     57 N          16.6307  -34.5386  -41.4160 N.am      9 UNK        -0.7519 
     58 O          18.4587  -35.4264  -40.5232 O.2       9 UNK        -0.4960 
     59 C59        18.2965  -32.1680  -39.9434 C.3       10 UNK        -0.0876 
     60 S60        19.3164  -30.6514  -39.8298 S.3       10 UNK        -0.2414 
     61 C61        18.4854  -29.5106  -40.9799 C.3       10 UNK         0.0169 
     62 H62        11.6360  -27.5768  -45.4279 H         1 UNK         0.0903 
     63 H63        11.5645  -26.1218  -44.4321 H         1 UNK         0.0903 
     64 H64        11.3353  -26.0087  -46.1794 H         1 UNK         0.0903 
     65 H65        13.7504  -28.2905  -45.6887 H         1 UNK         0.3096 
     66 H66        15.8821  -26.5145  -46.5001 H         1 UNK         0.1121 
     67 H67        15.8368  -28.6856  -47.5337 H         1 UNK         0.0849 
     68 H68        17.2580  -28.6119  -46.5418 H         1 UNK         0.0849 
     69 H69        16.9318  -32.1556  -45.2625 H         1 UNK         0.0865 
     70 H70        17.5715  -31.2450  -46.6055 H         1 UNK         0.0865 
     71 H71        16.8639  -30.4319  -42.9729 H         1 UNK         0.1346 
     72 H72        20.9029  -29.2419  -42.1914 H         1 UNK         0.1412 
     73 H73        19.7833  -30.5803  -46.1087 H         1 UNK         0.1426 
     74 H74        22.1038  -30.3626  -45.5605 H         1 UNK         0.0716 
     75 H75        22.6362  -30.0763  -43.9337 H         1 UNK         0.0716 
     76 H76        23.9464  -27.1297  -43.6629 H         1 UNK         0.0695 
     77 H77        22.7598  -28.0310  -42.7757 H         1 UNK         0.0695 
     78 H78        22.2940  -25.2433  -43.9841 H         1 UNK         0.0983 
     79 H79        20.4646  -26.3814  -42.0189 H         1 UNK         0.3095 
     80 H80        18.2953  -26.9753  -42.6775 H         1 UNK         0.0454 
     81 H81        17.7618  -24.0090  -43.3129 H         1 UNK         0.0851 
     82 H82        18.4173  -24.6146  -41.7976 H         1 UNK         0.0851 
     83 H83        16.7753  -25.0230  -42.2616 H         1 UNK         0.0851 
     84 H84        17.8986  -26.2229  -45.4061 H         1 UNK         0.2976 
     85 H85        24.5006  -25.0837  -42.8309 H         1 UNK         0.3116 
     86 H86        24.1373  -23.9822  -40.1216 H         1 UNK         0.0646 
     87 H87        26.5508  -23.9400  -42.0187 H         1 UNK         0.0847 
     88 H88        26.4043  -23.0564  -40.4970 H         1 UNK         0.0847 
     89 H89        25.3581  -22.6607  -41.8398 H         1 UNK         0.0847 
     90 H90        27.2604  -24.9181  -40.1642 H         1 UNK         0.3040 
     91 H91        26.9564  -26.8970  -38.1420 H         1 UNK         0.1015 
     92 H92        28.9086  -25.3675  -38.2562 H         1 UNK         0.0786 
     93 H93        29.4283  -26.0972  -39.7765 H         1 UNK         0.0786 
     94 H94        29.4488  -27.0368  -38.2909 H         1 UNK         0.0786 
     95 H95        27.3607  -27.1891  -41.6170 H         1 UNK         0.3172 
     96 H96        27.8789  -30.0824  -41.6024 H         1 UNK         0.0595 
     97 H97        27.3690  -28.1189  -43.9015 H         1 UNK         0.0839 
     98 H98        27.8787  -29.7926  -44.0691 H         1 UNK         0.0839 
     99 H99        28.9518  -28.6285  -43.3120 H         1 UNK         0.0839 
    100 H100       25.7816  -30.0200  -40.1376 H         1 UNK         0.2998 
    101 H101       23.2185  -29.8846  -41.4305 H         1 UNK         0.0822 
    102 H102       24.0625  -31.1502  -38.7681 H         1 UNK         0.0787 
    103 H103       23.5063  -29.4916  -38.9979 H         1 UNK         0.0787 
    104 H104       22.4053  -30.8334  -39.2638 H         1 UNK         0.0787 
    105 H105       21.8429  -31.5056  -42.1120 H         1 UNK         0.3055 
    106 H106       22.5706  -34.3353  -42.0208 H         1 UNK         0.1106 
    107 H107       22.4291  -34.6139  -44.4886 H         1 UNK         0.0828 
    108 H108       22.2366  -32.8793  -44.7065 H         1 UNK         0.0828 
    109 H109       23.7552  -33.5339  -44.0948 H         1 UNK         0.0828 
    110 H110       20.6447  -32.8444  -40.6735 H         1 UNK         0.2931 
    111 H111       18.1919  -32.6051  -42.0478 H         1 UNK         0.0412 
    112 H112       16.1550  -33.7460  -41.8186 H         1 UNK         0.3472 
    113 H113       16.1445  -35.4166  -41.3187 H         1 UNK         0.3472 
    114 H114       17.2421  -31.8864  -39.9429 H         1 UNK         0.0970 
    115 H115       18.4547  -32.7186  -39.0139 H         1 UNK         0.0970 
    116 H116       17.4063  -29.5506  -40.8243 H         1 UNK         0.0612 
    117 H117       18.7917  -28.4920  -40.7388 H         1 UNK         0.0612 
@<TRIPOS>BOND
     1    1    2 1    
     2    1   62 1    
     3    1   63 1    
     4    1   64 1    
     5    2    3 2    
     6    2    4 am   BACKBONE|DICT|INTERRES
     7    4    5 1    
     8    4   65 1    
     9    5    6 1    
    10    5   25 1    
    11    5   66 1    
    12    6    7 1    
    13    6   67 1    
    14    6   68 1    
    15    7    8 1    
    16    8    9 1    
    17    8   69 1    
    18    8   70 1    
    19    9   10 ar   
    20    9   14 ar   
    21   10   11 ar   
    22   10   71 1    
    23   11   12 ar   
    24   11   61 1    
    25   12   13 ar   
    26   12   72 1    
    27   13   14 ar   
    28   13   15 1    
    29   14   73 1    
    30   15   16 1    
    31   15   74 1    
    32   15   75 1    
    33   16   17 1    
    34   17   18 1    
    35   17   76 1    
    36   17   77 1    
    37   18   19 1    
    38   18   27 1    
    39   18   78 1    
    40   19   20 am   BACKBONE|DICT|INTERRES
    41   19   79 1    
    42   20   21 2    
    43   20   22 1    
    44   22   23 1    
    45   22   24 1    
    46   22   80 1    
    47   23   81 1    
    48   23   82 1    
    49   23   83 1    
    50   24   25 am   BACKBONE|DICT|INTERRES
    51   24   84 1    
    52   25   26 2    
    53   27   28 2    
    54   27   29 am   BACKBONE|DICT|INTERRES
    55   29   30 1    
    56   29   85 1    
    57   30   31 1    
    58   30   32 1    
    59   30   86 1    
    60   31   87 1    
    61   31   88 1    
    62   31   89 1    
    63   32   33 2    
    64   32   34 am   BACKBONE|DICT|INTERRES
    65   34   35 1    
    66   34   90 1    
    67   35   36 1    
    68   35   37 1    
    69   35   91 1    
    70   36   92 1    
    71   36   93 1    
    72   36   94 1    
    73   37   38 2    
    74   37   39 am   BACKBONE|DICT|INTERRES
    75   39   40 1    
    76   39   95 1    
    77   40   41 1    
    78   40   42 1    
    79   40   96 1    
    80   41   97 1    
    81   41   98 1    
    82   41   99 1    
    83   42   43 2    
    84   42   44 am   BACKBONE|DICT|INTERRES
    85   44   45 1    
    86   44  100 1    
    87   45   46 1    
    88   45   47 1    
    89   45  101 1    
    90   46  102 1    
    91   46  103 1    
    92   46  104 1    
    93   47   48 2    
    94   47   49 am   BACKBONE|DICT|INTERRES
    95   49   50 1    
    96   49  105 1    
    97   50   51 1    
    98   50   52 1    
    99   50  106 1    
   100   51  107 1    
   101   51  108 1    
   102   51  109 1    
   103   52   53 2    
   104   52   54 am   BACKBONE|DICT|INTERRES
   105   54   55 1    
   106   54  110 1    
   107   55   56 1    
   108   55   59 1    
   109   55  111 1    
   110   56   57 am   BACKBONE|DICT|INTERRES
   111   56   58 2    
   112   57  112 1    
   113   57  113 1    
   114   59   60 1    
   115   59  114 1    
   116   59  115 1    
   117   60   61 1    
   118   61  116 1    
   119   61  117 1    
@<TRIPOS>SUBSTRUCTURE
     1 UNK         1 GROUP             0       ****    0 ROOT    
