@<TRIPOS>MOLECULE
3R8
117   119    1
SMALL
USER_CHARGES


@<TRIPOS>ATOM
      1 CA         15.7369  -23.1852  -41.2737 C.3       0 UNK        -0.2013 
      2 C          16.7657  -23.9828  -42.0606 C.2       0 UNK         0.4866 
      3 O          17.9471  -23.9621  -41.7125 O.2       0 UNK        -0.5176 
      4 N          16.3243  -24.6746  -43.1213 N.am      1 UNK        -0.4884 
      5 CA         17.0946  -25.5331  -44.0375 C.3       1 UNK         0.0853 
      6 C6         17.8306  -26.7094  -43.3432 C.3       10 UNK        -0.0849 
      7 S7         16.7148  -27.8815  -42.4941 S.3       10 UNK        -0.2776 
      8 C8         16.3131  -29.1012  -43.7922 C.3       10 UNK         0.0316 
      9 C9         17.5458  -29.7571  -44.4028 C.ar      10 UNK        -0.0863 
     10 C10        18.2101  -30.7964  -43.7418 C.ar      10 UNK        -0.1009 
     11 C11        19.3427  -31.4010  -44.3117 C.ar      10 UNK        -0.0712 
     12 C12        19.8091  -30.9294  -45.5446 C.ar      10 UNK        -0.0894 
     13 C13        19.1516  -29.8937  -46.2157 C.ar      10 UNK        -0.0745 
     14 C14        18.0104  -29.3269  -45.6472 C.ar      10 UNK        -0.0972 
     15 C15        19.6604  -29.3899  -47.5605 C.3       10 UNK         0.0209 
     16 S16        20.0947  -27.6194  -47.5166 S.3       10 UNK        -0.2568 
     17 C17        21.5067  -27.6475  -46.3695 C.3       10 UNK        -0.0983 
     18 CA         22.1186  -26.2431  -46.1333 C.3       3 UNK         0.0876 
     19 N          21.1467  -25.3257  -45.5252 N.am      3 UNK        -0.4424 
     20 C          21.1948  -23.9895  -45.6014 C.2       2 UNK         0.4918 
     21 O          22.1040  -23.3811  -46.1668 O.2       2 UNK        -0.4875 
     22 CA         20.0706  -23.1855  -44.9100 C.3       2 UNK         0.0481 
     23 CB         19.5027  -22.0864  -45.8316 C.3       2 UNK        -0.1831 
     24 N          18.9917  -23.9945  -44.3204 N.am      2 UNK        -0.4498 
     25 C          18.0679  -24.7444  -44.9397 C.2       1 UNK         0.5027 
     26 O          17.9774  -24.8531  -46.1618 O.2       1 UNK        -0.4969 
     27 C          23.4070  -26.3954  -45.2990 C.2       3 UNK         0.5005 
     28 O          24.3744  -26.9650  -45.8051 O.2       3 UNK        -0.5279 
     29 N          23.3785  -25.9903  -44.0179 N.am      4 UNK        -0.4463 
     30 CA         24.3764  -26.2239  -42.9556 C.3       4 UNK         0.0283 
     31 CB         25.7659  -25.6694  -43.3248 C.3       4 UNK        -0.1875 
     32 C          24.4624  -27.6944  -42.4970 C.2       4 UNK         0.4949 
     33 O          24.6266  -27.9453  -41.3030 O.2       4 UNK        -0.5039 
     34 N          24.2621  -28.6382  -43.4283 N.am      5 UNK        -0.4663 
     35 CA         24.1376  -30.0866  -43.2183 C.3       5 UNK         0.0242 
     36 CB         23.9478  -30.7705  -44.5816 C.3       5 UNK        -0.1982 
     37 C          23.0030  -30.4989  -42.2625 C.2       5 UNK         0.5017 
     38 O          23.0329  -31.6130  -41.7410 O.2       5 UNK        -0.5012 
     39 N          22.0513  -29.5896  -42.0117 N.am      6 UNK        -0.4439 
     40 CA         20.9892  -29.7061  -41.0104 C.3       6 UNK         0.0297 
     41 CB         20.1210  -28.4446  -41.0562 C.3       6 UNK        -0.2006 
     42 C          21.5023  -29.9632  -39.5825 C.2       6 UNK         0.4892 
     43 O          20.8283  -30.6495  -38.8144 O.2       6 UNK        -0.5089 
     44 N          22.7029  -29.4535  -39.2675 N.am      7 UNK        -0.4243 
     45 CA         23.4092  -29.7199  -38.0133 C.3       7 UNK         0.0196 
     46 CB         24.5873  -28.7413  -37.8834 C.3       7 UNK        -0.2007 
     47 C          23.9020  -31.1743  -37.8868 C.2       7 UNK         0.5020 
     48 O          24.1028  -31.6375  -36.7638 O.2       7 UNK        -0.5147 
     49 N          24.0941  -31.8644  -39.0200 N.am      8 UNK        -0.4734 
     50 CA         24.5022  -33.2665  -39.0750 C.3       8 UNK         0.0238 
     51 CB         25.4632  -33.4868  -40.2561 C.3       8 UNK        -0.1912 
     52 C          23.2867  -34.1984  -39.1737 C.2       8 UNK         0.5038 
     53 O          23.2442  -35.1886  -38.4419 O.2       8 UNK        -0.5046 
     54 N          22.3329  -33.8876  -40.0674 N.am      9 UNK        -0.4200 
     55 CA         21.1280  -34.7105  -40.2750 C.3       9 UNK         0.0839 
     56 C          20.0612  -34.6104  -39.1456 C.2       9 UNK         0.5513 
     57 N          20.0338  -33.5495  -38.3475 N.am      9 UNK        -0.7519 
     58 O          19.2570  -35.5245  -38.9809 O.2       9 UNK        -0.4960 
     59 C59        20.5305  -34.5679  -41.7032 C.3       10 UNK        -0.0876 
     60 S60        19.5359  -33.0644  -41.9985 S.3       10 UNK        -0.2414 
     61 C61        20.0856  -32.5794  -43.6707 C.3       10 UNK         0.0169 
     62 H62        14.7339  -23.2905  -41.6867 H         1 UNK         0.0903 
     63 H63        15.9976  -22.1273  -41.2805 H         1 UNK         0.0903 
     64 H64        15.7139  -23.5239  -40.2383 H         1 UNK         0.0903 
     65 H65        15.3401  -24.6160  -43.3456 H         1 UNK         0.3096 
     66 H66        16.3576  -25.9710  -44.7132 H         1 UNK         0.1121 
     67 H67        18.4537  -27.2522  -44.0526 H         1 UNK         0.0849 
     68 H68        18.5273  -26.3284  -42.5960 H         1 UNK         0.0849 
     69 H69        15.6708  -29.8711  -43.3622 H         1 UNK         0.0865 
     70 H70        15.7170  -28.6132  -44.5649 H         1 UNK         0.0865 
     71 H71        17.8280  -31.1280  -42.7873 H         1 UNK         0.1346 
     72 H72        20.6837  -31.3830  -45.9909 H         1 UNK         0.1412 
     73 H73        17.4988  -28.5288  -46.1683 H         1 UNK         0.1426 
     74 H74        20.5282  -29.9625  -47.8917 H         1 UNK         0.0716 
     75 H75        18.8849  -29.5436  -48.3120 H         1 UNK         0.0716 
     76 H76        22.2493  -28.3297  -46.7892 H         1 UNK         0.0695 
     77 H77        21.1833  -28.0885  -45.4242 H         1 UNK         0.0695 
     78 H78        22.4194  -25.8357  -47.1014 H         1 UNK         0.0983 
     79 H79        20.3440  -25.7487  -45.0867 H         1 UNK         0.3095 
     80 H80        20.5463  -22.6842  -44.0660 H         1 UNK         0.0454 
     81 H81        18.7307  -21.5050  -45.3278 H         1 UNK         0.0851 
     82 H82        19.0708  -22.5013  -46.7426 H         1 UNK         0.0851 
     83 H83        20.2835  -21.3882  -46.1356 H         1 UNK         0.0851 
     84 H84        18.9173  -23.9561  -43.3046 H         1 UNK         0.2976 
     85 H85        22.5266  -25.5445  -43.7076 H         1 UNK         0.3116 
     86 H86        24.0214  -25.6549  -42.0947 H         1 UNK         0.0646 
     87 H87        25.7093  -24.6230  -43.6240 H         1 UNK         0.0847 
     88 H88        26.4427  -25.7265  -42.4713 H         1 UNK         0.0847 
     89 H89        26.2305  -26.2271  -44.1382 H         1 UNK         0.0847 
     90 H90        24.2085  -28.3126  -44.3888 H         1 UNK         0.3040 
     91 H91        25.0720  -30.4383  -42.7761 H         1 UNK         0.1015 
     92 H92        23.0357  -30.4348  -45.0771 H         1 UNK         0.0786 
     93 H93        23.8792  -31.8538  -44.4706 H         1 UNK         0.0786 
     94 H94        24.7863  -30.5676  -45.2482 H         1 UNK         0.0786 
     95 H95        22.1181  -28.7098  -42.4993 H         1 UNK         0.3172 
     96 H96        20.3635  -30.5491  -41.2916 H         1 UNK         0.0595 
     97 H97        19.2864  -28.5170  -40.3574 H         1 UNK         0.0839 
     98 H98        19.6979  -28.3155  -42.0504 H         1 UNK         0.0839 
     99 H99        20.6863  -27.5465  -40.8045 H         1 UNK         0.0839 
    100 H100       23.2034  -28.9116  -39.9634 H         1 UNK         0.2998 
    101 H101       22.7169  -29.5357  -37.1889 H         1 UNK         0.0822 
    102 H102       24.2481  -27.7056  -37.9070 H         1 UNK         0.0787 
    103 H103       25.1156  -28.8880  -36.9403 H         1 UNK         0.0787 
    104 H104       25.3118  -28.8746  -38.6881 H         1 UNK         0.0787 
    105 H105       23.8465  -31.4362  -39.9048 H         1 UNK         0.3055 
    106 H106       25.0423  -33.5260  -38.1613 H         1 UNK         0.1106 
    107 H107       26.3451  -32.8517  -40.1717 H         1 UNK         0.0828 
    108 H108       25.8109  -34.5203  -40.2842 H         1 UNK         0.0828 
    109 H109       24.9924  -33.2787  -41.2168 H         1 UNK         0.0828 
    110 H110       22.4368  -33.0606  -40.6485 H         1 UNK         0.2931 
    111 H111       21.4740  -35.7456  -40.2297 H         1 UNK         0.0412 
    112 H112       19.3420  -33.5037  -37.6169 H         1 UNK         0.3472 
    113 H113       20.6258  -32.7479  -38.5258 H         1 UNK         0.3472 
    114 H114       21.3333  -34.6253  -42.4399 H         1 UNK         0.0970 
    115 H115       19.8867  -35.4242  -41.9119 H         1 UNK         0.0970 
    116 H116       21.1503  -32.3501  -43.6305 H         1 UNK         0.0612 
    117 H117       19.9792  -33.4443  -44.3269 H         1 UNK         0.0612 
@<TRIPOS>BOND
     1    1    2 1    
     2    1   62 1    
     3    1   63 1    
     4    1   64 1    
     5    2    3 2    
     6    2    4 am   BACKBONE|DICT|INTERRES
     7    4    5 1    
     8    4   65 1    
     9    5    6 1    
    10    5   25 1    
    11    5   66 1    
    12    6    7 1    
    13    6   67 1    
    14    6   68 1    
    15    7    8 1    
    16    8    9 1    
    17    8   69 1    
    18    8   70 1    
    19    9   10 ar   
    20    9   14 ar   
    21   10   11 ar   
    22   10   71 1    
    23   11   12 ar   
    24   11   61 1    
    25   12   13 ar   
    26   12   72 1    
    27   13   14 ar   
    28   13   15 1    
    29   14   73 1    
    30   15   16 1    
    31   15   74 1    
    32   15   75 1    
    33   16   17 1    
    34   17   18 1    
    35   17   76 1    
    36   17   77 1    
    37   18   19 1    
    38   18   27 1    
    39   18   78 1    
    40   19   20 am   BACKBONE|DICT|INTERRES
    41   19   79 1    
    42   20   21 2    
    43   20   22 1    
    44   22   23 1    
    45   22   24 1    
    46   22   80 1    
    47   23   81 1    
    48   23   82 1    
    49   23   83 1    
    50   24   25 am   BACKBONE|DICT|INTERRES
    51   24   84 1    
    52   25   26 2    
    53   27   28 2    
    54   27   29 am   BACKBONE|DICT|INTERRES
    55   29   30 1    
    56   29   85 1    
    57   30   31 1    
    58   30   32 1    
    59   30   86 1    
    60   31   87 1    
    61   31   88 1    
    62   31   89 1    
    63   32   33 2    
    64   32   34 am   BACKBONE|DICT|INTERRES
    65   34   35 1    
    66   34   90 1    
    67   35   36 1    
    68   35   37 1    
    69   35   91 1    
    70   36   92 1    
    71   36   93 1    
    72   36   94 1    
    73   37   38 2    
    74   37   39 am   BACKBONE|DICT|INTERRES
    75   39   40 1    
    76   39   95 1    
    77   40   41 1    
    78   40   42 1    
    79   40   96 1    
    80   41   97 1    
    81   41   98 1    
    82   41   99 1    
    83   42   43 2    
    84   42   44 am   BACKBONE|DICT|INTERRES
    85   44   45 1    
    86   44  100 1    
    87   45   46 1    
    88   45   47 1    
    89   45  101 1    
    90   46  102 1    
    91   46  103 1    
    92   46  104 1    
    93   47   48 2    
    94   47   49 am   BACKBONE|DICT|INTERRES
    95   49   50 1    
    96   49  105 1    
    97   50   51 1    
    98   50   52 1    
    99   50  106 1    
   100   51  107 1    
   101   51  108 1    
   102   51  109 1    
   103   52   53 2    
   104   52   54 am   BACKBONE|DICT|INTERRES
   105   54   55 1    
   106   54  110 1    
   107   55   56 1    
   108   55   59 1    
   109   55  111 1    
   110   56   57 am   BACKBONE|DICT|INTERRES
   111   56   58 2    
   112   57  112 1    
   113   57  113 1    
   114   59   60 1    
   115   59  114 1    
   116   59  115 1    
   117   60   61 1    
   118   61  116 1    
   119   61  117 1    
@<TRIPOS>SUBSTRUCTURE
     1 UNK         1 GROUP             0       ****    0 ROOT    
