@<TRIPOS>MOLECULE
3R8
117   119    1
SMALL
USER_CHARGES


@<TRIPOS>ATOM
      1 CA         18.7674  -21.8595  -43.0444 C.3       0 UNK        -0.2013 
      2 C          17.9944  -22.6150  -44.1149 C.2       0 UNK         0.4866 
      3 O          17.4397  -21.9965  -45.0232 O.2       0 UNK        -0.5176 
      4 N          17.9578  -23.9502  -44.0192 N.am      1 UNK        -0.4884 
      5 CA         17.2291  -24.8382  -44.9376 C.3       1 UNK         0.0853 
      6 C6         16.9400  -26.2179  -44.2958 C.3       10 UNK        -0.0849 
      7 S7         16.0704  -26.1488  -42.6889 S.3       10 UNK        -0.2776 
      8 C8         15.3537  -27.8281  -42.5769 C.3       10 UNK         0.0316 
      9 C9         16.4076  -28.9031  -42.8049 C.ar      10 UNK        -0.0863 
     10 C10        17.2654  -29.2906  -41.7702 C.ar      10 UNK        -0.1009 
     11 C11        18.3166  -30.1814  -42.0158 C.ar      10 UNK        -0.0712 
     12 C12        18.4954  -30.6881  -43.3064 C.ar      10 UNK        -0.0894 
     13 C13        17.6367  -30.3145  -44.3449 C.ar      10 UNK        -0.0745 
     14 C14        16.5752  -29.4494  -44.0803 C.ar      10 UNK        -0.0972 
     15 C15        17.9175  -30.7550  -45.7752 C.3       10 UNK         0.0209 
     16 S16        18.7806  -29.4433  -46.7119 S.3       10 UNK        -0.2568 
     17 C17        20.2091  -29.1609  -45.6186 C.3       10 UNK        -0.0983 
     18 CA         21.3270  -28.2473  -46.1842 C.3       3 UNK         0.0876 
     19 N          20.8481  -26.8852  -46.4136 N.am      3 UNK        -0.4424 
     20 C          20.5764  -26.3093  -47.5879 C.2       2 UNK         0.4918 
     21 O          20.6567  -26.8822  -48.6759 O.2       2 UNK        -0.4875 
     22 CA         20.1519  -24.8273  -47.5074 C.3       2 UNK         0.0481 
     23 CB         19.6317  -24.2639  -48.8475 C.3       2 UNK        -0.1831 
     24 N          19.2070  -24.5845  -46.4059 N.am      2 UNK        -0.4498 
     25 C          17.9499  -25.0468  -46.2918 C.2       1 UNK         0.5027 
     26 O          17.3600  -25.6519  -47.1878 O.2       1 UNK        -0.4969 
     27 C          22.4853  -28.1654  -45.1663 C.2       3 UNK         0.5005 
     28 O          22.8688  -27.0682  -44.7458 O.2       3 UNK        -0.5279 
     29 N          22.9693  -29.3311  -44.7127 N.am      4 UNK        -0.4463 
     30 CA         23.8750  -29.5138  -43.5718 C.3       4 UNK         0.0283 
     31 CB         24.4773  -30.9286  -43.6530 C.3       4 UNK        -0.1875 
     32 C          23.1812  -29.2424  -42.2152 C.2       4 UNK         0.4949 
     33 O          23.1568  -30.1073  -41.3350 O.2       4 UNK        -0.5039 
     34 N          22.6103  -28.0399  -42.0748 N.am      5 UNK        -0.4663 
     35 CA         21.9814  -27.5295  -40.8581 C.3       5 UNK         0.0242 
     36 CB         21.2628  -26.2075  -41.1715 C.3       5 UNK        -0.1982 
     37 C          23.0290  -27.3499  -39.7494 C.2       5 UNK         0.5017 
     38 O          24.0813  -26.7596  -40.0024 O.2       5 UNK        -0.5012 
     39 N          22.7325  -27.9023  -38.5643 N.am      6 UNK        -0.4439 
     40 CA         23.6238  -28.0359  -37.4019 C.3       6 UNK         0.0297 
     41 CB         24.0440  -26.6568  -36.8489 C.3       6 UNK        -0.2006 
     42 C          24.8319  -28.9714  -37.6389 C.2       6 UNK         0.4892 
     43 O          25.7652  -28.9639  -36.8350 O.2       6 UNK        -0.5089 
     44 N          24.7824  -29.7834  -38.7041 N.am      7 UNK        -0.4243 
     45 CA         25.7796  -30.7906  -39.0648 C.3       7 UNK         0.0196 
     46 CB         26.6495  -30.2631  -40.2208 C.3       7 UNK        -0.2007 
     47 C          25.0787  -32.1257  -39.3700 C.2       7 UNK         0.5020 
     48 O          25.4195  -32.8071  -40.3377 O.2       7 UNK        -0.5147 
     49 N          24.0958  -32.4656  -38.5219 N.am      8 UNK        -0.4734 
     50 CA         23.3205  -33.7145  -38.4812 C.3       8 UNK         0.0238 
     51 CB         24.2438  -34.9152  -38.1790 C.3       8 UNK        -0.1912 
     52 C          22.4118  -33.9790  -39.6995 C.2       8 UNK         0.5038 
     53 O          21.9113  -35.0978  -39.8282 O.2       8 UNK        -0.5046 
     54 N          22.1899  -32.9681  -40.5525 N.am      9 UNK        -0.4200 
     55 CA         21.3472  -33.0338  -41.7604 C.3       9 UNK         0.0839 
     56 C          21.8970  -33.9664  -42.8824 C.2       9 UNK         0.5513 
     57 N          23.1697  -34.3455  -42.8604 N.am      9 UNK        -0.7519 
     58 O          21.1721  -34.3208  -43.8084 O.2       9 UNK        -0.4960 
     59 C59        19.8386  -33.2912  -41.4500 C.3       10 UNK        -0.0876 
     60 S60        19.0951  -32.1739  -40.2042 S.3       10 UNK        -0.2414 
     61 C61        19.3156  -30.5098  -40.9136 C.3       10 UNK         0.0169 
     62 H62        19.2130  -22.5316  -42.3112 H         1 UNK         0.0903 
     63 H63        19.5670  -21.2758  -43.4997 H         1 UNK         0.0903 
     64 H64        18.1040  -21.1748  -42.5166 H         1 UNK         0.0903 
     65 H65        18.4017  -24.4070  -43.2347 H         1 UNK         0.3096 
     66 H66        16.2689  -24.3703  -45.1675 H         1 UNK         0.1121 
     67 H67        17.8682  -26.7761  -44.1537 H         1 UNK         0.0849 
     68 H68        16.3285  -26.8091  -44.9794 H         1 UNK         0.0849 
     69 H69        14.8966  -27.9585  -41.5949 H         1 UNK         0.0865 
     70 H70        14.5458  -27.9245  -43.3041 H         1 UNK         0.0865 
     71 H71        17.1443  -28.8568  -40.7869 H         1 UNK         0.1346 
     72 H72        19.3393  -31.3270  -43.5208 H         1 UNK         0.1412 
     73 H73        15.9287  -29.1408  -44.8906 H         1 UNK         0.1426 
     74 H74        18.5201  -31.6647  -45.7856 H         1 UNK         0.0716 
     75 H75        16.9815  -30.9996  -46.2796 H         1 UNK         0.0716 
     76 H76        20.5995  -30.1497  -45.3740 H         1 UNK         0.0695 
     77 H77        19.8376  -28.7324  -44.6856 H         1 UNK         0.0695 
     78 H78        21.7239  -28.6713  -47.1091 H         1 UNK         0.0983 
     79 H79        20.8536  -26.3046  -45.5873 H         1 UNK         0.3095 
     80 H80        21.0548  -24.2697  -47.2544 H         1 UNK         0.0454 
     81 H81        19.3328  -23.2203  -48.7507 H         1 UNK         0.0851 
     82 H82        18.7767  -24.8253  -49.2245 H         1 UNK         0.0851 
     83 H83        20.4068  -24.3089  -49.6132 H         1 UNK         0.0851 
     84 H84        19.5767  -24.0799  -45.6124 H         1 UNK         0.2976 
     85 H85        22.5972  -30.1816  -45.1099 H         1 UNK         0.3116 
     86 H86        24.6934  -28.7962  -43.6594 H         1 UNK         0.0646 
     87 H87        23.7032  -31.6936  -43.6248 H         1 UNK         0.0847 
     88 H88        25.1544  -31.1283  -42.8231 H         1 UNK         0.0847 
     89 H89        25.0487  -31.0647  -44.5711 H         1 UNK         0.0847 
     90 H90        22.6972  -27.3954  -42.8555 H         1 UNK         0.3040 
     91 H91        21.2358  -28.2570  -40.5342 H         1 UNK         0.1015 
     92 H92        21.9569  -25.4468  -41.5314 H         1 UNK         0.0786 
     93 H93        20.7728  -25.8090  -40.2821 H         1 UNK         0.0786 
     94 H94        20.4927  -26.3465  -41.9309 H         1 UNK         0.0786 
     95 H95        21.8330  -28.3534  -38.4638 H         1 UNK         0.3172 
     96 H96        23.0260  -28.5226  -36.6298 H         1 UNK         0.0595 
     97 H97        24.7278  -26.1386  -37.5215 H         1 UNK         0.0839 
     98 H98        24.5538  -26.7593  -35.8902 H         1 UNK         0.0839 
     99 H99        23.1798  -26.0130  -36.6860 H         1 UNK         0.0839 
    100 H100       23.9881  -29.7229  -39.3311 H         1 UNK         0.2998 
    101 H101       26.4367  -30.9904  -38.2158 H         1 UNK         0.0822 
    102 H102       27.2221  -29.3893  -39.9097 H         1 UNK         0.0787 
    103 H103       27.3644  -31.0146  -40.5581 H         1 UNK         0.0787 
    104 H104       26.0440  -29.9699  -41.0768 H         1 UNK         0.0787 
    105 H105       23.8875  -31.8096  -37.7813 H         1 UNK         0.3055 
    106 H106       22.6376  -33.6117  -37.6362 H         1 UNK         0.1106 
    107 H107       23.6652  -35.8198  -37.9874 H         1 UNK         0.0828 
    108 H108       24.9133  -35.1308  -39.0122 H         1 UNK         0.0828 
    109 H109       24.8552  -34.7343  -37.2950 H         1 UNK         0.0828 
    110 H110       22.6708  -32.0893  -40.4089 H         1 UNK         0.2931 
    111 H111       21.4223  -32.0456  -42.2099 H         1 UNK         0.0412 
    112 H112       23.7791  -34.0438  -42.1143 H         1 UNK         0.3472 
    113 H113       23.5223  -34.9403  -43.5935 H         1 UNK         0.3472 
    114 H114       19.7071  -34.3119  -41.0882 H         1 UNK         0.0970 
    115 H115       19.2370  -33.2391  -42.3572 H         1 UNK         0.0970 
    116 H116       19.2125  -29.7906  -40.0999 H         1 UNK         0.0612 
    117 H117       20.3313  -30.3819  -41.2833 H         1 UNK         0.0612 
@<TRIPOS>BOND
     1    1    2 1    
     2    1   62 1    
     3    1   63 1    
     4    1   64 1    
     5    2    3 2    
     6    2    4 am   BACKBONE|DICT|INTERRES
     7    4    5 1    
     8    4   65 1    
     9    5    6 1    
    10    5   25 1    
    11    5   66 1    
    12    6    7 1    
    13    6   67 1    
    14    6   68 1    
    15    7    8 1    
    16    8    9 1    
    17    8   69 1    
    18    8   70 1    
    19    9   10 ar   
    20    9   14 ar   
    21   10   11 ar   
    22   10   71 1    
    23   11   12 ar   
    24   11   61 1    
    25   12   13 ar   
    26   12   72 1    
    27   13   14 ar   
    28   13   15 1    
    29   14   73 1    
    30   15   16 1    
    31   15   74 1    
    32   15   75 1    
    33   16   17 1    
    34   17   18 1    
    35   17   76 1    
    36   17   77 1    
    37   18   19 1    
    38   18   27 1    
    39   18   78 1    
    40   19   20 am   BACKBONE|DICT|INTERRES
    41   19   79 1    
    42   20   21 2    
    43   20   22 1    
    44   22   23 1    
    45   22   24 1    
    46   22   80 1    
    47   23   81 1    
    48   23   82 1    
    49   23   83 1    
    50   24   25 am   BACKBONE|DICT|INTERRES
    51   24   84 1    
    52   25   26 2    
    53   27   28 2    
    54   27   29 am   BACKBONE|DICT|INTERRES
    55   29   30 1    
    56   29   85 1    
    57   30   31 1    
    58   30   32 1    
    59   30   86 1    
    60   31   87 1    
    61   31   88 1    
    62   31   89 1    
    63   32   33 2    
    64   32   34 am   BACKBONE|DICT|INTERRES
    65   34   35 1    
    66   34   90 1    
    67   35   36 1    
    68   35   37 1    
    69   35   91 1    
    70   36   92 1    
    71   36   93 1    
    72   36   94 1    
    73   37   38 2    
    74   37   39 am   BACKBONE|DICT|INTERRES
    75   39   40 1    
    76   39   95 1    
    77   40   41 1    
    78   40   42 1    
    79   40   96 1    
    80   41   97 1    
    81   41   98 1    
    82   41   99 1    
    83   42   43 2    
    84   42   44 am   BACKBONE|DICT|INTERRES
    85   44   45 1    
    86   44  100 1    
    87   45   46 1    
    88   45   47 1    
    89   45  101 1    
    90   46  102 1    
    91   46  103 1    
    92   46  104 1    
    93   47   48 2    
    94   47   49 am   BACKBONE|DICT|INTERRES
    95   49   50 1    
    96   49  105 1    
    97   50   51 1    
    98   50   52 1    
    99   50  106 1    
   100   51  107 1    
   101   51  108 1    
   102   51  109 1    
   103   52   53 2    
   104   52   54 am   BACKBONE|DICT|INTERRES
   105   54   55 1    
   106   54  110 1    
   107   55   56 1    
   108   55   59 1    
   109   55  111 1    
   110   56   57 am   BACKBONE|DICT|INTERRES
   111   56   58 2    
   112   57  112 1    
   113   57  113 1    
   114   59   60 1    
   115   59  114 1    
   116   59  115 1    
   117   60   61 1    
   118   61  116 1    
   119   61  117 1    
@<TRIPOS>SUBSTRUCTURE
     1 UNK         1 GROUP             0       ****    0 ROOT    
