@<TRIPOS>MOLECULE
3R8
117   119    1
SMALL
USER_CHARGES


@<TRIPOS>ATOM
      1 CA         17.0316  -29.6599  -40.5048 C.3       0 UNK        -0.2013 
      2 C          16.9259  -28.1603  -40.7319 C.2       0 UNK         0.4866 
      3 O          16.9280  -27.3857  -39.7760 O.2       0 UNK        -0.5176 
      4 N          16.8197  -27.7611  -42.0032 N.am      1 UNK        -0.4884 
      5 CA         16.6914  -26.3777  -42.4692 C.3       1 UNK         0.0853 
      6 C6         16.3422  -26.2963  -43.9755 C.3       10 UNK        -0.0849 
      7 S7         14.6513  -26.8714  -44.3683 S.3       10 UNK        -0.2776 
      8 C8         14.7438  -28.6983  -44.3176 C.3       10 UNK         0.0316 
      9 C9         15.9784  -29.2836  -44.9948 C.ar      10 UNK        -0.0863 
     10 C10        16.7647  -30.2264  -44.3250 C.ar      10 UNK        -0.1009 
     11 C11        17.8986  -30.7697  -44.9354 C.ar      10 UNK        -0.0712 
     12 C12        18.2454  -30.3682  -46.2287 C.ar      10 UNK        -0.0894 
     13 C13        17.4634  -29.4303  -46.9104 C.ar      10 UNK        -0.0745 
     14 C14        16.3268  -28.9021  -46.2937 C.ar      10 UNK        -0.0972 
     15 C15        17.8278  -28.9867  -48.3178 C.3       10 UNK         0.0209 
     16 S16        18.7480  -27.4162  -48.3053 S.3       10 UNK        -0.2568 
     17 C17        20.4304  -27.9805  -47.8908 C.3       10 UNK        -0.0983 
     18 CA         21.0448  -27.2256  -46.6872 C.3       3 UNK         0.0876 
     19 N          20.2791  -27.4022  -45.4450 N.am      3 UNK        -0.4424 
     20 C          20.3807  -26.5827  -44.3895 C.2       2 UNK         0.4918 
     21 O          21.0251  -25.5314  -44.3912 O.2       2 UNK        -0.4875 
     22 CA         19.6807  -27.0335  -43.1016 C.3       2 UNK         0.0481 
     23 CB         20.6954  -27.7358  -42.1819 C.3       2 UNK        -0.1831 
     24 N          19.1673  -25.8614  -42.3922 N.am      2 UNK        -0.4498 
     25 C          17.9069  -25.4796  -42.1316 C.2       1 UNK         0.5027 
     26 O          17.6853  -24.3875  -41.6100 O.2       1 UNK        -0.4969 
     27 C          22.5140  -27.6585  -46.5010 C.2       3 UNK         0.5005 
     28 O          23.4045  -27.0779  -47.1246 O.2       3 UNK        -0.5279 
     29 N          22.7350  -28.6786  -45.6597 N.am      4 UNK        -0.4463 
     30 CA         24.0508  -29.1946  -45.2887 C.3       4 UNK         0.0283 
     31 CB         23.8673  -30.5823  -44.6530 C.3       4 UNK        -0.1875 
     32 C          24.7730  -28.2541  -44.3100 C.2       4 UNK         0.4949 
     33 O          24.1270  -27.4780  -43.6037 O.2       4 UNK        -0.5039 
     34 N          26.1051  -28.3805  -44.2541 N.am      5 UNK        -0.4663 
     35 CA         26.9623  -27.6571  -43.3075 C.3       5 UNK         0.0242 
     36 CB         28.4206  -27.7318  -43.7891 C.3       5 UNK        -0.1982 
     37 C          26.8447  -28.1762  -41.8614 C.2       5 UNK         0.5017 
     38 O          27.1587  -27.4351  -40.9289 O.2       5 UNK        -0.5012 
     39 N          26.4078  -29.4333  -41.7012 N.am      6 UNK        -0.4439 
     40 CA         26.1231  -30.0669  -40.4148 C.3       6 UNK         0.0297 
     41 CB         25.9566  -31.5807  -40.6239 C.3       6 UNK        -0.2006 
     42 C          24.8594  -29.4729  -39.7740 C.2       6 UNK         0.4892 
     43 O          23.8661  -29.2574  -40.4742 O.2       6 UNK        -0.5089 
     44 N          24.9128  -29.2538  -38.4528 N.am      7 UNK        -0.4243 
     45 CA         23.8126  -28.7317  -37.6386 C.3       7 UNK         0.0196 
     46 CB         24.2838  -28.5651  -36.1845 C.3       7 UNK        -0.2007 
     47 C          22.5801  -29.6455  -37.7158 C.2       7 UNK         0.5020 
     48 O          22.6784  -30.8247  -37.3699 O.2       7 UNK        -0.5147 
     49 N          21.4693  -29.0955  -38.2265 N.am      8 UNK        -0.4734 
     50 CA         20.2014  -29.7812  -38.5177 C.3       8 UNK         0.0238 
     51 CB         19.4877  -30.1720  -37.2055 C.3       8 UNK        -0.1912 
     52 C          20.3479  -30.9750  -39.4895 C.2       8 UNK         0.5038 
     53 O          19.5549  -31.9148  -39.4172 O.2       8 UNK        -0.5046 
     54 N          21.3633  -30.9203  -40.3646 N.am      9 UNK        -0.4200 
     55 CA         21.7936  -31.9989  -41.2698 C.3       9 UNK         0.0839 
     56 C          22.4259  -33.2269  -40.5451 C.2       9 UNK         0.5513 
     57 N          22.8056  -33.1343  -39.2752 N.am      9 UNK        -0.7519 
     58 O          22.6111  -34.2776  -41.1537 O.2       9 UNK        -0.4960 
     59 C59        20.7219  -32.4089  -42.3239 C.3       10 UNK        -0.0876 
     60 S60        20.1124  -31.0069  -43.3183 S.3       10 UNK        -0.2414 
     61 C61        18.7382  -31.8004  -44.1985 C.3       10 UNK         0.0169 
     62 H62        16.1054  -30.1544  -40.7959 H         1 UNK         0.0903 
     63 H63        17.2102  -29.8820  -39.4535 H         1 UNK         0.0903 
     64 H64        17.8494  -30.0846  -41.0873 H         1 UNK         0.0903 
     65 H65        16.8334  -28.4526  -42.7383 H         1 UNK         0.3096 
     66 H66        15.8495  -25.9505  -41.9191 H         1 UNK         0.1121 
     67 H67        16.3877  -25.2589  -44.3137 H         1 UNK         0.0849 
     68 H68        17.0743  -26.8257  -44.5848 H         1 UNK         0.0849 
     69 H69        14.6795  -29.0206  -43.2775 H         1 UNK         0.0865 
     70 H70        13.8566  -29.1021  -44.8071 H         1 UNK         0.0865 
     71 H71        16.4909  -30.5537  -43.3316 H         1 UNK         0.1346 
     72 H72        19.1193  -30.7926  -46.7036 H         1 UNK         0.1412 
     73 H73        15.7195  -28.1784  -46.8208 H         1 UNK         0.1426 
     74 H74        18.4052  -29.7559  -48.8333 H         1 UNK         0.0716 
     75 H75        16.9170  -28.8523  -48.9033 H         1 UNK         0.0716 
     76 H76        21.0424  -27.8306  -48.7827 H         1 UNK         0.0695 
     77 H77        20.4307  -29.0559  -47.7083 H         1 UNK         0.0695 
     78 H78        21.0554  -26.1610  -46.9329 H         1 UNK         0.0983 
     79 H79        19.6902  -28.2211  -45.3906 H         1 UNK         0.3095 
     80 H80        18.9019  -27.7409  -43.3764 H         1 UNK         0.0454 
     81 H81        20.1957  -28.2267  -41.3482 H         1 UNK         0.0851 
     82 H82        21.4246  -27.0359  -41.7718 H         1 UNK         0.0851 
     83 H83        21.2677  -28.4947  -42.7147 H         1 UNK         0.0851 
     84 H84        19.8874  -25.1835  -42.1864 H         1 UNK         0.2976 
     85 H85        21.9470  -29.0676  -45.1648 H         1 UNK         0.3116 
     86 H86        24.6538  -29.2952  -46.1937 H         1 UNK         0.0646 
     87 H87        24.8275  -31.0409  -44.4144 H         1 UNK         0.0847 
     88 H88        23.3440  -31.2638  -45.3241 H         1 UNK         0.0847 
     89 H89        23.2955  -30.5194  -43.7276 H         1 UNK         0.0847 
     90 H90        26.5632  -29.0316  -44.8768 H         1 UNK         0.3040 
     91 H91        26.6572  -26.6080  -43.2997 H         1 UNK         0.1015 
     92 H92        28.7832  -28.7599  -43.8255 H         1 UNK         0.0786 
     93 H93        29.0809  -27.1774  -43.1205 H         1 UNK         0.0786 
     94 H94        28.5333  -27.2991  -44.7835 H         1 UNK         0.0786 
     95 H95        26.1434  -29.9450  -42.5284 H         1 UNK         0.3172 
     96 H96        26.9752  -29.8985  -39.7525 H         1 UNK         0.0595 
     97 H97        25.1423  -31.8067  -41.3131 H         1 UNK         0.0839 
     98 H98        25.7327  -32.0837  -39.6820 H         1 UNK         0.0839 
     99 H99        26.8669  -32.0299  -41.0213 H         1 UNK         0.0839 
    100 H100       25.7596  -29.4938  -37.9581 H         1 UNK         0.2998 
    101 H101       23.5533  -27.7452  -38.0288 H         1 UNK         0.0822 
    102 H102       24.5927  -29.5161  -35.7482 H         1 UNK         0.0787 
    103 H103       23.4840  -28.1651  -35.5597 H         1 UNK         0.0787 
    104 H104       25.1242  -27.8741  -36.1150 H         1 UNK         0.0787 
    105 H105       21.5094  -28.1236  -38.5032 H         1 UNK         0.3055 
    106 H106       19.5715  -29.0528  -39.0298 H         1 UNK         0.1106 
    107 H107       19.3720  -29.3124  -36.5455 H         1 UNK         0.0828 
    108 H108       18.4887  -30.5636  -37.3998 H         1 UNK         0.0828 
    109 H109       20.0358  -30.9417  -36.6613 H         1 UNK         0.0828 
    110 H110       21.9971  -30.1291  -40.3245 H         1 UNK         0.2931 
    111 H111       22.6276  -31.5679  -41.8211 H         1 UNK         0.0412 
    112 H112       22.6698  -32.2817  -38.7421 H         1 UNK         0.3472 
    113 H113       23.2197  -33.9376  -38.8303 H         1 UNK         0.3472 
    114 H114       21.1339  -33.1436  -43.0179 H         1 UNK         0.0970 
    115 H115       19.8763  -32.8962  -41.8363 H         1 UNK         0.0970 
    116 H116       18.1176  -32.3486  -43.4879 H         1 UNK         0.0612 
    117 H117       19.1339  -32.5373  -44.8991 H         1 UNK         0.0612 
@<TRIPOS>BOND
     1    1    2 1    
     2    1   62 1    
     3    1   63 1    
     4    1   64 1    
     5    2    3 2    
     6    2    4 am   BACKBONE|DICT|INTERRES
     7    4    5 1    
     8    4   65 1    
     9    5    6 1    
    10    5   25 1    
    11    5   66 1    
    12    6    7 1    
    13    6   67 1    
    14    6   68 1    
    15    7    8 1    
    16    8    9 1    
    17    8   69 1    
    18    8   70 1    
    19    9   10 ar   
    20    9   14 ar   
    21   10   11 ar   
    22   10   71 1    
    23   11   12 ar   
    24   11   61 1    
    25   12   13 ar   
    26   12   72 1    
    27   13   14 ar   
    28   13   15 1    
    29   14   73 1    
    30   15   16 1    
    31   15   74 1    
    32   15   75 1    
    33   16   17 1    
    34   17   18 1    
    35   17   76 1    
    36   17   77 1    
    37   18   19 1    
    38   18   27 1    
    39   18   78 1    
    40   19   20 am   BACKBONE|DICT|INTERRES
    41   19   79 1    
    42   20   21 2    
    43   20   22 1    
    44   22   23 1    
    45   22   24 1    
    46   22   80 1    
    47   23   81 1    
    48   23   82 1    
    49   23   83 1    
    50   24   25 am   BACKBONE|DICT|INTERRES
    51   24   84 1    
    52   25   26 2    
    53   27   28 2    
    54   27   29 am   BACKBONE|DICT|INTERRES
    55   29   30 1    
    56   29   85 1    
    57   30   31 1    
    58   30   32 1    
    59   30   86 1    
    60   31   87 1    
    61   31   88 1    
    62   31   89 1    
    63   32   33 2    
    64   32   34 am   BACKBONE|DICT|INTERRES
    65   34   35 1    
    66   34   90 1    
    67   35   36 1    
    68   35   37 1    
    69   35   91 1    
    70   36   92 1    
    71   36   93 1    
    72   36   94 1    
    73   37   38 2    
    74   37   39 am   BACKBONE|DICT|INTERRES
    75   39   40 1    
    76   39   95 1    
    77   40   41 1    
    78   40   42 1    
    79   40   96 1    
    80   41   97 1    
    81   41   98 1    
    82   41   99 1    
    83   42   43 2    
    84   42   44 am   BACKBONE|DICT|INTERRES
    85   44   45 1    
    86   44  100 1    
    87   45   46 1    
    88   45   47 1    
    89   45  101 1    
    90   46  102 1    
    91   46  103 1    
    92   46  104 1    
    93   47   48 2    
    94   47   49 am   BACKBONE|DICT|INTERRES
    95   49   50 1    
    96   49  105 1    
    97   50   51 1    
    98   50   52 1    
    99   50  106 1    
   100   51  107 1    
   101   51  108 1    
   102   51  109 1    
   103   52   53 2    
   104   52   54 am   BACKBONE|DICT|INTERRES
   105   54   55 1    
   106   54  110 1    
   107   55   56 1    
   108   55   59 1    
   109   55  111 1    
   110   56   57 am   BACKBONE|DICT|INTERRES
   111   56   58 2    
   112   57  112 1    
   113   57  113 1    
   114   59   60 1    
   115   59  114 1    
   116   59  115 1    
   117   60   61 1    
   118   61  116 1    
   119   61  117 1    
@<TRIPOS>SUBSTRUCTURE
     1 UNK         1 GROUP             0       ****    0 ROOT    
