@<TRIPOS>MOLECULE
3R8
117   119    1
SMALL
USER_CHARGES


@<TRIPOS>ATOM
      1 CA         15.4638  -22.5620  -42.6507 C.3       0 UNK        -0.2013 
      2 C          15.8237  -23.3663  -43.8909 C.2       0 UNK         0.4866 
      3 O          15.4855  -22.9572  -45.0015 O.2       0 UNK        -0.5176 
      4 N          16.4976  -24.5085  -43.7031 N.am      1 UNK        -0.4884 
      5 CA         16.9775  -25.4084  -44.7594 C.3       1 UNK         0.0853 
      6 C6         17.5707  -26.7198  -44.1907 C.3       10 UNK        -0.0849 
      7 S7         16.2907  -27.8661  -43.5717 S.3       10 UNK        -0.2776 
      8 C8         16.2332  -29.1569  -44.8648 C.3       10 UNK         0.0316 
      9 C9         17.5422  -29.9303  -44.9750 C.ar      10 UNK        -0.0863 
     10 C10        17.8176  -31.0005  -44.1187 C.ar      10 UNK        -0.1009 
     11 C11        19.0381  -31.6804  -44.2017 C.ar      10 UNK        -0.0712 
     12 C12        19.9936  -31.2679  -45.1384 C.ar      10 UNK        -0.0894 
     13 C13        19.7238  -30.2109  -46.0143 C.ar      10 UNK        -0.0745 
     14 C14        18.4810  -29.5741  -45.9452 C.ar      10 UNK        -0.0972 
     15 C15        20.7547  -29.7972  -47.0627 C.3       10 UNK         0.0209 
     16 S16        20.8331  -27.9891  -47.3329 S.3       10 UNK        -0.2568 
     17 C17        22.3614  -27.4979  -46.4644 C.3       10 UNK        -0.0983 
     18 CA         22.1567  -26.9321  -45.0358 C.3       3 UNK         0.0876 
     19 N          21.0967  -25.9128  -44.9655 N.am      3 UNK        -0.4424 
     20 C          20.8533  -25.0981  -43.9258 C.2       2 UNK         0.4918 
     21 O          21.4788  -25.1542  -42.8663 O.2       2 UNK        -0.4875 
     22 CA         19.7078  -24.0745  -44.0629 C.3       2 UNK         0.0481 
     23 CB         20.2297  -22.6491  -43.8185 C.3       2 UNK        -0.1831 
     24 N          19.0662  -24.1170  -45.3831 N.am      2 UNK        -0.4498 
     25 C          17.9358  -24.7315  -45.7745 C.2       1 UNK         0.5027 
     26 O          17.6282  -24.7608  -46.9648 O.2       1 UNK        -0.4969 
     27 C          22.0666  -28.0510  -43.9753 C.2       3 UNK         0.5005 
     28 O          23.0598  -28.7481  -43.7632 O.2       3 UNK        -0.5279 
     29 N          20.9356  -28.1549  -43.2627 N.am      4 UNK        -0.4463 
     30 CA         20.7598  -28.9824  -42.0662 C.3       4 UNK         0.0283 
     31 CB         19.3417  -28.7919  -41.5100 C.3       4 UNK        -0.1875 
     32 C          21.7919  -28.7019  -40.9603 C.2       4 UNK         0.4949 
     33 O          22.1849  -29.6303  -40.2563 O.2       4 UNK        -0.5039 
     34 N          22.2462  -27.4437  -40.8554 N.am      5 UNK        -0.4663 
     35 CA         23.3061  -27.0215  -39.9369 C.3       5 UNK         0.0242 
     36 CB         23.3428  -25.4859  -39.8857 C.3       5 UNK        -0.1982 
     37 C          24.6936  -27.5812  -40.3033 C.2       5 UNK         0.5017 
     38 O          25.5208  -27.7562  -39.4084 O.2       5 UNK        -0.5012 
     39 N          24.9234  -27.8515  -41.5962 N.am      6 UNK        -0.4439 
     40 CA         26.1487  -28.4641  -42.1110 C.3       6 UNK         0.0297 
     41 CB         26.4313  -27.9460  -43.5311 C.3       6 UNK        -0.2006 
     42 C          26.0494  -29.9967  -42.0982 C.2       6 UNK         0.4892 
     43 O          27.0230  -30.6599  -41.7398 O.2       6 UNK        -0.5089 
     44 N          24.8786  -30.5291  -42.4799 N.am      7 UNK        -0.4243 
     45 CA         24.5758  -31.9627  -42.4953 C.3       7 UNK         0.0196 
     46 CB         23.2655  -32.1929  -43.2660 C.3       7 UNK        -0.2007 
     47 C          24.4862  -32.5869  -41.0915 C.2       7 UNK         0.5020 
     48 O          24.7848  -33.7722  -40.9454 O.2       7 UNK        -0.5147 
     49 N          24.0663  -31.7867  -40.0993 N.am      8 UNK        -0.4734 
     50 CA         23.8328  -32.1453  -38.6937 C.3       8 UNK         0.0238 
     51 CB         25.1460  -32.5659  -37.9994 C.3       8 UNK        -0.1912 
     52 C          22.6950  -33.1706  -38.5133 C.2       8 UNK         0.5038 
     53 O          22.7280  -33.9694  -37.5747 O.2       8 UNK        -0.5046 
     54 N          21.7122  -33.1296  -39.4207 N.am      9 UNK        -0.4200 
     55 CA         20.5002  -33.9561  -39.4026 C.3       9 UNK         0.0839 
     56 C          19.4893  -33.5351  -38.2986 C.2       9 UNK         0.5513 
     57 N          18.5804  -34.4262  -37.9254 N.am      9 UNK        -0.7519 
     58 O          19.5043  -32.4151  -37.7909 O.2       9 UNK        -0.4960 
     59 C59        19.8510  -34.0360  -40.8106 C.3       10 UNK        -0.0876 
     60 S60        19.4878  -32.4109  -41.5591 S.3       10 UNK        -0.2414 
     61 C61        19.3081  -32.8819  -43.3055 C.3       10 UNK         0.0169 
     62 H62        15.9058  -21.5677  -42.7080 H         1 UNK         0.0903 
     63 H63        14.3825  -22.4505  -42.5765 H         1 UNK         0.0903 
     64 H64        15.8188  -23.0380  -41.7369 H         1 UNK         0.0903 
     65 H65        16.7072  -24.7999  -42.7591 H         1 UNK         0.3096 
     66 H66        16.0945  -25.6814  -45.3424 H         1 UNK         0.1121 
     67 H67        18.2440  -26.5094  -43.3608 H         1 UNK         0.0849 
     68 H68        18.1799  -27.2203  -44.9385 H         1 UNK         0.0849 
     69 H69        15.4210  -29.8482  -44.6354 H         1 UNK         0.0865 
     70 H70        15.9764  -28.6979  -45.8209 H         1 UNK         0.0865 
     71 H71        17.0866  -31.3009  -43.3803 H         1 UNK         0.1346 
     72 H72        20.9403  -31.7860  -45.2013 H         1 UNK         0.1412 
     73 H73        18.2500  -28.7764  -46.6374 H         1 UNK         0.1426 
     74 H74        21.7431  -30.1775  -46.8013 H         1 UNK         0.0716 
     75 H75        20.4854  -30.2723  -48.0067 H         1 UNK         0.0716 
     76 H76        22.8234  -26.7225  -47.0774 H         1 UNK         0.0695 
     77 H77        23.0798  -28.3200  -46.4714 H         1 UNK         0.0695 
     78 H78        23.0804  -26.4060  -44.7836 H         1 UNK         0.0983 
     79 H79        20.5355  -25.8163  -45.7996 H         1 UNK         0.3095 
     80 H80        18.9966  -24.2952  -43.2706 H         1 UNK         0.0454 
     81 H81        19.4218  -21.9188  -43.8685 H         1 UNK         0.0851 
     82 H82        20.9868  -22.3626  -44.5493 H         1 UNK         0.0851 
     83 H83        20.6816  -22.5590  -42.8295 H         1 UNK         0.0851 
     84 H84        19.5957  -23.6596  -46.1119 H         1 UNK         0.2976 
     85 H85        20.1662  -27.5577  -43.5164 H         1 UNK         0.3116 
     86 H86        20.8784  -30.0200  -42.3752 H         1 UNK         0.0646 
     87 H87        18.5910  -29.1049  -42.2322 H         1 UNK         0.0847 
     88 H88        19.1901  -29.3968  -40.6147 H         1 UNK         0.0847 
     89 H89        19.1433  -27.7542  -41.2402 H         1 UNK         0.0847 
     90 H90        21.8770  -26.7353  -41.4810 H         1 UNK         0.3040 
     91 H91        23.0579  -27.3938  -38.9402 H         1 UNK         0.1015 
     92 H92        23.5707  -25.0550  -40.8618 H         1 UNK         0.0786 
     93 H93        24.1043  -25.1356  -39.1874 H         1 UNK         0.0786 
     94 H94        22.3878  -25.0770  -39.5549 H         1 UNK         0.0786 
     95 H95        24.1617  -27.7435  -42.2541 H         1 UNK         0.3172 
     96 H96        26.9914  -28.1755  -41.4789 H         1 UNK         0.0595 
     97 H97        25.6397  -28.2136  -44.2316 H         1 UNK         0.0839 
     98 H98        27.3610  -28.3652  -43.9182 H         1 UNK         0.0839 
     99 H99        26.5367  -26.8611  -43.5432 H         1 UNK         0.0839 
    100 H100       24.1538  -29.9059  -42.8302 H         1 UNK         0.2998 
    101 H101       25.3819  -32.4692  -43.0303 H         1 UNK         0.0822 
    102 H102       23.0364  -33.2568  -43.3403 H         1 UNK         0.0787 
    103 H103       22.4204  -31.7120  -42.7741 H         1 UNK         0.0787 
    104 H104       23.3290  -31.8010  -44.2813 H         1 UNK         0.0787 
    105 H105       23.7595  -30.8508  -40.3487 H         1 UNK         0.3055 
    106 H106       23.4836  -31.2329  -38.2072 H         1 UNK         0.1106 
    107 H107       25.9263  -31.8184  -38.1420 H         1 UNK         0.0828 
    108 H108       25.0005  -32.6799  -36.9245 H         1 UNK         0.0828 
    109 H109       25.5190  -33.5179  -38.3779 H         1 UNK         0.0828 
    110 H110       21.7378  -32.4038  -40.1223 H         1 UNK         0.2931 
    111 H111       20.8211  -34.9686  -39.1481 H         1 UNK         0.0412 
    112 H112       18.5557  -35.3495  -38.3301 H         1 UNK         0.3472 
    113 H113       17.9095  -34.1732  -37.2164 H         1 UNK         0.3472 
    114 H114       20.5260  -34.5762  -41.4763 H         1 UNK         0.0970 
    115 H115       18.9326  -34.6253  -40.7852 H         1 UNK         0.0970 
    116 H116       20.2106  -33.4032  -43.6283 H         1 UNK         0.0612 
    117 H117       18.4869  -33.5934  -43.4017 H         1 UNK         0.0612 
@<TRIPOS>BOND
     1    1    2 1    
     2    1   62 1    
     3    1   63 1    
     4    1   64 1    
     5    2    3 2    
     6    2    4 am   BACKBONE|DICT|INTERRES
     7    4    5 1    
     8    4   65 1    
     9    5    6 1    
    10    5   25 1    
    11    5   66 1    
    12    6    7 1    
    13    6   67 1    
    14    6   68 1    
    15    7    8 1    
    16    8    9 1    
    17    8   69 1    
    18    8   70 1    
    19    9   10 ar   
    20    9   14 ar   
    21   10   11 ar   
    22   10   71 1    
    23   11   12 ar   
    24   11   61 1    
    25   12   13 ar   
    26   12   72 1    
    27   13   14 ar   
    28   13   15 1    
    29   14   73 1    
    30   15   16 1    
    31   15   74 1    
    32   15   75 1    
    33   16   17 1    
    34   17   18 1    
    35   17   76 1    
    36   17   77 1    
    37   18   19 1    
    38   18   27 1    
    39   18   78 1    
    40   19   20 am   BACKBONE|DICT|INTERRES
    41   19   79 1    
    42   20   21 2    
    43   20   22 1    
    44   22   23 1    
    45   22   24 1    
    46   22   80 1    
    47   23   81 1    
    48   23   82 1    
    49   23   83 1    
    50   24   25 am   BACKBONE|DICT|INTERRES
    51   24   84 1    
    52   25   26 2    
    53   27   28 2    
    54   27   29 am   BACKBONE|DICT|INTERRES
    55   29   30 1    
    56   29   85 1    
    57   30   31 1    
    58   30   32 1    
    59   30   86 1    
    60   31   87 1    
    61   31   88 1    
    62   31   89 1    
    63   32   33 2    
    64   32   34 am   BACKBONE|DICT|INTERRES
    65   34   35 1    
    66   34   90 1    
    67   35   36 1    
    68   35   37 1    
    69   35   91 1    
    70   36   92 1    
    71   36   93 1    
    72   36   94 1    
    73   37   38 2    
    74   37   39 am   BACKBONE|DICT|INTERRES
    75   39   40 1    
    76   39   95 1    
    77   40   41 1    
    78   40   42 1    
    79   40   96 1    
    80   41   97 1    
    81   41   98 1    
    82   41   99 1    
    83   42   43 2    
    84   42   44 am   BACKBONE|DICT|INTERRES
    85   44   45 1    
    86   44  100 1    
    87   45   46 1    
    88   45   47 1    
    89   45  101 1    
    90   46  102 1    
    91   46  103 1    
    92   46  104 1    
    93   47   48 2    
    94   47   49 am   BACKBONE|DICT|INTERRES
    95   49   50 1    
    96   49  105 1    
    97   50   51 1    
    98   50   52 1    
    99   50  106 1    
   100   51  107 1    
   101   51  108 1    
   102   51  109 1    
   103   52   53 2    
   104   52   54 am   BACKBONE|DICT|INTERRES
   105   54   55 1    
   106   54  110 1    
   107   55   56 1    
   108   55   59 1    
   109   55  111 1    
   110   56   57 am   BACKBONE|DICT|INTERRES
   111   56   58 2    
   112   57  112 1    
   113   57  113 1    
   114   59   60 1    
   115   59  114 1    
   116   59  115 1    
   117   60   61 1    
   118   61  116 1    
   119   61  117 1    
@<TRIPOS>SUBSTRUCTURE
     1 UNK         1 GROUP             0       ****    0 ROOT    
