@<TRIPOS>MOLECULE
3R8
117   119    1
SMALL
USER_CHARGES


@<TRIPOS>ATOM
      1 CA         19.5999  -30.2607  -47.8390 C.3       0 UNK        -0.2013 
      2 C          19.0045  -29.3412  -48.9023 C.2       0 UNK         0.4866 
      3 O          19.2477  -29.5546  -50.0884 O.2       0 UNK        -0.5176 
      4 N          18.2108  -28.3228  -48.5428 N.am      1 UNK        -0.4884 
      5 CA         17.9109  -27.8772  -47.1796 C.3       1 UNK         0.0853 
      6 C6         16.5764  -27.0896  -47.1433 C.3       10 UNK        -0.0849 
      7 S7         16.0861  -26.4676  -45.4941 S.3       10 UNK        -0.2776 
      8 C8         15.1129  -27.8472  -44.8126 C.3       10 UNK         0.0316 
      9 C9         15.9182  -28.6516  -43.8019 C.ar      10 UNK        -0.0863 
     10 C10        16.5367  -29.8483  -44.1736 C.ar      10 UNK        -0.1009 
     11 C11        17.2502  -30.5996  -43.2346 C.ar      10 UNK        -0.0712 
     12 C12        17.3316  -30.1532  -41.9105 C.ar      10 UNK        -0.0894 
     13 C13        16.7104  -28.9605  -41.5233 C.ar      10 UNK        -0.0745 
     14 C14        16.0128  -28.2121  -42.4775 C.ar      10 UNK        -0.0972 
     15 C15        16.7336  -28.5044  -40.0668 C.3       10 UNK         0.0209 
     16 S16        18.4074  -28.1937  -39.4128 S.3       10 UNK        -0.2568 
     17 C17        18.9616  -26.7676  -40.4066 C.3       10 UNK        -0.0983 
     18 CA         20.4527  -26.9228  -40.8232 C.3       3 UNK         0.0876 
     19 N          20.6922  -26.5317  -42.2109 N.am      3 UNK        -0.4424 
     20 C          20.4529  -27.3492  -43.2388 C.2       2 UNK         0.4918 
     21 O          20.0985  -28.5216  -43.1066 O.2       2 UNK        -0.4875 
     22 CA         20.5964  -26.7793  -44.6525 C.3       2 UNK         0.0481 
     23 CB         21.9883  -27.0673  -45.2405 C.3       2 UNK        -0.1831 
     24 N          19.5605  -27.4307  -45.4420 N.am      2 UNK        -0.4498 
     25 C          19.0964  -27.0560  -46.6350 C.2       1 UNK         0.5027 
     26 O          19.5455  -26.1137  -47.2921 O.2       1 UNK        -0.4969 
     27 C          21.4426  -26.2249  -39.8770 C.2       3 UNK         0.5005 
     28 O          22.3755  -25.5605  -40.3392 O.2       3 UNK        -0.5279 
     29 N          21.2400  -26.4242  -38.5659 N.am      4 UNK        -0.4463 
     30 CA         22.1012  -25.9911  -37.4609 C.3       4 UNK         0.0283 
     31 CB         22.0830  -24.4515  -37.3174 C.3       4 UNK        -0.1875 
     32 C          23.5058  -26.6056  -37.6040 C.2       4 UNK         0.4949 
     33 O          23.6263  -27.8307  -37.5780 O.2       4 UNK        -0.5039 
     34 N          24.5326  -25.7689  -37.7984 N.am      5 UNK        -0.4663 
     35 CA         25.9116  -26.1930  -38.0580 C.3       5 UNK         0.0242 
     36 CB         26.8400  -24.9737  -37.9346 C.3       5 UNK        -0.1982 
     37 C          26.1058  -26.8804  -39.4243 C.2       5 UNK         0.5017 
     38 O          27.0978  -27.5892  -39.5958 O.2       5 UNK        -0.5012 
     39 N          25.1732  -26.6655  -40.3631 N.am      6 UNK        -0.4439 
     40 CA         25.2018  -27.2054  -41.7230 C.3       6 UNK         0.0297 
     41 CB         24.9522  -26.0532  -42.7129 C.3       6 UNK        -0.2006 
     42 C          24.1936  -28.3525  -41.9223 C.2       6 UNK         0.4892 
     43 O          23.8683  -28.6644  -43.0682 O.2       6 UNK        -0.5089 
     44 N          23.7171  -28.9770  -40.8333 N.am      7 UNK        -0.4243 
     45 CA         22.7415  -30.0771  -40.8284 C.3       7 UNK         0.0196 
     46 CB         22.1362  -30.2040  -39.4167 C.3       7 UNK        -0.2007 
     47 C          23.3074  -31.4214  -41.3361 C.2       7 UNK         0.5020 
     48 O          23.1566  -32.4468  -40.6698 O.2       7 UNK        -0.5147 
     49 N          23.9317  -31.4117  -42.5200 N.am      8 UNK        -0.4734 
     50 CA         24.5042  -32.5843  -43.1922 C.3       8 UNK         0.0238 
     51 CB         25.3042  -32.1209  -44.4200 C.3       8 UNK        -0.1912 
     52 C          23.4518  -33.6332  -43.5948 C.2       8 UNK         0.5038 
     53 O          23.7695  -34.8220  -43.6430 O.2       8 UNK        -0.5046 
     54 N          22.2221  -33.1728  -43.8518 N.am      9 UNK        -0.4200 
     55 CA         21.0281  -33.9979  -44.0747 C.3       9 UNK         0.0839 
     56 C          20.3858  -34.5730  -42.7767 C.2       9 UNK         0.5513 
     57 N          20.8770  -34.2630  -41.5817 N.am      9 UNK        -0.7519 
     58 O          19.4245  -35.3332  -42.8578 O.2       9 UNK        -0.4960 
     59 C59        19.9971  -33.2676  -44.9772 C.3       10 UNK        -0.0876 
     60 S60        19.5446  -31.5964  -44.3935 S.3       10 UNK        -0.2414 
     61 C61        17.9134  -31.9024  -43.6536 C.3       10 UNK         0.0169 
     62 H62        18.8137  -30.7472  -47.2629 H         1 UNK         0.0903 
     63 H63        20.1965  -31.0453  -48.3041 H         1 UNK         0.0903 
     64 H64        20.2522  -29.7142  -47.1590 H         1 UNK         0.0903 
     65 H65        17.8578  -27.7202  -49.2729 H         1 UNK         0.3096 
     66 H66        17.7791  -28.7571  -46.5495 H         1 UNK         0.1121 
     67 H67        16.6385  -26.2256  -47.8081 H         1 UNK         0.0849 
     68 H68        15.7702  -27.7054  -47.5449 H         1 UNK         0.0849 
     69 H69        14.2267  -27.4388  -44.3242 H         1 UNK         0.0865 
     70 H70        14.7399  -28.4912  -45.6101 H         1 UNK         0.0865 
     71 H71        16.4575  -30.2041  -45.1915 H         1 UNK         0.1346 
     72 H72        17.8751  -30.7349  -41.1787 H         1 UNK         0.1412 
     73 H73        15.5238  -27.2921  -42.1869 H         1 UNK         0.1426 
     74 H74        16.2616  -29.2746  -39.4553 H         1 UNK         0.0716 
     75 H75        16.1348  -27.6023  -39.9318 H         1 UNK         0.0716 
     76 H76        18.3255  -26.7034  -41.2904 H         1 UNK         0.0695 
     77 H77        18.7788  -25.8429  -39.8557 H         1 UNK         0.0695 
     78 H78        20.7242  -27.9758  -40.7511 H         1 UNK         0.0983 
     79 H79        21.0584  -25.5998  -42.3511 H         1 UNK         0.3095 
     80 H80        20.4113  -25.7035  -44.6326 H         1 UNK         0.0454 
     81 H81        22.7656  -26.5908  -44.6447 H         1 UNK         0.0851 
     82 H82        22.0838  -26.6878  -46.2575 H         1 UNK         0.0851 
     83 H83        22.2019  -28.1369  -45.2590 H         1 UNK         0.0851 
     84 H84        19.1335  -28.2084  -44.9488 H         1 UNK         0.2976 
     85 H85        20.4549  -27.0056  -38.3010 H         1 UNK         0.3116 
     86 H86        21.6755  -26.4126  -36.5490 H         1 UNK         0.0646 
     87 H87        22.6741  -24.1286  -36.4593 H         1 UNK         0.0847 
     88 H88        22.4710  -23.9426  -38.2003 H         1 UNK         0.0847 
     89 H89        21.0678  -24.0897  -37.1547 H         1 UNK         0.0847 
     90 H90        24.3462  -24.7766  -37.8281 H         1 UNK         0.3040 
     91 H91        26.1929  -26.9182  -37.2908 H         1 UNK         0.1015 
     92 H92        27.8818  -25.2585  -38.0893 H         1 UNK         0.0786 
     93 H93        26.7743  -24.5225  -36.9443 H         1 UNK         0.0786 
     94 H94        26.5995  -24.2065  -38.6717 H         1 UNK         0.0786 
     95 H95        24.3598  -26.1023  -40.1302 H         1 UNK         0.3172 
     96 H96        26.1878  -27.6192  -41.9428 H         1 UNK         0.0595 
     97 H97        23.9499  -25.6378  -42.6033 H         1 UNK         0.0839 
     98 H98        25.0585  -26.3909  -43.7445 H         1 UNK         0.0839 
     99 H99        25.6675  -25.2437  -42.5673 H         1 UNK         0.0839 
    100 H100       24.0576  -28.6788  -39.9289 H         1 UNK         0.2998 
    101 H101       21.9341  -29.8143  -41.5144 H         1 UNK         0.0822 
    102 H102       21.3381  -30.9476  -39.3978 H         1 UNK         0.0787 
    103 H103       21.7051  -29.2665  -39.0706 H         1 UNK         0.0787 
    104 H104       22.8862  -30.5091  -38.6857 H         1 UNK         0.0787 
    105 H105       24.0016  -30.5141  -42.9962 H         1 UNK         0.3055 
    106 H106       25.1906  -33.0674  -42.4932 H         1 UNK         0.1106 
    107 H107       24.6712  -31.6054  -45.1435 H         1 UNK         0.0828 
    108 H108       26.1095  -31.4431  -44.1362 H         1 UNK         0.0828 
    109 H109       25.7615  -32.9692  -44.9316 H         1 UNK         0.0828 
    110 H110       22.0546  -32.1800  -43.7764 H         1 UNK         0.2931 
    111 H111       21.3501  -34.8777  -44.6351 H         1 UNK         0.0412 
    112 H112       21.6805  -33.6549  -41.4792 H         1 UNK         0.3472 
    113 H113       20.4448  -34.6563  -40.7609 H         1 UNK         0.3472 
    114 H114       19.1002  -33.8733  -45.1199 H         1 UNK         0.0970 
    115 H115       20.4219  -33.1526  -45.9755 H         1 UNK         0.0970 
    116 H116       18.0240  -32.5674  -42.7958 H         1 UNK         0.0612 
    117 H117       17.2782  -32.4229  -44.3719 H         1 UNK         0.0612 
@<TRIPOS>BOND
     1    1    2 1    
     2    1   62 1    
     3    1   63 1    
     4    1   64 1    
     5    2    3 2    
     6    2    4 am   BACKBONE|DICT|INTERRES
     7    4    5 1    
     8    4   65 1    
     9    5    6 1    
    10    5   25 1    
    11    5   66 1    
    12    6    7 1    
    13    6   67 1    
    14    6   68 1    
    15    7    8 1    
    16    8    9 1    
    17    8   69 1    
    18    8   70 1    
    19    9   10 ar   
    20    9   14 ar   
    21   10   11 ar   
    22   10   71 1    
    23   11   12 ar   
    24   11   61 1    
    25   12   13 ar   
    26   12   72 1    
    27   13   14 ar   
    28   13   15 1    
    29   14   73 1    
    30   15   16 1    
    31   15   74 1    
    32   15   75 1    
    33   16   17 1    
    34   17   18 1    
    35   17   76 1    
    36   17   77 1    
    37   18   19 1    
    38   18   27 1    
    39   18   78 1    
    40   19   20 am   BACKBONE|DICT|INTERRES
    41   19   79 1    
    42   20   21 2    
    43   20   22 1    
    44   22   23 1    
    45   22   24 1    
    46   22   80 1    
    47   23   81 1    
    48   23   82 1    
    49   23   83 1    
    50   24   25 am   BACKBONE|DICT|INTERRES
    51   24   84 1    
    52   25   26 2    
    53   27   28 2    
    54   27   29 am   BACKBONE|DICT|INTERRES
    55   29   30 1    
    56   29   85 1    
    57   30   31 1    
    58   30   32 1    
    59   30   86 1    
    60   31   87 1    
    61   31   88 1    
    62   31   89 1    
    63   32   33 2    
    64   32   34 am   BACKBONE|DICT|INTERRES
    65   34   35 1    
    66   34   90 1    
    67   35   36 1    
    68   35   37 1    
    69   35   91 1    
    70   36   92 1    
    71   36   93 1    
    72   36   94 1    
    73   37   38 2    
    74   37   39 am   BACKBONE|DICT|INTERRES
    75   39   40 1    
    76   39   95 1    
    77   40   41 1    
    78   40   42 1    
    79   40   96 1    
    80   41   97 1    
    81   41   98 1    
    82   41   99 1    
    83   42   43 2    
    84   42   44 am   BACKBONE|DICT|INTERRES
    85   44   45 1    
    86   44  100 1    
    87   45   46 1    
    88   45   47 1    
    89   45  101 1    
    90   46  102 1    
    91   46  103 1    
    92   46  104 1    
    93   47   48 2    
    94   47   49 am   BACKBONE|DICT|INTERRES
    95   49   50 1    
    96   49  105 1    
    97   50   51 1    
    98   50   52 1    
    99   50  106 1    
   100   51  107 1    
   101   51  108 1    
   102   51  109 1    
   103   52   53 2    
   104   52   54 am   BACKBONE|DICT|INTERRES
   105   54   55 1    
   106   54  110 1    
   107   55   56 1    
   108   55   59 1    
   109   55  111 1    
   110   56   57 am   BACKBONE|DICT|INTERRES
   111   56   58 2    
   112   57  112 1    
   113   57  113 1    
   114   59   60 1    
   115   59  114 1    
   116   59  115 1    
   117   60   61 1    
   118   61  116 1    
   119   61  117 1    
@<TRIPOS>SUBSTRUCTURE
     1 UNK         1 GROUP             0       ****    0 ROOT    
