@<TRIPOS>MOLECULE
3R8
117   119    1
SMALL
USER_CHARGES


@<TRIPOS>ATOM
      1 CA         16.0089  -24.4895  -50.1098 C.3       0 UNK        -0.2013 
      2 C          16.6310  -25.6567  -49.3582 C.2       0 UNK         0.4866 
      3 O          17.4169  -26.4078  -49.9360 O.2       0 UNK        -0.5176 
      4 N          16.2881  -25.8147  -48.0721 N.am      1 UNK        -0.4884 
      5 CA         16.7939  -26.8841  -47.1982 C.3       1 UNK         0.0853 
      6 C6         15.8465  -27.1150  -45.9896 C.3       10 UNK        -0.0849 
      7 S7         15.7920  -28.8645  -45.4813 S.3       10 UNK        -0.2776 
      8 C8         14.9532  -28.7451  -43.8712 C.3       10 UNK         0.0316 
      9 C9         15.9336  -28.5349  -42.7253 C.ar      10 UNK        -0.0863 
     10 C10        16.6497  -29.6241  -42.2184 C.ar      10 UNK        -0.1009 
     11 C11        17.4992  -29.4669  -41.1206 C.ar      10 UNK        -0.0712 
     12 C12        17.6306  -28.2083  -40.5285 C.ar      10 UNK        -0.0894 
     13 C13        16.9351  -27.1046  -41.0352 C.ar      10 UNK        -0.0745 
     14 C14        16.0888  -27.2745  -42.1372 C.ar      10 UNK        -0.0972 
     15 C15        17.0713  -25.7394  -40.3690 C.3       10 UNK         0.0209 
     16 S16        18.8068  -25.2031  -40.1977 S.3       10 UNK        -0.2568 
     17 C17        19.2445  -24.7684  -41.9146 C.3       10 UNK        -0.0983 
     18 CA         19.8092  -25.9686  -42.7221 C.3       3 UNK         0.0876 
     19 N          19.7029  -25.7773  -44.1689 N.am      3 UNK        -0.4424 
     20 C          20.3118  -24.8457  -44.9134 C.2       2 UNK         0.4918 
     21 O          21.0525  -23.9757  -44.4556 O.2       2 UNK        -0.4875 
     22 CA         20.0401  -24.8616  -46.4315 C.3       2 UNK         0.0481 
     23 CB         21.1822  -25.5725  -47.1837 C.3       2 UNK        -0.1831 
     24 N          18.7232  -25.3893  -46.8281 N.am      2 UNK        -0.4498 
     25 C          18.2472  -26.6417  -46.7311 C.2       1 UNK         0.5027 
     26 O          18.8934  -27.5737  -46.2515 O.2       1 UNK        -0.4969 
     27 C          21.2368  -26.4053  -42.3332 C.2       3 UNK         0.5005 
     28 O          21.9089  -25.7609  -41.5246 O.2       3 UNK        -0.5279 
     29 N          21.6779  -27.5181  -42.9348 N.am      4 UNK        -0.4463 
     30 CA         22.9709  -28.1747  -42.7227 C.3       4 UNK         0.0283 
     31 CB         23.2334  -29.0782  -43.9394 C.3       4 UNK        -0.1875 
     32 C          23.0186  -28.9482  -41.3868 C.2       4 UNK         0.4949 
     33 O          23.3567  -30.1364  -41.3698 O.2       4 UNK        -0.5039 
     34 N          22.6607  -28.2552  -40.2968 N.am      5 UNK        -0.4663 
     35 CA         22.3463  -28.7758  -38.9608 C.3       5 UNK         0.0242 
     36 CB         22.0192  -27.5952  -38.0329 C.3       5 UNK        -0.1982 
     37 C          23.4135  -29.6801  -38.3224 C.2       5 UNK         0.5017 
     38 O          23.0568  -30.5896  -37.5734 O.2       5 UNK        -0.5012 
     39 N          24.6867  -29.4238  -38.6393 N.am      6 UNK        -0.4439 
     40 CA         25.8389  -30.2174  -38.2099 C.3       6 UNK         0.0297 
     41 CB         26.5862  -29.4625  -37.0937 C.3       6 UNK        -0.2006 
     42 C          26.7502  -30.5638  -39.4011 C.2       6 UNK         0.4892 
     43 O          27.9470  -30.7768  -39.1989 O.2       6 UNK        -0.5089 
     44 N          26.1847  -30.6007  -40.6169 N.am      7 UNK        -0.4243 
     45 CA         26.9133  -30.8566  -41.8622 C.3       7 UNK         0.0196 
     46 CB         27.0614  -29.5452  -42.6526 C.3       7 UNK        -0.2007 
     47 C          26.2703  -31.9605  -42.7151 C.2       7 UNK         0.5020 
     48 O          27.0095  -32.7013  -43.3645 O.2       7 UNK        -0.5147 
     49 N          24.9344  -32.0785  -42.7045 N.am      8 UNK        -0.4734 
     50 CA         24.2074  -33.1172  -43.4477 C.3       8 UNK         0.0238 
     51 CB         23.8835  -32.6368  -44.8739 C.3       8 UNK        -0.1912 
     52 C          22.9455  -33.6226  -42.7317 C.2       8 UNK         0.5038 
     53 O          22.4965  -34.7233  -43.0555 O.2       8 UNK        -0.5046 
     54 N          22.3996  -32.8578  -41.7739 N.am      9 UNK        -0.4200 
     55 CA         21.2661  -33.2841  -40.9319 C.3       9 UNK         0.0839 
     56 C          21.5993  -34.4313  -39.9306 C.2       9 UNK         0.5513 
     57 N          22.8628  -34.7344  -39.6557 N.am      9 UNK        -0.7519 
     58 O          20.6893  -35.0593  -39.3957 O.2       9 UNK        -0.4960 
     59 C59        20.6261  -32.0916  -40.1789 C.3       10 UNK        -0.0876 
     60 S60        19.9005  -30.8330  -41.2862 S.3       10 UNK        -0.2414 
     61 C61        18.2478  -30.6596  -40.5480 C.3       10 UNK         0.0169 
     62 H62        15.4426  -24.8546  -50.9662 H         1 UNK         0.0903 
     63 H63        15.3342  -23.9103  -49.4799 H         1 UNK         0.0903 
     64 H64        16.7878  -23.8215  -50.4766 H         1 UNK         0.0903 
     65 H65        15.6318  -25.1708  -47.6517 H         1 UNK         0.3096 
     66 H66        16.8155  -27.7971  -47.7986 H         1 UNK         0.1121 
     67 H67        16.1118  -26.4843  -45.1383 H         1 UNK         0.0849 
     68 H68        14.8230  -26.8418  -46.2524 H         1 UNK         0.0849 
     69 H69        14.2054  -27.9508  -43.8970 H         1 UNK         0.0865 
     70 H70        14.3987  -29.6692  -43.7000 H         1 UNK         0.0865 
     71 H71        16.5334  -30.5998  -42.6709 H         1 UNK         0.1346 
     72 H72        18.2789  -28.0859  -39.6714 H         1 UNK         0.1412 
     73 H73        15.5323  -26.4310  -42.5228 H         1 UNK         0.1426 
     74 H74        16.6266  -25.7957  -39.3747 H         1 UNK         0.0716 
     75 H75        16.5105  -24.9770  -40.9118 H         1 UNK         0.0716 
     76 H76        18.3500  -24.3782  -42.4023 H         1 UNK         0.0695 
     77 H77        19.9553  -23.9404  -41.8970 H         1 UNK         0.0695 
     78 H78        19.1770  -26.8316  -42.5154 H         1 UNK         0.0983 
     79 H79        19.1830  -26.4867  -44.6757 H         1 UNK         0.3095 
     80 H80        20.0400  -23.8188  -46.7529 H         1 UNK         0.0454 
     81 H81        21.2808  -26.6175  -46.8887 H         1 UNK         0.0851 
     82 H82        21.0271  -25.5413  -48.2621 H         1 UNK         0.0851 
     83 H83        22.1393  -25.0905  -46.9804 H         1 UNK         0.0851 
     84 H84        18.0892  -24.7014  -47.2107 H         1 UNK         0.2976 
     85 H85        21.0483  -27.9897  -43.5685 H         1 UNK         0.3116 
     86 H86        23.7529  -27.4136  -42.6866 H         1 UNK         0.0646 
     87 H87        22.4525  -29.8319  -44.0403 H         1 UNK         0.0847 
     88 H88        24.1856  -29.6000  -43.8635 H         1 UNK         0.0847 
     89 H89        23.2609  -28.5006  -44.8636 H         1 UNK         0.0847 
     90 H90        22.4281  -27.2778  -40.4561 H         1 UNK         0.3040 
     91 H91        21.4393  -29.3723  -39.0623 H         1 UNK         0.1015 
     92 H92        21.1781  -27.0138  -38.4124 H         1 UNK         0.0786 
     93 H93        22.8699  -26.9215  -37.9229 H         1 UNK         0.0786 
     94 H94        21.7461  -27.9435  -37.0356 H         1 UNK         0.0786 
     95 H95        24.8755  -28.6493  -39.2611 H         1 UNK         0.3172 
     96 H96        25.5046  -31.1751  -37.8059 H         1 UNK         0.0595 
     97 H97        25.9264  -29.2439  -36.2539 H         1 UNK         0.0839 
     98 H98        26.9969  -28.5180  -37.4524 H         1 UNK         0.0839 
     99 H99        27.4156  -30.0538  -36.7035 H         1 UNK         0.0839 
    100 H100       25.1842  -30.4525  -40.6917 H         1 UNK         0.2998 
    101 H101       27.9203  -31.2145  -41.6364 H         1 UNK         0.0822 
    102 H102       27.7194  -28.8499  -42.1312 H         1 UNK         0.0787 
    103 H103       26.1057  -29.0445  -42.7974 H         1 UNK         0.0787 
    104 H104       27.4958  -29.7230  -43.6375 H         1 UNK         0.0787 
    105 H105       24.3773  -31.4077  -42.1833 H         1 UNK         0.3055 
    106 H106       24.8522  -33.9953  -43.5342 H         1 UNK         0.1106 
    107 H107       23.1672  -31.8179  -44.8743 H         1 UNK         0.0828 
    108 H108       24.7792  -32.3040  -45.3982 H         1 UNK         0.0828 
    109 H109       23.4467  -33.4438  -45.4636 H         1 UNK         0.0828 
    110 H110       22.7645  -31.9313  -41.5844 H         1 UNK         0.2931 
    111 H111       20.5041  -33.6876  -41.6021 H         1 UNK         0.0412 
    112 H112       23.6171  -34.2249  -40.0862 H         1 UNK         0.3472 
    113 H113       23.0616  -35.4809  -39.0081 H         1 UNK         0.3472 
    114 H114       21.3717  -31.6153  -39.5433 H         1 UNK         0.0970 
    115 H115       19.8472  -32.4490  -39.5024 H         1 UNK         0.0970 
    116 H116       17.6818  -31.5779  -40.7123 H         1 UNK         0.0612 
    117 H117       18.3439  -30.5437  -39.4671 H         1 UNK         0.0612 
@<TRIPOS>BOND
     1    1    2 1    
     2    1   62 1    
     3    1   63 1    
     4    1   64 1    
     5    2    3 2    
     6    2    4 am   BACKBONE|DICT|INTERRES
     7    4    5 1    
     8    4   65 1    
     9    5    6 1    
    10    5   25 1    
    11    5   66 1    
    12    6    7 1    
    13    6   67 1    
    14    6   68 1    
    15    7    8 1    
    16    8    9 1    
    17    8   69 1    
    18    8   70 1    
    19    9   10 ar   
    20    9   14 ar   
    21   10   11 ar   
    22   10   71 1    
    23   11   12 ar   
    24   11   61 1    
    25   12   13 ar   
    26   12   72 1    
    27   13   14 ar   
    28   13   15 1    
    29   14   73 1    
    30   15   16 1    
    31   15   74 1    
    32   15   75 1    
    33   16   17 1    
    34   17   18 1    
    35   17   76 1    
    36   17   77 1    
    37   18   19 1    
    38   18   27 1    
    39   18   78 1    
    40   19   20 am   BACKBONE|DICT|INTERRES
    41   19   79 1    
    42   20   21 2    
    43   20   22 1    
    44   22   23 1    
    45   22   24 1    
    46   22   80 1    
    47   23   81 1    
    48   23   82 1    
    49   23   83 1    
    50   24   25 am   BACKBONE|DICT|INTERRES
    51   24   84 1    
    52   25   26 2    
    53   27   28 2    
    54   27   29 am   BACKBONE|DICT|INTERRES
    55   29   30 1    
    56   29   85 1    
    57   30   31 1    
    58   30   32 1    
    59   30   86 1    
    60   31   87 1    
    61   31   88 1    
    62   31   89 1    
    63   32   33 2    
    64   32   34 am   BACKBONE|DICT|INTERRES
    65   34   35 1    
    66   34   90 1    
    67   35   36 1    
    68   35   37 1    
    69   35   91 1    
    70   36   92 1    
    71   36   93 1    
    72   36   94 1    
    73   37   38 2    
    74   37   39 am   BACKBONE|DICT|INTERRES
    75   39   40 1    
    76   39   95 1    
    77   40   41 1    
    78   40   42 1    
    79   40   96 1    
    80   41   97 1    
    81   41   98 1    
    82   41   99 1    
    83   42   43 2    
    84   42   44 am   BACKBONE|DICT|INTERRES
    85   44   45 1    
    86   44  100 1    
    87   45   46 1    
    88   45   47 1    
    89   45  101 1    
    90   46  102 1    
    91   46  103 1    
    92   46  104 1    
    93   47   48 2    
    94   47   49 am   BACKBONE|DICT|INTERRES
    95   49   50 1    
    96   49  105 1    
    97   50   51 1    
    98   50   52 1    
    99   50  106 1    
   100   51  107 1    
   101   51  108 1    
   102   51  109 1    
   103   52   53 2    
   104   52   54 am   BACKBONE|DICT|INTERRES
   105   54   55 1    
   106   54  110 1    
   107   55   56 1    
   108   55   59 1    
   109   55  111 1    
   110   56   57 am   BACKBONE|DICT|INTERRES
   111   56   58 2    
   112   57  112 1    
   113   57  113 1    
   114   59   60 1    
   115   59  114 1    
   116   59  115 1    
   117   60   61 1    
   118   61  116 1    
   119   61  117 1    
@<TRIPOS>SUBSTRUCTURE
     1 UNK         1 GROUP             0       ****    0 ROOT    
