@<TRIPOS>MOLECULE
3R8
117   119    1
SMALL
USER_CHARGES


@<TRIPOS>ATOM
      1 CA         21.1555  -23.1501  -47.9609 C.3       0 UNK        -0.2013 
      2 C          20.8186  -24.2660  -46.9839 C.2       0 UNK         0.4866 
      3 O          21.6232  -24.5750  -46.1050 O.2       0 UNK        -0.5176 
      4 N          19.6318  -24.8700  -47.1217 N.am      1 UNK        -0.4884 
      5 CA         19.1231  -25.9708  -46.2924 C.3       1 UNK         0.0853 
      6 C6         18.0575  -26.8000  -47.0552 C.3       10 UNK        -0.0849 
      7 S7         18.8587  -27.9031  -48.2684 S.3       10 UNK        -0.2776 
      8 C8         18.1880  -29.5424  -47.8260 C.3       10 UNK         0.0316 
      9 C9         18.4172  -29.9253  -46.3667 C.ar      10 UNK        -0.0863 
     10 C10        19.7030  -30.2114  -45.8969 C.ar      10 UNK        -0.1009 
     11 C11        19.8999  -30.6120  -44.5713 C.ar      10 UNK        -0.0712 
     12 C12        18.8009  -30.7167  -43.7141 C.ar      10 UNK        -0.0894 
     13 C13        17.5077  -30.4320  -44.1663 C.ar      10 UNK        -0.0745 
     14 C14        17.3279  -30.0370  -45.4953 C.ar      10 UNK        -0.0972 
     15 C15        16.2811  -30.6137  -43.2714 C.3       10 UNK         0.0209 
     16 S16        16.5639  -30.2943  -41.4953 S.3       10 UNK        -0.2568 
     17 C17        16.7194  -28.4767  -41.4498 C.3       10 UNK        -0.0983 
     18 CA         18.1728  -27.9967  -41.1916 C.3       3 UNK         0.0876 
     19 N          18.3468  -26.6215  -41.6758 N.am      3 UNK        -0.4424 
     20 C          19.5042  -26.0154  -41.9635 C.2       2 UNK         0.4918 
     21 O          20.6144  -26.5047  -41.7428 O.2       2 UNK        -0.4875 
     22 CA         19.4079  -24.6690  -42.6959 C.3       2 UNK         0.0481 
     23 CB         20.5005  -23.6896  -42.2351 C.3       2 UNK        -0.1831 
     24 N          19.5599  -24.9185  -44.1266 N.am      2 UNK        -0.4498 
     25 C          18.6311  -25.4710  -44.9166 C.2       1 UNK         0.5027 
     26 O          17.4516  -25.6053  -44.5834 O.2       1 UNK        -0.4969 
     27 C          18.6550  -28.2007  -39.7315 C.2       3 UNK         0.5005 
     28 O          17.8689  -28.5692  -38.8569 O.2       3 UNK        -0.5279 
     29 N          19.9498  -27.9519  -39.5110 N.am      4 UNK        -0.4463 
     30 CA         20.7316  -28.1294  -38.2877 C.3       4 UNK         0.0283 
     31 CB         20.1233  -27.3829  -37.0807 C.3       4 UNK        -0.1875 
     32 C          22.1618  -27.6323  -38.5351 C.2       4 UNK         0.4949 
     33 O          23.1166  -28.3268  -38.1892 O.2       4 UNK        -0.5039 
     34 N          22.2801  -26.4317  -39.1204 N.am      5 UNK        -0.4663 
     35 CA         23.5529  -25.7434  -39.3457 C.3       5 UNK         0.0242 
     36 CB         23.3133  -24.2252  -39.3084 C.3       5 UNK        -0.1982 
     37 C          24.2484  -26.1386  -40.6582 C.2       5 UNK         0.5017 
     38 O          25.4744  -26.0425  -40.7239 O.2       5 UNK        -0.5012 
     39 N          23.4761  -26.5429  -41.6792 N.am      6 UNK        -0.4439 
     40 CA         23.9765  -26.8885  -43.0147 C.3       6 UNK         0.0297 
     41 CB         22.7946  -27.0957  -43.9761 C.3       6 UNK        -0.2006 
     42 C          24.8967  -28.1191  -43.0188 C.2       6 UNK         0.4892 
     43 O          25.9715  -28.0712  -43.6182 O.2       6 UNK        -0.5089 
     44 N          24.4567  -29.1813  -42.3372 N.am      7 UNK        -0.4243 
     45 CA         25.1339  -30.4623  -42.1627 C.3       7 UNK         0.0196 
     46 CB         25.3268  -31.1815  -43.5155 C.3       7 UNK        -0.2007 
     47 C          24.2790  -31.3171  -41.2216 C.2       7 UNK         0.5020 
     48 O          23.1023  -31.0109  -41.0078 O.2       7 UNK        -0.5147 
     49 N          24.8620  -32.4070  -40.7110 N.am      8 UNK        -0.4734 
     50 CA         24.1799  -33.4153  -39.8938 C.3       8 UNK         0.0238 
     51 CB         25.2196  -34.1226  -39.0034 C.3       8 UNK        -0.1912 
     52 C          23.3777  -34.3992  -40.7709 C.2       8 UNK         0.5038 
     53 O          23.6402  -35.6036  -40.7455 O.2       8 UNK        -0.5046 
     54 N          22.4402  -33.8591  -41.5586 N.am      9 UNK        -0.4200 
     55 CA         21.5383  -34.6018  -42.4502 C.3       9 UNK         0.0839 
     56 C          20.5818  -35.5493  -41.6754 C.2       9 UNK         0.5513 
     57 N          20.2682  -36.7083  -42.2376 N.am      9 UNK        -0.7519 
     58 O          20.0888  -35.2234  -40.5971 O.2       9 UNK        -0.4960 
     59 C59        20.7268  -33.6463  -43.3618 C.3       10 UNK        -0.0876 
     60 S60        21.7825  -32.6514  -44.4727 S.3       10 UNK        -0.2414 
     61 C61        21.2966  -30.9430  -44.0648 C.3       10 UNK         0.0169 
     62 H62        21.3238  -22.2183  -47.4216 H         1 UNK         0.0903 
     63 H63        22.0644  -23.3952  -48.5096 H         1 UNK         0.0903 
     64 H64        20.3569  -22.9849  -48.6838 H         1 UNK         0.0903 
     65 H65        19.0083  -24.5602  -47.8538 H         1 UNK         0.3096 
     66 H66        19.9566  -26.6411  -46.0653 H         1 UNK         0.1121 
     67 H67        17.3467  -26.1504  -47.5686 H         1 UNK         0.0849 
     68 H68        17.4592  -27.4044  -46.3734 H         1 UNK         0.0849 
     69 H69        17.1237  -29.5598  -48.0665 H         1 UNK         0.0865 
     70 H70        18.6513  -30.2943  -48.4664 H         1 UNK         0.0865 
     71 H71        20.5484  -30.1371  -46.5676 H         1 UNK         0.1346 
     72 H72        18.9539  -31.0371  -42.6939 H         1 UNK         0.1412 
     73 H73        16.3296  -29.8343  -45.8594 H         1 UNK         0.1426 
     74 H74        15.9369  -31.6429  -43.3796 H         1 UNK         0.0716 
     75 H75        15.4608  -29.9807  -43.6138 H         1 UNK         0.0716 
     76 H76        16.0327  -28.0784  -40.7006 H         1 UNK         0.0695 
     77 H77        16.3642  -28.0875  -42.4057 H         1 UNK         0.0695 
     78 H78        18.8281  -28.6137  -41.8096 H         1 UNK         0.0983 
     79 H79        17.4938  -26.1358  -41.9145 H         1 UNK         0.3095 
     80 H80        18.4331  -24.2162  -42.5030 H         1 UNK         0.0454 
     81 H81        21.5033  -24.0747  -42.4254 H         1 UNK         0.0851 
     82 H82        20.4199  -23.4939  -41.1654 H         1 UNK         0.0851 
     83 H83        20.4114  -22.7311  -42.7462 H         1 UNK         0.0851 
     84 H84        20.4916  -24.8113  -44.5180 H         1 UNK         0.2976 
     85 H85        20.4770  -27.6158  -40.3147 H         1 UNK         0.3116 
     86 H86        20.7754  -29.1970  -38.0639 H         1 UNK         0.0646 
     87 H87        19.9285  -26.3343  -37.3075 H         1 UNK         0.0847 
     88 H88        20.7975  -27.4113  -36.2234 H         1 UNK         0.0847 
     89 H89        19.1868  -27.8344  -36.7552 H         1 UNK         0.0847 
     90 H90        21.4414  -25.9272  -39.3694 H         1 UNK         0.3040 
     91 H91        24.2370  -25.9930  -38.5309 H         1 UNK         0.1015 
     92 H92        22.6433  -23.9006  -40.1043 H         1 UNK         0.0786 
     93 H93        24.2503  -23.6797  -39.4305 H         1 UNK         0.0786 
     94 H94        22.8819  -23.9143  -38.3567 H         1 UNK         0.0786 
     95 H95        22.4673  -26.5630  -41.5552 H         1 UNK         0.3172 
     96 H96        24.5585  -26.0388  -43.3780 H         1 UNK         0.0595 
     97 H97        23.1417  -27.3466  -44.9793 H         1 UNK         0.0839 
     98 H98        22.1984  -26.1888  -44.0602 H         1 UNK         0.0839 
     99 H99        22.1339  -27.8978  -43.6459 H         1 UNK         0.0839 
    100 H100       23.5683  -29.1289  -41.8527 H         1 UNK         0.2998 
    101 H101       26.1024  -30.2852  -41.6911 H         1 UNK         0.0822 
    102 H102       25.7278  -32.1868  -43.3815 H         1 UNK         0.0787 
    103 H103       24.3858  -31.2765  -44.0563 H         1 UNK         0.0787 
    104 H104       26.0261  -30.6495  -44.1598 H         1 UNK         0.0787 
    105 H105       25.8192  -32.6089  -40.9642 H         1 UNK         0.3055 
    106 H106       23.4639  -32.9181  -39.2347 H         1 UNK         0.1106 
    107 H107       24.7423  -34.8589  -38.3552 H         1 UNK         0.0828 
    108 H108       25.9709  -34.6472  -39.5949 H         1 UNK         0.0828 
    109 H109       25.7363  -33.4132  -38.3568 H         1 UNK         0.0828 
    110 H110       22.3158  -32.8543  -41.5215 H         1 UNK         0.2931 
    111 H111       22.1705  -35.2201  -43.0911 H         1 UNK         0.0412 
    112 H112       20.6602  -36.9797  -43.1264 H         1 UNK         0.3472 
    113 H113       19.6359  -37.3310  -41.7588 H         1 UNK         0.3472 
    114 H114       20.1046  -32.9957  -42.7484 H         1 UNK         0.0970 
    115 H115       20.0384  -34.2113  -43.9933 H         1 UNK         0.0970 
    116 H116       22.0189  -30.2592  -44.5127 H         1 UNK         0.0612 
    117 H117       21.3598  -30.7891  -42.9873 H         1 UNK         0.0612 
@<TRIPOS>BOND
     1    1    2 1    
     2    1   62 1    
     3    1   63 1    
     4    1   64 1    
     5    2    3 2    
     6    2    4 am   BACKBONE|DICT|INTERRES
     7    4    5 1    
     8    4   65 1    
     9    5    6 1    
    10    5   25 1    
    11    5   66 1    
    12    6    7 1    
    13    6   67 1    
    14    6   68 1    
    15    7    8 1    
    16    8    9 1    
    17    8   69 1    
    18    8   70 1    
    19    9   10 ar   
    20    9   14 ar   
    21   10   11 ar   
    22   10   71 1    
    23   11   12 ar   
    24   11   61 1    
    25   12   13 ar   
    26   12   72 1    
    27   13   14 ar   
    28   13   15 1    
    29   14   73 1    
    30   15   16 1    
    31   15   74 1    
    32   15   75 1    
    33   16   17 1    
    34   17   18 1    
    35   17   76 1    
    36   17   77 1    
    37   18   19 1    
    38   18   27 1    
    39   18   78 1    
    40   19   20 am   BACKBONE|DICT|INTERRES
    41   19   79 1    
    42   20   21 2    
    43   20   22 1    
    44   22   23 1    
    45   22   24 1    
    46   22   80 1    
    47   23   81 1    
    48   23   82 1    
    49   23   83 1    
    50   24   25 am   BACKBONE|DICT|INTERRES
    51   24   84 1    
    52   25   26 2    
    53   27   28 2    
    54   27   29 am   BACKBONE|DICT|INTERRES
    55   29   30 1    
    56   29   85 1    
    57   30   31 1    
    58   30   32 1    
    59   30   86 1    
    60   31   87 1    
    61   31   88 1    
    62   31   89 1    
    63   32   33 2    
    64   32   34 am   BACKBONE|DICT|INTERRES
    65   34   35 1    
    66   34   90 1    
    67   35   36 1    
    68   35   37 1    
    69   35   91 1    
    70   36   92 1    
    71   36   93 1    
    72   36   94 1    
    73   37   38 2    
    74   37   39 am   BACKBONE|DICT|INTERRES
    75   39   40 1    
    76   39   95 1    
    77   40   41 1    
    78   40   42 1    
    79   40   96 1    
    80   41   97 1    
    81   41   98 1    
    82   41   99 1    
    83   42   43 2    
    84   42   44 am   BACKBONE|DICT|INTERRES
    85   44   45 1    
    86   44  100 1    
    87   45   46 1    
    88   45   47 1    
    89   45  101 1    
    90   46  102 1    
    91   46  103 1    
    92   46  104 1    
    93   47   48 2    
    94   47   49 am   BACKBONE|DICT|INTERRES
    95   49   50 1    
    96   49  105 1    
    97   50   51 1    
    98   50   52 1    
    99   50  106 1    
   100   51  107 1    
   101   51  108 1    
   102   51  109 1    
   103   52   53 2    
   104   52   54 am   BACKBONE|DICT|INTERRES
   105   54   55 1    
   106   54  110 1    
   107   55   56 1    
   108   55   59 1    
   109   55  111 1    
   110   56   57 am   BACKBONE|DICT|INTERRES
   111   56   58 2    
   112   57  112 1    
   113   57  113 1    
   114   59   60 1    
   115   59  114 1    
   116   59  115 1    
   117   60   61 1    
   118   61  116 1    
   119   61  117 1    
@<TRIPOS>SUBSTRUCTURE
     1 UNK         1 GROUP             0       ****    0 ROOT    
