@<TRIPOS>MOLECULE
3R8
117   119    1
SMALL
USER_CHARGES


@<TRIPOS>ATOM
      1 CA         18.0107  -28.5586  -41.9685 C.3       0 UNK        -0.2013 
      2 C          17.9169  -27.2383  -42.7121 C.2       0 UNK         0.4866 
      3 O          18.6985  -26.3314  -42.4266 O.2       0 UNK        -0.5176 
      4 N          16.9817  -27.1447  -43.6667 N.am      1 UNK        -0.4884 
      5 CA         16.4761  -25.9412  -44.3512 C.3       1 UNK         0.0853 
      6 C6         15.5572  -26.3139  -45.5401 C.3       10 UNK        -0.0849 
      7 S7         14.2369  -27.4813  -45.0566 S.3       10 UNK        -0.2776 
      8 C8         14.6085  -28.9352  -46.0907 C.3       10 UNK         0.0316 
      9 C9         15.8469  -29.7016  -45.6366 C.ar      10 UNK        -0.0863 
     10 C10        15.7788  -30.5611  -44.5338 C.ar      10 UNK        -0.1009 
     11 C11        16.8747  -31.3568  -44.1766 C.ar      10 UNK        -0.0712 
     12 C12        18.0486  -31.2739  -44.9314 C.ar      10 UNK        -0.0894 
     13 C13        18.1394  -30.4051  -46.0219 C.ar      10 UNK        -0.0745 
     14 C14        17.0365  -29.6186  -46.3685 C.ar      10 UNK        -0.0972 
     15 C15        19.4117  -30.3658  -46.8591 C.3       10 UNK         0.0209 
     16 S16        20.3984  -28.8655  -46.5684 S.3       10 UNK        -0.2568 
     17 C17        20.9006  -29.0798  -44.8266 C.3       10 UNK        -0.0983 
     18 CA         21.6251  -27.8458  -44.2237 C.3       3 UNK         0.0876 
     19 N          20.8370  -26.6217  -44.3951 N.am      3 UNK        -0.4424 
     20 C          21.0697  -25.6746  -45.3136 C.2       2 UNK         0.4918 
     21 O          22.1168  -25.5785  -45.9551 O.2       2 UNK        -0.4875 
     22 CA         19.8948  -24.7240  -45.6070 C.3       2 UNK         0.0481 
     23 CB         19.9238  -24.1583  -47.0391 C.3       2 UNK        -0.1831 
     24 N          18.6360  -25.4376  -45.3818 N.am      2 UNK        -0.4498 
     25 C          17.5504  -24.9263  -44.7940 C.2       1 UNK         0.5027 
     26 O          17.3945  -23.7276  -44.5559 O.2       1 UNK        -0.4969 
     27 C          21.9711  -28.0990  -42.7427 C.2       3 UNK         0.5005 
     28 O          22.7511  -29.0102  -42.4589 O.2       3 UNK        -0.5279 
     29 N          21.3981  -27.3201  -41.8091 N.am      4 UNK        -0.4463 
     30 CA         21.6292  -27.4321  -40.3642 C.3       4 UNK         0.0283 
     31 CB         20.7098  -26.4576  -39.6129 C.3       4 UNK        -0.1875 
     32 C          23.0954  -27.2099  -39.9598 C.2       4 UNK         0.4949 
     33 O          23.5845  -27.8851  -39.0531 O.2       4 UNK        -0.5039 
     34 N          23.7749  -26.3099  -40.6845 N.am      5 UNK        -0.4663 
     35 CA         25.1992  -25.9970  -40.5437 C.3       5 UNK         0.0242 
     36 CB         25.5240  -24.7587  -41.3947 C.3       5 UNK        -0.1982 
     37 C          26.1373  -27.1617  -40.9113 C.2       5 UNK         0.5017 
     38 O          27.2854  -27.1609  -40.4681 O.2       5 UNK        -0.5012 
     39 N          25.6388  -28.1472  -41.6724 N.am      6 UNK        -0.4439 
     40 CA         26.3414  -29.3846  -42.0193 C.3       6 UNK         0.0297 
     41 CB         25.9942  -29.7748  -43.4683 C.3       6 UNK        -0.2006 
     42 C          26.0402  -30.5052  -41.0018 C.2       6 UNK         0.4892 
     43 O          25.9122  -31.6661  -41.3916 O.2       6 UNK        -0.5089 
     44 N          25.9515  -30.1285  -39.7167 N.am      7 UNK        -0.4243 
     45 CA         25.7019  -30.9661  -38.5405 C.3       7 UNK         0.0196 
     46 CB         26.8608  -31.9630  -38.3180 C.3       7 UNK        -0.2007 
     47 C          24.3160  -31.6369  -38.5681 C.2       7 UNK         0.5020 
     48 O          24.2297  -32.8612  -38.4641 O.2       7 UNK        -0.5147 
     49 N          23.2671  -30.8039  -38.6681 N.am      8 UNK        -0.4734 
     50 CA         21.8379  -31.1501  -38.6341 C.3       8 UNK         0.0238 
     51 CB         21.4498  -31.7827  -37.2799 C.3       8 UNK        -0.1912 
     52 C          21.4124  -32.0235  -39.8291 C.2       8 UNK         0.5038 
     53 O          21.4331  -33.2518  -39.7287 O.2       8 UNK        -0.5046 
     54 N          21.0248  -31.3650  -40.9307 N.am      9 UNK        -0.4200 
     55 CA         20.6427  -31.9835  -42.2133 C.3       9 UNK         0.0839 
     56 C          21.8609  -32.6260  -42.9350 C.2       9 UNK         0.5513 
     57 N          22.9789  -31.9177  -43.0162 N.am      9 UNK        -0.7519 
     58 O          21.7997  -33.7493  -43.4285 O.2       9 UNK        -0.4960 
     59 C59        19.3994  -32.9198  -42.1210 C.3       10 UNK        -0.0876 
     60 S60        17.8818  -32.0270  -41.6346 S.3       10 UNK        -0.2414 
     61 C61        16.7539  -32.3603  -43.0315 C.3       10 UNK         0.0169 
     62 H62        18.9287  -29.0840  -42.2214 H         1 UNK         0.0903 
     63 H63        18.0071  -28.3839  -40.8932 H         1 UNK         0.0903 
     64 H64        17.1673  -29.2071  -42.2011 H         1 UNK         0.0903 
     65 H65        16.4323  -27.9697  -43.8713 H         1 UNK         0.3096 
     66 H66        15.8621  -25.4226  -43.6118 H         1 UNK         0.1121 
     67 H67        16.1399  -26.7395  -46.3589 H         1 UNK         0.0849 
     68 H68        15.0789  -25.4196  -45.9447 H         1 UNK         0.0849 
     69 H69        13.7488  -29.6065  -46.0629 H         1 UNK         0.0865 
     70 H70        14.7049  -28.6240  -47.1322 H         1 UNK         0.0865 
     71 H71        14.8540  -30.6383  -43.9779 H         1 UNK         0.1346 
     72 H72        18.8912  -31.9027  -44.6893 H         1 UNK         0.1412 
     73 H73        17.0979  -28.9685  -47.2308 H         1 UNK         0.1426 
     74 H74        20.0319  -31.2426  -46.6660 H         1 UNK         0.0716 
     75 H75        19.1464  -30.4102  -47.9163 H         1 UNK         0.0716 
     76 H76        21.5378  -29.9642  -44.7691 H         1 UNK         0.0695 
     77 H77        20.0030  -29.3016  -44.2513 H         1 UNK         0.0695 
     78 H78        22.5844  -27.7364  -44.7342 H         1 UNK         0.0983 
     79 H79        19.9743  -26.5592  -43.8632 H         1 UNK         0.3095 
     80 H80        19.9827  -23.8960  -44.9007 H         1 UNK         0.0454 
     81 H81        19.0822  -23.4893  -47.2180 H         1 UNK         0.0851 
     82 H82        19.8851  -24.9536  -47.7844 H         1 UNK         0.0851 
     83 H83        20.8345  -23.5853  -47.2172 H         1 UNK         0.0851 
     84 H84        18.6610  -26.4341  -45.5551 H         1 UNK         0.2976 
     85 H85        20.7179  -26.6254  -42.0959 H         1 UNK         0.3116 
     86 H86        21.3565  -28.4443  -40.0717 H         1 UNK         0.0646 
     87 H87        19.6588  -26.6734  -39.8044 H         1 UNK         0.0847 
     88 H88        20.8608  -26.5294  -38.5348 H         1 UNK         0.0847 
     89 H89        20.8956  -25.4220  -39.9001 H         1 UNK         0.0847 
     90 H90        23.2742  -25.8156  -41.4089 H         1 UNK         0.3040 
     91 H91        25.3850  -25.7543  -39.4949 H         1 UNK         0.1015 
     92 H92        25.3391  -24.9369  -42.4549 H         1 UNK         0.0786 
     93 H93        26.5728  -24.4766  -41.2901 H         1 UNK         0.0786 
     94 H94        24.9285  -23.8983  -41.0885 H         1 UNK         0.0786 
     95 H95        24.6598  -28.1115  -41.9319 H         1 UNK         0.3172 
     96 H96        27.4193  -29.2146  -41.9825 H         1 UNK         0.0595 
     97 H97        24.9324  -29.9837  -43.5906 H         1 UNK         0.0839 
     98 H98        26.5403  -30.6670  -43.7772 H         1 UNK         0.0839 
     99 H99        26.2590  -28.9798  -44.1653 H         1 UNK         0.0839 
    100 H100       26.0546  -29.1412  -39.5259 H         1 UNK         0.2998 
    101 H101       25.6918  -30.2897  -37.6842 H         1 UNK         0.0822 
    102 H102       26.7284  -32.5108  -37.3842 H         1 UNK         0.0787 
    103 H103       26.9243  -32.7002  -39.1190 H         1 UNK         0.0787 
    104 H104       27.8202  -31.4492  -38.2582 H         1 UNK         0.0787 
    105 H105       23.4687  -29.8118  -38.7724 H         1 UNK         0.3055 
    106 H106       21.2854  -30.2133  -38.6972 H         1 UNK         0.1106 
    107 H107       21.7002  -31.1241  -36.4484 H         1 UNK         0.0828 
    108 H108       20.3761  -31.9690  -37.2342 H         1 UNK         0.0828 
    109 H109       21.9476  -32.7380  -37.1113 H         1 UNK         0.0828 
    110 H110       21.0970  -30.3597  -40.9451 H         1 UNK         0.2931 
    111 H111       20.3537  -31.1547  -42.8570 H         1 UNK         0.0412 
    112 H112       23.7916  -32.3226  -43.4517 H         1 UNK         0.3472 
    113 H113       23.0196  -30.9741  -42.6469 H         1 UNK         0.3472 
    114 H114       19.5690  -33.7272  -41.4085 H         1 UNK         0.0970 
    115 H115       19.2259  -33.4222  -43.0728 H         1 UNK         0.0970 
    116 H116       15.7361  -32.3538  -42.6387 H         1 UNK         0.0612 
    117 H117       16.9161  -33.3698  -43.4113 H         1 UNK         0.0612 
@<TRIPOS>BOND
     1    1    2 1    
     2    1   62 1    
     3    1   63 1    
     4    1   64 1    
     5    2    3 2    
     6    2    4 am   BACKBONE|DICT|INTERRES
     7    4    5 1    
     8    4   65 1    
     9    5    6 1    
    10    5   25 1    
    11    5   66 1    
    12    6    7 1    
    13    6   67 1    
    14    6   68 1    
    15    7    8 1    
    16    8    9 1    
    17    8   69 1    
    18    8   70 1    
    19    9   10 ar   
    20    9   14 ar   
    21   10   11 ar   
    22   10   71 1    
    23   11   12 ar   
    24   11   61 1    
    25   12   13 ar   
    26   12   72 1    
    27   13   14 ar   
    28   13   15 1    
    29   14   73 1    
    30   15   16 1    
    31   15   74 1    
    32   15   75 1    
    33   16   17 1    
    34   17   18 1    
    35   17   76 1    
    36   17   77 1    
    37   18   19 1    
    38   18   27 1    
    39   18   78 1    
    40   19   20 am   BACKBONE|DICT|INTERRES
    41   19   79 1    
    42   20   21 2    
    43   20   22 1    
    44   22   23 1    
    45   22   24 1    
    46   22   80 1    
    47   23   81 1    
    48   23   82 1    
    49   23   83 1    
    50   24   25 am   BACKBONE|DICT|INTERRES
    51   24   84 1    
    52   25   26 2    
    53   27   28 2    
    54   27   29 am   BACKBONE|DICT|INTERRES
    55   29   30 1    
    56   29   85 1    
    57   30   31 1    
    58   30   32 1    
    59   30   86 1    
    60   31   87 1    
    61   31   88 1    
    62   31   89 1    
    63   32   33 2    
    64   32   34 am   BACKBONE|DICT|INTERRES
    65   34   35 1    
    66   34   90 1    
    67   35   36 1    
    68   35   37 1    
    69   35   91 1    
    70   36   92 1    
    71   36   93 1    
    72   36   94 1    
    73   37   38 2    
    74   37   39 am   BACKBONE|DICT|INTERRES
    75   39   40 1    
    76   39   95 1    
    77   40   41 1    
    78   40   42 1    
    79   40   96 1    
    80   41   97 1    
    81   41   98 1    
    82   41   99 1    
    83   42   43 2    
    84   42   44 am   BACKBONE|DICT|INTERRES
    85   44   45 1    
    86   44  100 1    
    87   45   46 1    
    88   45   47 1    
    89   45  101 1    
    90   46  102 1    
    91   46  103 1    
    92   46  104 1    
    93   47   48 2    
    94   47   49 am   BACKBONE|DICT|INTERRES
    95   49   50 1    
    96   49  105 1    
    97   50   51 1    
    98   50   52 1    
    99   50  106 1    
   100   51  107 1    
   101   51  108 1    
   102   51  109 1    
   103   52   53 2    
   104   52   54 am   BACKBONE|DICT|INTERRES
   105   54   55 1    
   106   54  110 1    
   107   55   56 1    
   108   55   59 1    
   109   55  111 1    
   110   56   57 am   BACKBONE|DICT|INTERRES
   111   56   58 2    
   112   57  112 1    
   113   57  113 1    
   114   59   60 1    
   115   59  114 1    
   116   59  115 1    
   117   60   61 1    
   118   61  116 1    
   119   61  117 1    
@<TRIPOS>SUBSTRUCTURE
     1 UNK         1 GROUP             0       ****    0 ROOT    
