@<TRIPOS>MOLECULE
3R8
117   119    1
SMALL
USER_CHARGES


@<TRIPOS>ATOM
      1 CA         14.1870  -22.1804  -44.7094 C.3       0 UNK        -0.2013 
      2 C          14.4844  -23.4743  -45.4522 C.2       0 UNK         0.4866 
      3 O          14.0646  -23.6335  -46.5987 O.2       0 UNK        -0.5176 
      4 N          15.2067  -24.4010  -44.8091 N.am      1 UNK        -0.4884 
      5 CA         15.5626  -25.7163  -45.3614 C.3       1 UNK         0.0853 
      6 C6         16.0869  -26.6844  -44.2715 C.3       10 UNK        -0.0849 
      7 S7         15.0083  -26.8705  -42.8132 S.3       10 UNK        -0.2776 
      8 C8         15.5240  -28.5106  -42.1907 C.3       10 UNK         0.0316 
      9 C9         17.0390  -28.6955  -42.1918 C.ar      10 UNK        -0.0863 
     10 C10        17.6327  -29.6238  -43.0543 C.ar      10 UNK        -0.1009 
     11 C11        19.0215  -29.7812  -43.0920 C.ar      10 UNK        -0.0712 
     12 C12        19.8148  -28.9993  -42.2450 C.ar      10 UNK        -0.0894 
     13 C13        19.2393  -28.0522  -41.3941 C.ar      10 UNK        -0.0745 
     14 C14        17.8484  -27.9161  -41.3599 C.ar      10 UNK        -0.0972 
     15 C15        20.1185  -27.1648  -40.5224 C.3       10 UNK         0.0209 
     16 S16        21.4976  -26.4047  -41.4455 S.3       10 UNK        -0.2568 
     17 C17        20.6281  -25.4343  -42.7305 C.3       10 UNK        -0.0983 
     18 CA         20.7158  -26.0210  -44.1684 C.3       3 UNK         0.0876 
     19 N          19.9241  -25.2061  -45.0940 N.am      3 UNK        -0.4424 
     20 C          19.7396  -25.4193  -46.4054 C.2       2 UNK         0.4918 
     21 O          20.2352  -26.3532  -47.0378 O.2       2 UNK        -0.4875 
     22 CA         18.7605  -24.4421  -47.0866 C.3       2 UNK         0.0481 
     23 CB         18.7020  -24.5914  -48.6224 C.3       2 UNK        -0.1831 
     24 N          17.4351  -24.5620  -46.4638 N.am      2 UNK        -0.4498 
     25 C          16.6357  -25.6431  -46.4683 C.2       1 UNK         0.5027 
     26 O          16.7617  -26.5975  -47.2364 O.2       1 UNK        -0.4969 
     27 C          22.1779  -26.1699  -44.6439 C.2       3 UNK         0.5005 
     28 O          22.8531  -25.1574  -44.8481 O.2       3 UNK        -0.5279 
     29 N          22.6377  -27.4219  -44.7853 N.am      4 UNK        -0.4463 
     30 CA         24.0454  -27.7630  -44.9968 C.3       4 UNK         0.0283 
     31 CB         24.1606  -29.1700  -45.6118 C.3       4 UNK        -0.1875 
     32 C          24.8021  -27.6544  -43.6646 C.2       4 UNK         0.4949 
     33 O          25.6715  -26.7949  -43.5209 O.2       4 UNK        -0.5039 
     34 N          24.4040  -28.4940  -42.7033 N.am      5 UNK        -0.4663 
     35 CA         24.7999  -28.4593  -41.3012 C.3       5 UNK         0.0242 
     36 CB         26.2627  -28.9083  -41.1179 C.3       5 UNK        -0.1982 
     37 C          23.8511  -29.3904  -40.5451 C.2       5 UNK         0.5017 
     38 O          23.5186  -30.4597  -41.0637 O.2       5 UNK        -0.5012 
     39 N          23.4680  -29.0040  -39.3221 N.am      6 UNK        -0.4439 
     40 CA         22.5811  -29.7836  -38.4495 C.3       6 UNK         0.0297 
     41 CB         22.1945  -28.9352  -37.2271 C.3       6 UNK        -0.2006 
     42 C          23.1796  -31.1309  -38.0020 C.2       6 UNK         0.4892 
     43 O          22.4247  -32.0635  -37.7302 O.2       6 UNK        -0.5089 
     44 N          24.5166  -31.2079  -37.9428 N.am      7 UNK        -0.4243 
     45 CA         25.2681  -32.4291  -37.6499 C.3       7 UNK         0.0196 
     46 CB         26.6573  -32.0443  -37.1147 C.3       7 UNK        -0.2007 
     47 C          25.4054  -33.3590  -38.8695 C.2       7 UNK         0.5020 
     48 O          25.6135  -34.5579  -38.6813 O.2       7 UNK        -0.5147 
     49 N          25.3164  -32.8047  -40.0874 N.am      8 UNK        -0.4734 
     50 CA         25.4120  -33.5586  -41.3400 C.3       8 UNK         0.0238 
     51 CB         25.9656  -32.6544  -42.4547 C.3       8 UNK        -0.1912 
     52 C          24.0531  -34.1454  -41.7423 C.2       8 UNK         0.5038 
     53 O          23.9861  -35.3158  -42.1211 O.2       8 UNK        -0.5046 
     54 N          23.0044  -33.3193  -41.6563 N.am      9 UNK        -0.4200 
     55 CA         21.6131  -33.6918  -41.9396 C.3       9 UNK         0.0839 
     56 C          21.0125  -34.6570  -40.8801 C.2       9 UNK         0.5513 
     57 N          19.9701  -35.3958  -41.2457 N.am      9 UNK        -0.7519 
     58 O          21.4542  -34.7280  -39.7330 O.2       9 UNK        -0.4960 
     59 C59        20.7340  -32.4304  -42.1189 C.3       10 UNK        -0.0876 
     60 S60        21.2366  -31.4660  -43.5851 S.3       10 UNK        -0.2414 
     61 C61        19.6340  -30.7592  -44.0945 C.3       10 UNK         0.0169 
     62 H62        13.1102  -22.0413  -44.6157 H         1 UNK         0.0903 
     63 H63        14.6173  -22.1760  -43.7080 H         1 UNK         0.0903 
     64 H64        14.5940  -21.3309  -45.2574 H         1 UNK         0.0903 
     65 H65        15.4941  -24.2380  -43.8536 H         1 UNK         0.3096 
     66 H66        14.6646  -26.1510  -45.8068 H         1 UNK         0.1121 
     67 H67        16.2360  -27.6740  -44.7092 H         1 UNK         0.0849 
     68 H68        17.0668  -26.3633  -43.9097 H         1 UNK         0.0849 
     69 H69        15.1447  -28.6421  -41.1763 H         1 UNK         0.0865 
     70 H70        15.0428  -29.2805  -42.7962 H         1 UNK         0.0865 
     71 H71        17.0120  -30.2144  -43.7145 H         1 UNK         0.1346 
     72 H72        20.8906  -29.0993  -42.2615 H         1 UNK         0.1412 
     73 H73        17.3916  -27.1856  -40.7059 H         1 UNK         0.1426 
     74 H74        19.5316  -26.3723  -40.0554 H         1 UNK         0.0716 
     75 H75        20.5279  -27.7674  -39.7116 H         1 UNK         0.0716 
     76 H76        21.0411  -24.4238  -42.7129 H         1 UNK         0.0695 
     77 H77        19.5820  -25.3297  -42.4381 H         1 UNK         0.0695 
     78 H78        20.2517  -27.0087  -44.1614 H         1 UNK         0.0983 
     79 H79        19.4850  -24.3954  -44.6851 H         1 UNK         0.3095 
     80 H80        19.1159  -23.4330  -46.8719 H         1 UNK         0.0454 
     81 H81        17.9842  -23.8985  -49.0608 H         1 UNK         0.0851 
     82 H82        18.4273  -25.5996  -48.9331 H         1 UNK         0.0851 
     83 H83        19.6746  -24.3759  -49.0661 H         1 UNK         0.0851 
     84 H84        17.1962  -23.8334  -45.8057 H         1 UNK         0.2976 
     85 H85        22.0068  -28.1923  -44.6204 H         1 UNK         0.3116 
     86 H86        24.4857  -27.0515  -45.6990 H         1 UNK         0.0646 
     87 H87        23.6903  -29.2081  -46.5945 H         1 UNK         0.0847 
     88 H88        25.2063  -29.4510  -45.7444 H         1 UNK         0.0847 
     89 H89        23.6940  -29.9367  -44.9922 H         1 UNK         0.0847 
     90 H90        23.6920  -29.1849  -42.9046 H         1 UNK         0.3040 
     91 H91        24.6762  -27.4391  -40.9306 H         1 UNK         0.1015 
     92 H92        26.4346  -29.9028  -41.5282 H         1 UNK         0.0786 
     93 H93        26.5359  -28.9373  -40.0623 H         1 UNK         0.0786 
     94 H94        26.9561  -28.2243  -41.6068 H         1 UNK         0.0786 
     95 H95        23.7883  -28.1145  -38.9654 H         1 UNK         0.3172 
     96 H96        21.6722  -30.0035  -39.0143 H         1 UNK         0.0595 
     97 H97        23.0645  -28.6795  -36.6203 H         1 UNK         0.0839 
     98 H98        21.4974  -29.4753  -36.5843 H         1 UNK         0.0839 
     99 H99        21.7057  -28.0062  -37.5219 H         1 UNK         0.0839 
    100 H100       25.0530  -30.3794  -38.1536 H         1 UNK         0.2998 
    101 H101       24.7443  -32.9856  -36.8692 H         1 UNK         0.0822 
    102 H102       26.5811  -31.4378  -36.2120 H         1 UNK         0.0787 
    103 H103       27.2359  -32.9329  -36.8578 H         1 UNK         0.0787 
    104 H104       27.2338  -31.4822  -37.8508 H         1 UNK         0.0787 
    105 H105       25.0724  -31.8268  -40.1621 H         1 UNK         0.3055 
    106 H106       26.1080  -34.3906  -41.2076 H         1 UNK         0.1106 
    107 H107       26.9533  -32.2705  -42.1995 H         1 UNK         0.0828 
    108 H108       26.0676  -33.2093  -43.3884 H         1 UNK         0.0828 
    109 H109       25.3131  -31.8037  -42.6551 H         1 UNK         0.0828 
    110 H110       23.1556  -32.3612  -41.3576 H         1 UNK         0.2931 
    111 H111       21.6169  -34.2338  -42.8880 H         1 UNK         0.0412 
    112 H112       19.5956  -35.3488  -42.1830 H         1 UNK         0.3472 
    113 H113       19.5559  -36.0234  -40.5737 H         1 UNK         0.3472 
    114 H114       19.6836  -32.7071  -42.2286 H         1 UNK         0.0970 
    115 H115       20.7901  -31.7898  -41.2363 H         1 UNK         0.0970 
    116 H116       19.7752  -30.2355  -45.0407 H         1 UNK         0.0612 
    117 H117       18.9420  -31.5786  -44.2954 H         1 UNK         0.0612 
@<TRIPOS>BOND
     1    1    2 1    
     2    1   62 1    
     3    1   63 1    
     4    1   64 1    
     5    2    3 2    
     6    2    4 am   BACKBONE|DICT|INTERRES
     7    4    5 1    
     8    4   65 1    
     9    5    6 1    
    10    5   25 1    
    11    5   66 1    
    12    6    7 1    
    13    6   67 1    
    14    6   68 1    
    15    7    8 1    
    16    8    9 1    
    17    8   69 1    
    18    8   70 1    
    19    9   10 ar   
    20    9   14 ar   
    21   10   11 ar   
    22   10   71 1    
    23   11   12 ar   
    24   11   61 1    
    25   12   13 ar   
    26   12   72 1    
    27   13   14 ar   
    28   13   15 1    
    29   14   73 1    
    30   15   16 1    
    31   15   74 1    
    32   15   75 1    
    33   16   17 1    
    34   17   18 1    
    35   17   76 1    
    36   17   77 1    
    37   18   19 1    
    38   18   27 1    
    39   18   78 1    
    40   19   20 am   BACKBONE|DICT|INTERRES
    41   19   79 1    
    42   20   21 2    
    43   20   22 1    
    44   22   23 1    
    45   22   24 1    
    46   22   80 1    
    47   23   81 1    
    48   23   82 1    
    49   23   83 1    
    50   24   25 am   BACKBONE|DICT|INTERRES
    51   24   84 1    
    52   25   26 2    
    53   27   28 2    
    54   27   29 am   BACKBONE|DICT|INTERRES
    55   29   30 1    
    56   29   85 1    
    57   30   31 1    
    58   30   32 1    
    59   30   86 1    
    60   31   87 1    
    61   31   88 1    
    62   31   89 1    
    63   32   33 2    
    64   32   34 am   BACKBONE|DICT|INTERRES
    65   34   35 1    
    66   34   90 1    
    67   35   36 1    
    68   35   37 1    
    69   35   91 1    
    70   36   92 1    
    71   36   93 1    
    72   36   94 1    
    73   37   38 2    
    74   37   39 am   BACKBONE|DICT|INTERRES
    75   39   40 1    
    76   39   95 1    
    77   40   41 1    
    78   40   42 1    
    79   40   96 1    
    80   41   97 1    
    81   41   98 1    
    82   41   99 1    
    83   42   43 2    
    84   42   44 am   BACKBONE|DICT|INTERRES
    85   44   45 1    
    86   44  100 1    
    87   45   46 1    
    88   45   47 1    
    89   45  101 1    
    90   46  102 1    
    91   46  103 1    
    92   46  104 1    
    93   47   48 2    
    94   47   49 am   BACKBONE|DICT|INTERRES
    95   49   50 1    
    96   49  105 1    
    97   50   51 1    
    98   50   52 1    
    99   50  106 1    
   100   51  107 1    
   101   51  108 1    
   102   51  109 1    
   103   52   53 2    
   104   52   54 am   BACKBONE|DICT|INTERRES
   105   54   55 1    
   106   54  110 1    
   107   55   56 1    
   108   55   59 1    
   109   55  111 1    
   110   56   57 am   BACKBONE|DICT|INTERRES
   111   56   58 2    
   112   57  112 1    
   113   57  113 1    
   114   59   60 1    
   115   59  114 1    
   116   59  115 1    
   117   60   61 1    
   118   61  116 1    
   119   61  117 1    
@<TRIPOS>SUBSTRUCTURE
     1 UNK         1 GROUP             0       ****    0 ROOT    
