@<TRIPOS>MOLECULE
3R8
117   119    1
SMALL
USER_CHARGES


@<TRIPOS>ATOM
      1 CA         17.3286  -27.1590  -39.4198 C.3       0 UNK        -0.2013 
      2 C          16.7749  -27.3376  -40.8254 C.2       0 UNK         0.4866 
      3 O          15.6894  -27.8936  -40.9926 O.2       0 UNK        -0.5176 
      4 N          17.5113  -26.8668  -41.8356 N.am      1 UNK        -0.4884 
      5 CA         17.1559  -26.9180  -43.2523 C.3       1 UNK         0.0853 
      6 C6         17.3845  -28.3301  -43.8522 C.3       10 UNK        -0.0849 
      7 S7         16.4477  -28.6196  -45.3950 S.3       10 UNK        -0.2776 
      8 C8         16.7734  -30.3881  -45.6981 C.3       10 UNK         0.0316 
      9 C9         18.2647  -30.6872  -45.7045 C.ar      10 UNK        -0.0863 
     10 C10        18.8586  -31.3050  -44.6000 C.ar      10 UNK        -0.1009 
     11 C11        20.2402  -31.5045  -44.5596 C.ar      10 UNK        -0.0712 
     12 C12        21.0258  -31.1070  -45.6445 C.ar      10 UNK        -0.0894 
     13 C13        20.4414  -30.4986  -46.7593 C.ar      10 UNK        -0.0745 
     14 C14        19.0578  -30.3002  -46.7888 C.ar      10 UNK        -0.0972 
     15 C15        21.3115  -30.0301  -47.9168 C.3       10 UNK         0.0209 
     16 S16        21.3603  -28.2134  -48.0528 S.3       10 UNK        -0.2568 
     17 C17        22.0868  -27.7279  -46.4485 C.3       10 UNK        -0.0983 
     18 CA         21.8093  -26.2434  -46.1022 C.3       3 UNK         0.0876 
     19 N          20.3715  -25.9473  -46.0994 N.am      3 UNK        -0.4424 
     20 C          19.8313  -24.7377  -46.2933 C.2       2 UNK         0.4918 
     21 O          20.4881  -23.7280  -46.5470 O.2       2 UNK        -0.4875 
     22 CA         18.3006  -24.6245  -46.1530 C.3       2 UNK         0.0481 
     23 CB         17.6357  -24.6909  -47.5369 C.3       2 UNK        -0.1831 
     24 N          17.6851  -25.6302  -45.2763 N.am      2 UNK        -0.4498 
     25 C          17.9596  -25.8200  -43.9783 C.2       1 UNK         0.5027 
     26 O          18.8207  -25.1810  -43.3652 O.2       1 UNK        -0.4969 
     27 C          22.5038  -25.8543  -44.7744 C.2       3 UNK         0.5005 
     28 O          23.7238  -26.0019  -44.6809 O.2       3 UNK        -0.5279 
     29 N          21.7369  -25.3787  -43.7781 N.am      4 UNK        -0.4463 
     30 CA         22.1457  -25.0671  -42.4056 C.3       4 UNK         0.0283 
     31 CB         23.2006  -23.9367  -42.3685 C.3       4 UNK        -0.1875 
     32 C          22.5470  -26.3441  -41.6433 C.2       4 UNK         0.4949 
     33 O          21.9555  -27.3995  -41.8773 O.2       4 UNK        -0.5039 
     34 N          23.5216  -26.2413  -40.7322 N.am      5 UNK        -0.4663 
     35 CA         24.0233  -27.3431  -39.9071 C.3       5 UNK         0.0242 
     36 CB         24.6440  -26.7591  -38.6241 C.3       5 UNK        -0.1982 
     37 C          25.0006  -28.2505  -40.6801 C.2       5 UNK         0.5017 
     38 O          26.1422  -28.4381  -40.2526 O.2       5 UNK        -0.5012 
     39 N          24.5390  -28.8190  -41.8006 N.am      6 UNK        -0.4439 
     40 CA         25.2495  -29.8135  -42.6104 C.3       6 UNK         0.0297 
     41 CB         24.7005  -29.7639  -44.0491 C.3       6 UNK        -0.2006 
     42 C          25.1354  -31.2112  -41.9660 C.2       6 UNK         0.4892 
     43 O          24.5764  -32.1266  -42.5715 O.2       6 UNK        -0.5089 
     44 N          25.6443  -31.3158  -40.7300 N.am      7 UNK        -0.4243 
     45 CA         25.3681  -32.3362  -39.7127 C.3       7 UNK         0.0196 
     46 CB         25.5362  -33.7810  -40.2383 C.3       7 UNK        -0.2007 
     47 C          24.0149  -32.0602  -39.0251 C.2       7 UNK         0.5020 
     48 O          23.5591  -30.9136  -39.0049 O.2       7 UNK        -0.5147 
     49 N          23.4135  -33.0916  -38.4196 N.am      8 UNK        -0.4734 
     50 CA         22.1909  -33.0067  -37.6119 C.3       8 UNK         0.0238 
     51 CB         22.1638  -34.1966  -36.6330 C.3       8 UNK        -0.1912 
     52 C          20.9109  -32.9153  -38.4682 C.2       8 UNK         0.5038 
     53 O          20.0524  -33.7969  -38.3881 O.2       8 UNK        -0.5046 
     54 N          20.8147  -31.8615  -39.2854 N.am      9 UNK        -0.4200 
     55 CA         19.6577  -31.5540  -40.1397 C.3       9 UNK         0.0839 
     56 C          18.4017  -31.1451  -39.3242 C.2       9 UNK         0.5513 
     57 N          17.2122  -31.4267  -39.8380 N.am      9 UNK        -0.7519 
     58 O          18.4942  -30.5406  -38.2577 O.2       9 UNK        -0.4960 
     59 C59        19.9892  -30.4766  -41.2060 C.3       10 UNK        -0.0876 
     60 S60        21.4827  -30.8722  -42.1720 S.3       10 UNK        -0.2414 
     61 C61        20.8924  -32.1347  -43.3411 C.3       10 UNK         0.0169 
     62 H62        17.3042  -28.1075  -38.8829 H         1 UNK         0.0903 
     63 H63        18.3599  -26.8047  -39.4308 H         1 UNK         0.0903 
     64 H64        16.7245  -26.4394  -38.8670 H         1 UNK         0.0903 
     65 H65        18.3679  -26.3536  -41.6602 H         1 UNK         0.3096 
     66 H66        16.0993  -26.6534  -43.3384 H         1 UNK         0.1121 
     67 H67        17.0652  -29.0949  -43.1425 H         1 UNK         0.0849 
     68 H68        18.4487  -28.5070  -44.0211 H         1 UNK         0.0849 
     69 H69        16.2618  -30.9825  -44.9393 H         1 UNK         0.0865 
     70 H70        16.3374  -30.6746  -46.6562 H         1 UNK         0.0865 
     71 H71        18.2498  -31.6029  -43.7577 H         1 UNK         0.1346 
     72 H72        22.0966  -31.2540  -45.6089 H         1 UNK         0.1412 
     73 H73        18.6040  -29.8099  -47.6396 H         1 UNK         0.1426 
     74 H74        20.9225  -30.4442  -48.8479 H         1 UNK         0.0716 
     75 H75        22.3311  -30.4055  -47.8160 H         1 UNK         0.0716 
     76 H76        21.6966  -28.3686  -45.6566 H         1 UNK         0.0695 
     77 H77        23.1599  -27.9218  -46.4989 H         1 UNK         0.0695 
     78 H78        22.2772  -25.6324  -46.8775 H         1 UNK         0.0983 
     79 H79        19.7569  -26.7292  -45.9282 H         1 UNK         0.3095 
     80 H80        18.0881  -23.6450  -45.7199 H         1 UNK         0.0454 
     81 H81        17.7843  -25.6627  -48.0098 H         1 UNK         0.0851 
     82 H82        18.0503  -23.9362  -48.2068 H         1 UNK         0.0851 
     83 H83        16.5629  -24.5081  -47.4728 H         1 UNK         0.0851 
     84 H84        16.9939  -26.2351  -45.7017 H         1 UNK         0.2976 
     85 H85        20.7350  -25.3279  -43.9322 H         1 UNK         0.3116 
     86 H86        21.2492  -24.6928  -41.9094 H         1 UNK         0.0646 
     87 H87        24.1732  -24.2683  -42.7341 H         1 UNK         0.0847 
     88 H88        23.3391  -23.5559  -41.3561 H         1 UNK         0.0847 
     89 H89        22.8893  -23.0909  -42.9818 H         1 UNK         0.0847 
     90 H90        23.9823  -25.3498  -40.6201 H         1 UNK         0.3040 
     91 H91        23.1822  -27.9737  -39.6076 H         1 UNK         0.1015 
     92 H92        24.9876  -27.5544  -37.9609 H         1 UNK         0.0786 
     93 H93        23.9182  -26.1675  -38.0656 H         1 UNK         0.0786 
     94 H94        25.5018  -26.1217  -38.8425 H         1 UNK         0.0786 
     95 H95        23.5729  -28.6285  -42.0519 H         1 UNK         0.3172 
     96 H96        26.3093  -29.5535  -42.6497 H         1 UNK         0.0595 
     97 H97        25.2131  -30.4828  -44.6893 H         1 UNK         0.0839 
     98 H98        24.8395  -28.7771  -44.4916 H         1 UNK         0.0839 
     99 H99        23.6359  -29.9957  -44.0837 H         1 UNK         0.0839 
    100 H100       26.0459  -30.4600  -40.3589 H         1 UNK         0.2998 
    101 H101       26.1259  -32.1841  -38.9428 H         1 UNK         0.0822 
    102 H102       25.6062  -34.4949  -39.4170 H         1 UNK         0.0787 
    103 H103       24.6999  -34.0878  -40.8676 H         1 UNK         0.0787 
    104 H104       26.4493  -33.8837  -40.8249 H         1 UNK         0.0787 
    105 H105       23.8316  -34.0069  -38.5060 H         1 UNK         0.3055 
    106 H106       22.2317  -32.0932  -37.0136 H         1 UNK         0.1106 
    107 H107       21.2872  -34.1504  -35.9853 H         1 UNK         0.0828 
    108 H108       22.1313  -35.1523  -37.1577 H         1 UNK         0.0828 
    109 H109       23.0405  -34.1983  -35.9851 H         1 UNK         0.0828 
    110 H110       21.5932  -31.2120  -39.3195 H         1 UNK         0.2931 
    111 H111       19.4096  -32.4769  -40.6672 H         1 UNK         0.0412 
    112 H112       17.1223  -31.9228  -40.7105 H         1 UNK         0.3472 
    113 H113       16.3841  -31.1529  -39.3325 H         1 UNK         0.3472 
    114 H114       20.1575  -29.5089  -40.7287 H         1 UNK         0.0970 
    115 H115       19.1519  -30.3294  -41.8890 H         1 UNK         0.0970 
    116 H116       21.7471  -32.7362  -43.6549 H         1 UNK         0.0612 
    117 H117       20.2060  -32.8213  -42.8451 H         1 UNK         0.0612 
@<TRIPOS>BOND
     1    1    2 1    
     2    1   62 1    
     3    1   63 1    
     4    1   64 1    
     5    2    3 2    
     6    2    4 am   BACKBONE|DICT|INTERRES
     7    4    5 1    
     8    4   65 1    
     9    5    6 1    
    10    5   25 1    
    11    5   66 1    
    12    6    7 1    
    13    6   67 1    
    14    6   68 1    
    15    7    8 1    
    16    8    9 1    
    17    8   69 1    
    18    8   70 1    
    19    9   10 ar   
    20    9   14 ar   
    21   10   11 ar   
    22   10   71 1    
    23   11   12 ar   
    24   11   61 1    
    25   12   13 ar   
    26   12   72 1    
    27   13   14 ar   
    28   13   15 1    
    29   14   73 1    
    30   15   16 1    
    31   15   74 1    
    32   15   75 1    
    33   16   17 1    
    34   17   18 1    
    35   17   76 1    
    36   17   77 1    
    37   18   19 1    
    38   18   27 1    
    39   18   78 1    
    40   19   20 am   BACKBONE|DICT|INTERRES
    41   19   79 1    
    42   20   21 2    
    43   20   22 1    
    44   22   23 1    
    45   22   24 1    
    46   22   80 1    
    47   23   81 1    
    48   23   82 1    
    49   23   83 1    
    50   24   25 am   BACKBONE|DICT|INTERRES
    51   24   84 1    
    52   25   26 2    
    53   27   28 2    
    54   27   29 am   BACKBONE|DICT|INTERRES
    55   29   30 1    
    56   29   85 1    
    57   30   31 1    
    58   30   32 1    
    59   30   86 1    
    60   31   87 1    
    61   31   88 1    
    62   31   89 1    
    63   32   33 2    
    64   32   34 am   BACKBONE|DICT|INTERRES
    65   34   35 1    
    66   34   90 1    
    67   35   36 1    
    68   35   37 1    
    69   35   91 1    
    70   36   92 1    
    71   36   93 1    
    72   36   94 1    
    73   37   38 2    
    74   37   39 am   BACKBONE|DICT|INTERRES
    75   39   40 1    
    76   39   95 1    
    77   40   41 1    
    78   40   42 1    
    79   40   96 1    
    80   41   97 1    
    81   41   98 1    
    82   41   99 1    
    83   42   43 2    
    84   42   44 am   BACKBONE|DICT|INTERRES
    85   44   45 1    
    86   44  100 1    
    87   45   46 1    
    88   45   47 1    
    89   45  101 1    
    90   46  102 1    
    91   46  103 1    
    92   46  104 1    
    93   47   48 2    
    94   47   49 am   BACKBONE|DICT|INTERRES
    95   49   50 1    
    96   49  105 1    
    97   50   51 1    
    98   50   52 1    
    99   50  106 1    
   100   51  107 1    
   101   51  108 1    
   102   51  109 1    
   103   52   53 2    
   104   52   54 am   BACKBONE|DICT|INTERRES
   105   54   55 1    
   106   54  110 1    
   107   55   56 1    
   108   55   59 1    
   109   55  111 1    
   110   56   57 am   BACKBONE|DICT|INTERRES
   111   56   58 2    
   112   57  112 1    
   113   57  113 1    
   114   59   60 1    
   115   59  114 1    
   116   59  115 1    
   117   60   61 1    
   118   61  116 1    
   119   61  117 1    
@<TRIPOS>SUBSTRUCTURE
     1 UNK         1 GROUP             0       ****    0 ROOT    
