@<TRIPOS>MOLECULE
3R8
117   119    1
SMALL
USER_CHARGES


@<TRIPOS>ATOM
      1 CA         19.9403  -22.5456  -43.4108 C.3       0 UNK        -0.2013 
      2 C          19.7024  -23.5765  -44.5052 C.2       0 UNK         0.4866 
      3 O          20.4004  -23.5650  -45.5183 O.2       0 UNK        -0.5176 
      4 N          18.7112  -24.4565  -44.3045 N.am      1 UNK        -0.4884 
      5 CA         18.3075  -25.5409  -45.2123 C.3       1 UNK         0.0853 
      6 C6         17.0594  -26.2725  -44.6482 C.3       10 UNK        -0.0849 
      7 S7         15.9307  -26.9797  -45.8979 S.3       10 UNK        -0.2776 
      8 C8         16.7089  -28.5578  -46.4083 C.3       10 UNK         0.0316 
      9 C9         16.8842  -29.6489  -45.3467 C.ar      10 UNK        -0.0863 
     10 C10        17.5134  -30.8352  -45.7376 C.ar      10 UNK        -0.1009 
     11 C11        17.7402  -31.8680  -44.8240 C.ar      10 UNK        -0.0712 
     12 C12        17.3553  -31.7031  -43.4911 C.ar      10 UNK        -0.0894 
     13 C13        16.7100  -30.5324  -43.0843 C.ar      10 UNK        -0.0745 
     14 C14        16.4489  -29.5266  -44.0203 C.ar      10 UNK        -0.0972 
     15 C15        16.2650  -30.3574  -41.6401 C.3       10 UNK         0.0209 
     16 S16        17.2398  -29.0838  -40.7761 S.3       10 UNK        -0.2568 
     17 C17        18.7946  -29.9643  -40.3748 C.3       10 UNK        -0.0983 
     18 CA         20.0906  -29.1929  -40.7407 C.3       3 UNK         0.0876 
     19 N          20.1723  -28.8881  -42.1735 N.am      3 UNK        -0.4424 
     20 C          21.2534  -28.3817  -42.7871 C.2       2 UNK         0.4918 
     21 O          22.3051  -28.1072  -42.2117 O.2       2 UNK        -0.4875 
     22 CA         21.0937  -28.0350  -44.2686 C.3       2 UNK         0.0481 
     23 CB         20.8833  -29.3135  -45.1049 C.3       2 UNK        -0.1831 
     24 N          19.9816  -27.0917  -44.3713 N.am      2 UNK        -0.4498 
     25 C          19.4637  -26.5317  -45.4712 C.2       1 UNK         0.5027 
     26 O          19.8552  -26.7421  -46.6197 O.2       1 UNK        -0.4969 
     27 C          20.3035  -27.9347  -39.8678 C.2       3 UNK         0.5005 
     28 O          21.1259  -27.9527  -38.9516 O.2       3 UNK        -0.5279 
     29 N          19.6197  -26.8378  -40.2279 N.am      4 UNK        -0.4463 
     30 CA         19.7370  -25.5152  -39.6033 C.3       4 UNK         0.0283 
     31 CB         18.5996  -24.6162  -40.1133 C.3       4 UNK        -0.1875 
     32 C          21.1005  -24.8340  -39.8289 C.2       4 UNK         0.4949 
     33 O          21.4718  -23.9610  -39.0453 O.2       4 UNK        -0.5039 
     34 N          21.8274  -25.2509  -40.8752 N.am      5 UNK        -0.4663 
     35 CA         23.1995  -24.8245  -41.1657 C.3       5 UNK         0.0242 
     36 CB         23.4261  -24.8674  -42.6884 C.3       5 UNK        -0.1982 
     37 C          24.2523  -25.6803  -40.4318 C.2       5 UNK         0.5017 
     38 O          25.4440  -25.4100  -40.5835 O.2       5 UNK        -0.5012 
     39 N          23.8065  -26.6945  -39.6715 N.am      6 UNK        -0.4439 
     40 CA         24.6005  -27.6863  -38.9388 C.3       6 UNK         0.0297 
     41 CB         25.4620  -27.0206  -37.8438 C.3       6 UNK        -0.2006 
     42 C          25.4082  -28.6291  -39.8533 C.2       6 UNK         0.4892 
     43 O          26.4304  -29.1649  -39.4198 O.2       6 UNK        -0.5089 
     44 N          24.9319  -28.8405  -41.0878 N.am      7 UNK        -0.4243 
     45 CA         25.4656  -29.8364  -42.0144 C.3       7 UNK         0.0196 
     46 CB         25.2050  -29.3745  -43.4582 C.3       7 UNK        -0.2007 
     47 C          24.7992  -31.1951  -41.7556 C.2       7 UNK         0.5020 
     48 O          23.6652  -31.2462  -41.2710 O.2       7 UNK        -0.5147 
     49 N          25.5007  -32.2773  -42.1135 N.am      8 UNK        -0.4734 
     50 CA         24.9669  -33.6403  -42.0819 C.3       8 UNK         0.0238 
     51 CB         26.1139  -34.6472  -42.2706 C.3       8 UNK        -0.1912 
     52 C          23.8961  -33.8130  -43.1709 C.2       8 UNK         0.5038 
     53 O          24.1767  -33.5320  -44.3388 O.2       8 UNK        -0.5046 
     54 N          22.6993  -34.2506  -42.7721 N.am      9 UNK        -0.4200 
     55 CA         21.5342  -34.4147  -43.6438 C.3       9 UNK         0.0839 
     56 C          20.5536  -35.4448  -43.0318 C.2       9 UNK         0.5513 
     57 N          19.8545  -36.2077  -43.8597 N.am      9 UNK        -0.7519 
     58 O          20.4089  -35.5434  -41.8146 O.2       9 UNK        -0.4960 
     59 C59        20.8482  -33.0511  -43.9478 C.3       10 UNK        -0.0876 
     60 S60        20.1463  -32.9991  -45.6285 S.3       10 UNK        -0.2414 
     61 C61        18.3673  -33.1717  -45.2948 C.3       10 UNK         0.0169 
     62 H62        20.1457  -21.5698  -43.8504 H         1 UNK         0.0903 
     63 H63        19.0747  -22.4401  -42.7573 H         1 UNK         0.0903 
     64 H64        20.7963  -22.8302  -42.8000 H         1 UNK         0.0903 
     65 H65        18.1557  -24.3674  -43.4664 H         1 UNK         0.3096 
     66 H66        18.0476  -25.0769  -46.1666 H         1 UNK         0.1121 
     67 H67        17.3331  -27.0124  -43.8980 H         1 UNK         0.0849 
     68 H68        16.4395  -25.5570  -44.1049 H         1 UNK         0.0849 
     69 H69        16.0979  -28.9716  -47.2119 H         1 UNK         0.0865 
     70 H70        17.6777  -28.3425  -46.8589 H         1 UNK         0.0865 
     71 H71        17.8321  -30.9601  -46.7640 H         1 UNK         0.1346 
     72 H72        17.5358  -32.4950  -42.7770 H         1 UNK         0.1412 
     73 H73        15.9105  -28.6496  -43.6936 H         1 UNK         0.1426 
     74 H74        16.3218  -31.2981  -41.0901 H         1 UNK         0.0716 
     75 H75        15.2150  -30.0614  -41.6272 H         1 UNK         0.0716 
     76 H76        18.7856  -30.2035  -39.3097 H         1 UNK         0.0695 
     77 H77        18.7996  -30.9274  -40.8872 H         1 UNK         0.0695 
     78 H78        20.9304  -29.8575  -40.5215 H         1 UNK         0.0983 
     79 H79        19.3456  -29.0939  -42.7165 H         1 UNK         0.3095 
     80 H80        22.0015  -27.5324  -44.6075 H         1 UNK         0.0454 
     81 H81        19.9605  -29.8277  -44.8402 H         1 UNK         0.0851 
     82 H82        20.8516  -29.1031  -46.1730 H         1 UNK         0.0851 
     83 H83        21.7029  -30.0158  -44.9496 H         1 UNK         0.0851 
     84 H84        19.6039  -26.7883  -43.4868 H         1 UNK         0.2976 
     85 H85        18.9188  -26.9423  -40.9465 H         1 UNK         0.3116 
     86 H86        19.6136  -25.6441  -38.5259 H         1 UNK         0.0646 
     87 H87        18.6399  -23.6319  -39.6443 H         1 UNK         0.0847 
     88 H88        17.6225  -25.0412  -39.8826 H         1 UNK         0.0847 
     89 H89        18.6563  -24.4649  -41.1907 H         1 UNK         0.0847 
     90 H90        21.4699  -26.0071  -41.4401 H         1 UNK         0.3040 
     91 H91        23.3344  -23.7929  -40.8326 H         1 UNK         0.1015 
     92 H92        22.6816  -24.2797  -43.2240 H         1 UNK         0.0786 
     93 H93        23.3930  -25.8845  -43.0779 H         1 UNK         0.0786 
     94 H94        24.4034  -24.4576  -42.9467 H         1 UNK         0.0786 
     95 H95        22.8046  -26.8445  -39.6235 H         1 UNK         0.3172 
     96 H96        23.8742  -28.3239  -38.4331 H         1 UNK         0.0595 
     97 H97        24.8636  -26.3654  -37.2109 H         1 UNK         0.0839 
     98 H98        26.2740  -26.4296  -38.2682 H         1 UNK         0.0839 
     99 H99        25.9149  -27.7701  -37.1937 H         1 UNK         0.0839 
    100 H100       24.0407  -28.4280  -41.3484 H         1 UNK         0.2998 
    101 H101       26.5439  -29.9315  -41.8681 H         1 UNK         0.0822 
    102 H102       25.6157  -28.3808  -43.6381 H         1 UNK         0.0787 
    103 H103       25.6696  -30.0533  -44.1744 H         1 UNK         0.0787 
    104 H104       24.1400  -29.3436  -43.6888 H         1 UNK         0.0787 
    105 H105       26.4072  -32.1550  -42.5421 H         1 UNK         0.3055 
    106 H106       24.5164  -33.8112  -41.1012 H         1 UNK         0.1106 
    107 H107       25.7417  -35.6720  -42.2340 H         1 UNK         0.0828 
    108 H108       26.6139  -34.5173  -43.2314 H         1 UNK         0.0828 
    109 H109       26.8635  -34.5478  -41.4854 H         1 UNK         0.0828 
    110 H110       22.5365  -34.4898  -41.8028 H         1 UNK         0.2931 
    111 H111       21.9066  -34.8461  -44.5760 H         1 UNK         0.0412 
    112 H112       19.9628  -36.1223  -44.8586 H         1 UNK         0.3472 
    113 H113       19.2076  -36.8815  -43.4803 H         1 UNK         0.3472 
    114 H114       20.0953  -32.7973  -43.1997 H         1 UNK         0.0970 
    115 H115       21.5766  -32.2406  -43.9008 H         1 UNK         0.0970 
    116 H116       17.8723  -33.4920  -46.2126 H         1 UNK         0.0612 
    117 H117       18.2020  -33.9686  -44.5687 H         1 UNK         0.0612 
@<TRIPOS>BOND
     1    1    2 1    
     2    1   62 1    
     3    1   63 1    
     4    1   64 1    
     5    2    3 2    
     6    2    4 am   BACKBONE|DICT|INTERRES
     7    4    5 1    
     8    4   65 1    
     9    5    6 1    
    10    5   25 1    
    11    5   66 1    
    12    6    7 1    
    13    6   67 1    
    14    6   68 1    
    15    7    8 1    
    16    8    9 1    
    17    8   69 1    
    18    8   70 1    
    19    9   10 ar   
    20    9   14 ar   
    21   10   11 ar   
    22   10   71 1    
    23   11   12 ar   
    24   11   61 1    
    25   12   13 ar   
    26   12   72 1    
    27   13   14 ar   
    28   13   15 1    
    29   14   73 1    
    30   15   16 1    
    31   15   74 1    
    32   15   75 1    
    33   16   17 1    
    34   17   18 1    
    35   17   76 1    
    36   17   77 1    
    37   18   19 1    
    38   18   27 1    
    39   18   78 1    
    40   19   20 am   BACKBONE|DICT|INTERRES
    41   19   79 1    
    42   20   21 2    
    43   20   22 1    
    44   22   23 1    
    45   22   24 1    
    46   22   80 1    
    47   23   81 1    
    48   23   82 1    
    49   23   83 1    
    50   24   25 am   BACKBONE|DICT|INTERRES
    51   24   84 1    
    52   25   26 2    
    53   27   28 2    
    54   27   29 am   BACKBONE|DICT|INTERRES
    55   29   30 1    
    56   29   85 1    
    57   30   31 1    
    58   30   32 1    
    59   30   86 1    
    60   31   87 1    
    61   31   88 1    
    62   31   89 1    
    63   32   33 2    
    64   32   34 am   BACKBONE|DICT|INTERRES
    65   34   35 1    
    66   34   90 1    
    67   35   36 1    
    68   35   37 1    
    69   35   91 1    
    70   36   92 1    
    71   36   93 1    
    72   36   94 1    
    73   37   38 2    
    74   37   39 am   BACKBONE|DICT|INTERRES
    75   39   40 1    
    76   39   95 1    
    77   40   41 1    
    78   40   42 1    
    79   40   96 1    
    80   41   97 1    
    81   41   98 1    
    82   41   99 1    
    83   42   43 2    
    84   42   44 am   BACKBONE|DICT|INTERRES
    85   44   45 1    
    86   44  100 1    
    87   45   46 1    
    88   45   47 1    
    89   45  101 1    
    90   46  102 1    
    91   46  103 1    
    92   46  104 1    
    93   47   48 2    
    94   47   49 am   BACKBONE|DICT|INTERRES
    95   49   50 1    
    96   49  105 1    
    97   50   51 1    
    98   50   52 1    
    99   50  106 1    
   100   51  107 1    
   101   51  108 1    
   102   51  109 1    
   103   52   53 2    
   104   52   54 am   BACKBONE|DICT|INTERRES
   105   54   55 1    
   106   54  110 1    
   107   55   56 1    
   108   55   59 1    
   109   55  111 1    
   110   56   57 am   BACKBONE|DICT|INTERRES
   111   56   58 2    
   112   57  112 1    
   113   57  113 1    
   114   59   60 1    
   115   59  114 1    
   116   59  115 1    
   117   60   61 1    
   118   61  116 1    
   119   61  117 1    
@<TRIPOS>SUBSTRUCTURE
     1 UNK         1 GROUP             0       ****    0 ROOT    
