@<TRIPOS>MOLECULE
3R8
117   119    1
SMALL
USER_CHARGES


@<TRIPOS>ATOM
      1 CA         16.6351  -24.1607  -40.6557 C.3       0 UNK        -0.2013 
      2 C          17.0008  -24.0362  -42.1272 C.2       0 UNK         0.4866 
      3 O          17.1108  -22.9214  -42.6392 O.2       0 UNK        -0.5176 
      4 N          17.1785  -25.1730  -42.8117 N.am      1 UNK        -0.4884 
      5 CA         17.5842  -25.2610  -44.2195 C.3       1 UNK         0.0853 
      6 C6         17.4934  -26.7131  -44.7630 C.3       10 UNK        -0.0849 
      7 S7         15.9052  -27.5411  -44.4238 S.3       10 UNK        -0.2776 
      8 C8         15.9994  -28.9776  -45.5433 C.3       10 UNK         0.0316 
      9 C9         17.1929  -29.8811  -45.2503 C.ar      10 UNK        -0.0863 
     10 C10        17.2168  -30.6710  -44.0964 C.ar      10 UNK        -0.1009 
     11 C11        18.2958  -31.5243  -43.8394 C.ar      10 UNK        -0.0712 
     12 C12        19.3552  -31.5862  -44.7500 C.ar      10 UNK        -0.0894 
     13 C13        19.3435  -30.8031  -45.9079 C.ar      10 UNK        -0.0745 
     14 C14        18.2594  -29.9532  -46.1521 C.ar      10 UNK        -0.0972 
     15 C15        20.4842  -30.9053  -46.9126 C.3       10 UNK         0.0209 
     16 S16        21.9934  -30.0542  -46.3515 S.3       10 UNK        -0.2568 
     17 C17        21.4791  -28.3042  -46.4281 C.3       10 UNK        -0.0983 
     18 CA         22.2126  -27.3597  -45.4348 C.3       3 UNK         0.0876 
     19 N          21.6280  -26.0247  -45.4033 N.am      3 UNK        -0.4424 
     20 C          21.5317  -25.1402  -46.3967 C.2       2 UNK         0.4918 
     21 O          22.0315  -25.2970  -47.5112 O.2       2 UNK        -0.4875 
     22 CA         20.6845  -23.8865  -46.0782 C.3       2 UNK         0.0481 
     23 CB         20.5723  -22.9287  -47.2784 C.3       2 UNK        -0.1831 
     24 N          19.3326  -24.2426  -45.6198 N.am      2 UNK        -0.4498 
     25 C          19.0261  -24.7481  -44.4156 C.2       1 UNK         0.5027 
     26 O          19.8636  -24.9217  -43.5229 O.2       1 UNK        -0.4969 
     27 C          22.1982  -27.8573  -43.9796 C.2       3 UNK         0.5005 
     28 O          23.2623  -28.0922  -43.4077 O.2       3 UNK        -0.5279 
     29 N          20.9980  -27.9231  -43.3795 N.am      4 UNK        -0.4463 
     30 CA         20.7253  -28.3473  -41.9976 C.3       4 UNK         0.0283 
     31 CB         19.2127  -28.2749  -41.7381 C.3       4 UNK        -0.1875 
     32 C          21.4754  -27.5693  -40.9012 C.2       4 UNK         0.4949 
     33 O          21.6387  -28.0883  -39.7979 O.2       4 UNK        -0.5039 
     34 N          21.9357  -26.3527  -41.2199 N.am      5 UNK        -0.4663 
     35 CA         22.8369  -25.5540  -40.3874 C.3       5 UNK         0.0242 
     36 CB         22.9664  -24.1526  -41.0060 C.3       5 UNK        -0.1982 
     37 C          24.2304  -26.1889  -40.1907 C.2       5 UNK         0.5017 
     38 O          24.8940  -25.8591  -39.2068 O.2       5 UNK        -0.5012 
     39 N          24.6493  -27.0671  -41.1142 N.am      6 UNK        -0.4439 
     40 CA         25.9274  -27.7815  -41.0836 C.3       6 UNK         0.0297 
     41 CB         26.7750  -27.3475  -42.2911 C.3       6 UNK        -0.2006 
     42 C          25.7453  -29.3088  -41.0812 C.2       6 UNK         0.4892 
     43 O          26.5298  -29.9974  -40.4269 O.2       6 UNK        -0.5089 
     44 N          24.7494  -29.8195  -41.8200 N.am      7 UNK        -0.4243 
     45 CA         24.4594  -31.2477  -41.9644 C.3       7 UNK         0.0196 
     46 CB         23.4464  -31.4479  -43.1039 C.3       7 UNK        -0.2007 
     47 C          23.9327  -31.8811  -40.6672 C.2       7 UNK         0.5020 
     48 O          23.1804  -31.2478  -39.9242 O.2       7 UNK        -0.5147 
     49 N          24.3017  -33.1470  -40.4423 N.am      8 UNK        -0.4734 
     50 CA         23.8726  -33.9555  -39.2999 C.3       8 UNK         0.0238 
     51 CB         24.9557  -35.0101  -39.0018 C.3       8 UNK        -0.1912 
     52 C          22.4900  -34.5823  -39.5579 C.2       8 UNK         0.5038 
     53 O          22.3870  -35.8004  -39.7190 O.2       8 UNK        -0.5046 
     54 N          21.4595  -33.7310  -39.6254 N.am      9 UNK        -0.4200 
     55 CA         20.0480  -34.1120  -39.7883 C.3       9 UNK         0.0839 
     56 C          19.5284  -35.0075  -38.6294 C.2       9 UNK         0.5513 
     57 N          18.6747  -35.9768  -38.9291 N.am      9 UNK        -0.7519 
     58 O          19.8549  -34.8001  -37.4622 O.2       9 UNK        -0.4960 
     59 C59        19.1378  -32.8678  -39.9456 C.3       10 UNK        -0.0876 
     60 S60        19.5640  -31.8528  -41.3990 S.3       10 UNK        -0.2414 
     61 C61        18.3054  -32.3983  -42.5933 C.3       10 UNK         0.0169 
     62 H62        16.5594  -25.2013  -40.3405 H         1 UNK         0.0903 
     63 H63        17.3914  -23.6747  -40.0399 H         1 UNK         0.0903 
     64 H64        15.6772  -23.6779  -40.4645 H         1 UNK         0.0903 
     65 H65        17.0424  -26.0590  -42.3478 H         1 UNK         0.3096 
     66 H66        16.9087  -24.6250  -44.7962 H         1 UNK         0.1121 
     67 H67        17.6577  -26.7195  -45.8426 H         1 UNK         0.0849 
     68 H68        18.2772  -27.3384  -44.3358 H         1 UNK         0.0849 
     69 H69        15.0809  -29.5584  -45.4470 H         1 UNK         0.0865 
     70 H70        16.0242  -28.6242  -46.5754 H         1 UNK         0.0865 
     71 H71        16.3908  -30.6203  -43.3999 H         1 UNK         0.1346 
     72 H72        20.1901  -32.2462  -44.5567 H         1 UNK         0.1412 
     73 H73        18.2418  -29.3549  -47.0530 H         1 UNK         0.1426 
     74 H74        20.1853  -30.5032  -47.8819 H         1 UNK         0.0716 
     75 H75        20.7192  -31.9572  -47.0810 H         1 UNK         0.0716 
     76 H76        21.6412  -27.9638  -47.4515 H         1 UNK         0.0695 
     77 H77        20.4040  -28.2388  -46.2643 H         1 UNK         0.0695 
     78 H78        23.2559  -27.2681  -45.7438 H         1 UNK         0.0983 
     79 H79        21.1850  -25.7580  -44.5275 H         1 UNK         0.3095 
     80 H80        21.1928  -23.3499  -45.2743 H         1 UNK         0.0454 
     81 H81        21.5588  -22.6087  -47.6166 H         1 UNK         0.0851 
     82 H82        20.0740  -23.3990  -48.1270 H         1 UNK         0.0851 
     83 H83        20.0154  -22.0287  -47.0178 H         1 UNK         0.0851 
     84 H84        18.6012  -24.1696  -46.3132 H         1 UNK         0.2976 
     85 H85        20.1845  -27.7284  -43.9409 H         1 UNK         0.3116 
     86 H86        21.0414  -29.3874  -41.9161 H         1 UNK         0.0646 
     87 H87        18.9709  -28.6499  -40.7426 H         1 UNK         0.0847 
     88 H88        18.6553  -28.8830  -42.4490 H         1 UNK         0.0847 
     89 H89        18.8455  -27.2509  -41.7985 H         1 UNK         0.0847 
     90 H90        21.6890  -25.9723  -42.1222 H         1 UNK         0.3040 
     91 H91        22.3823  -25.4562  -39.3991 H         1 UNK         0.1015 
     92 H92        21.9955  -23.6630  -41.0879 H         1 UNK         0.0786 
     93 H93        23.4086  -24.1906  -42.0025 H         1 UNK         0.0786 
     94 H94        23.6007  -23.5117  -40.3918 H         1 UNK         0.0786 
     95 H95        24.0270  -27.2924  -41.8866 H         1 UNK         0.3172 
     96 H96        26.4810  -27.5274  -40.1773 H         1 UNK         0.0595 
     97 H97        27.7351  -27.8653  -42.3018 H         1 UNK         0.0839 
     98 H98        26.9843  -26.2781  -42.2629 H         1 UNK         0.0839 
     99 H99        26.2742  -27.5660  -43.2354 H         1 UNK         0.0839 
    100 H100       24.1587  -29.1884  -42.3576 H         1 UNK         0.2998 
    101 H101       25.3914  -31.7447  -42.2420 H         1 UNK         0.0822 
    102 H102       22.4939  -30.9632  -42.8887 H         1 UNK         0.0787 
    103 H103       23.8222  -31.0420  -44.0431 H         1 UNK         0.0787 
    104 H104       23.2407  -32.5065  -43.2673 H         1 UNK         0.0787 
    105 H105       24.8835  -33.6122  -41.1250 H         1 UNK         0.3055 
    106 H106       23.7816  -33.3172  -38.4175 H         1 UNK         0.1106 
    107 H107       25.1150  -35.6808  -39.8471 H         1 UNK         0.0828 
    108 H108       25.9100  -34.5410  -38.7615 H         1 UNK         0.0828 
    109 H109       24.6751  -35.6255  -38.1459 H         1 UNK         0.0828 
    110 H110       21.6527  -32.7402  -39.5400 H         1 UNK         0.2931 
    111 H111       19.9861  -34.6921  -40.7115 H         1 UNK         0.0412 
    112 H112       18.3945  -36.1491  -39.8825 H         1 UNK         0.3472 
    113 H113       18.3129  -36.5582  -38.1889 H         1 UNK         0.3472 
    114 H114       18.0891  -33.1636  -40.0139 H         1 UNK         0.0970 
    115 H115       19.2084  -32.2336  -39.0598 H         1 UNK         0.0970 
    116 H116       18.5010  -33.4342  -42.8737 H         1 UNK         0.0612 
    117 H117       17.3242  -32.3837  -42.1165 H         1 UNK         0.0612 
@<TRIPOS>BOND
     1    1    2 1    
     2    1   62 1    
     3    1   63 1    
     4    1   64 1    
     5    2    3 2    
     6    2    4 am   BACKBONE|DICT|INTERRES
     7    4    5 1    
     8    4   65 1    
     9    5    6 1    
    10    5   25 1    
    11    5   66 1    
    12    6    7 1    
    13    6   67 1    
    14    6   68 1    
    15    7    8 1    
    16    8    9 1    
    17    8   69 1    
    18    8   70 1    
    19    9   10 ar   
    20    9   14 ar   
    21   10   11 ar   
    22   10   71 1    
    23   11   12 ar   
    24   11   61 1    
    25   12   13 ar   
    26   12   72 1    
    27   13   14 ar   
    28   13   15 1    
    29   14   73 1    
    30   15   16 1    
    31   15   74 1    
    32   15   75 1    
    33   16   17 1    
    34   17   18 1    
    35   17   76 1    
    36   17   77 1    
    37   18   19 1    
    38   18   27 1    
    39   18   78 1    
    40   19   20 am   BACKBONE|DICT|INTERRES
    41   19   79 1    
    42   20   21 2    
    43   20   22 1    
    44   22   23 1    
    45   22   24 1    
    46   22   80 1    
    47   23   81 1    
    48   23   82 1    
    49   23   83 1    
    50   24   25 am   BACKBONE|DICT|INTERRES
    51   24   84 1    
    52   25   26 2    
    53   27   28 2    
    54   27   29 am   BACKBONE|DICT|INTERRES
    55   29   30 1    
    56   29   85 1    
    57   30   31 1    
    58   30   32 1    
    59   30   86 1    
    60   31   87 1    
    61   31   88 1    
    62   31   89 1    
    63   32   33 2    
    64   32   34 am   BACKBONE|DICT|INTERRES
    65   34   35 1    
    66   34   90 1    
    67   35   36 1    
    68   35   37 1    
    69   35   91 1    
    70   36   92 1    
    71   36   93 1    
    72   36   94 1    
    73   37   38 2    
    74   37   39 am   BACKBONE|DICT|INTERRES
    75   39   40 1    
    76   39   95 1    
    77   40   41 1    
    78   40   42 1    
    79   40   96 1    
    80   41   97 1    
    81   41   98 1    
    82   41   99 1    
    83   42   43 2    
    84   42   44 am   BACKBONE|DICT|INTERRES
    85   44   45 1    
    86   44  100 1    
    87   45   46 1    
    88   45   47 1    
    89   45  101 1    
    90   46  102 1    
    91   46  103 1    
    92   46  104 1    
    93   47   48 2    
    94   47   49 am   BACKBONE|DICT|INTERRES
    95   49   50 1    
    96   49  105 1    
    97   50   51 1    
    98   50   52 1    
    99   50  106 1    
   100   51  107 1    
   101   51  108 1    
   102   51  109 1    
   103   52   53 2    
   104   52   54 am   BACKBONE|DICT|INTERRES
   105   54   55 1    
   106   54  110 1    
   107   55   56 1    
   108   55   59 1    
   109   55  111 1    
   110   56   57 am   BACKBONE|DICT|INTERRES
   111   56   58 2    
   112   57  112 1    
   113   57  113 1    
   114   59   60 1    
   115   59  114 1    
   116   59  115 1    
   117   60   61 1    
   118   61  116 1    
   119   61  117 1    
@<TRIPOS>SUBSTRUCTURE
     1 UNK         1 GROUP             0       ****    0 ROOT    
