@<TRIPOS>MOLECULE
3R8
117   119    1
SMALL
USER_CHARGES


@<TRIPOS>ATOM
      1 CA         17.1793  -28.4080  -42.5239 C.3       0 UNK        -0.2013 
      2 C          16.7599  -27.6105  -43.7448 C.2       0 UNK         0.4866 
      3 O          15.9335  -26.7032  -43.6359 O.2       0 UNK        -0.5176 
      4 N          17.3250  -27.9334  -44.9132 N.am      1 UNK        -0.4884 
      5 CA         16.9910  -27.3399  -46.2141 C.3       1 UNK         0.0853 
      6 C6         17.2615  -28.3198  -47.3890 C.3       10 UNK        -0.0849 
      7 S7         16.5196  -29.9740  -47.1384 S.3       10 UNK        -0.2776 
      8 C8         17.9861  -31.0594  -47.0770 C.3       10 UNK         0.0316 
      9 C9         18.8038  -30.8753  -45.8038 C.ar      10 UNK        -0.0863 
     10 C10        18.5273  -31.6372  -44.6644 C.ar      10 UNK        -0.1009 
     11 C11        19.3112  -31.5041  -43.5134 C.ar      10 UNK        -0.0712 
     12 C12        20.3500  -30.5671  -43.4945 C.ar      10 UNK        -0.0894 
     13 C13        20.6189  -29.7737  -44.6134 C.ar      10 UNK        -0.0745 
     14 C14        19.8648  -29.9667  -45.7764 C.ar      10 UNK        -0.0972 
     15 C15        21.7345  -28.7308  -44.5559 C.3       10 UNK         0.0209 
     16 S16        21.3013  -27.1997  -45.4518 S.3       10 UNK        -0.2568 
     17 C17        22.0780  -25.8851  -44.4509 C.3       10 UNK        -0.0983 
     18 CA         21.1187  -25.1926  -43.4384 C.3       3 UNK         0.0876 
     19 N          19.8188  -24.8401  -44.0020 N.am      3 UNK        -0.4424 
     20 C          19.5542  -23.8639  -44.8737 C.2       2 UNK         0.4918 
     21 O          20.4055  -23.0895  -45.3142 O.2       2 UNK        -0.4875 
     22 CA         18.0779  -23.7330  -45.3055 C.3       2 UNK         0.0481 
     23 CB         17.8811  -22.8281  -46.5406 C.3       2 UNK        -0.1831 
     24 N          17.4276  -25.0400  -45.4795 N.am      2 UNK        -0.4498 
     25 C          17.7070  -25.9810  -46.3954 C.2       1 UNK         0.5027 
     26 O          18.5030  -25.8210  -47.3223 O.2       1 UNK        -0.4969 
     27 C          20.8592  -26.0517  -42.1899 C.2       3 UNK         0.5005 
     28 O          19.7432  -26.5457  -42.0057 O.2       3 UNK        -0.5279 
     29 N          21.8902  -26.2172  -41.3578 N.am      4 UNK        -0.4463 
     30 CA         21.8812  -27.0364  -40.1513 C.3       4 UNK         0.0283 
     31 CB         21.2722  -26.2463  -38.9793 C.3       4 UNK        -0.1875 
     32 C          23.3225  -27.4509  -39.8457 C.2       4 UNK         0.4949 
     33 O          24.2581  -26.7909  -40.3070 O.2       4 UNK        -0.5039 
     34 N          23.4706  -28.5441  -39.0892 N.am      5 UNK        -0.4663 
     35 CA         24.7026  -29.2196  -38.6546 C.3       5 UNK         0.0242 
     36 CB         25.5811  -28.2936  -37.7916 C.3       5 UNK        -0.1982 
     37 C          25.5206  -29.8612  -39.7911 C.2       5 UNK         0.5017 
     38 O          25.9438  -31.0085  -39.6467 O.2       5 UNK        -0.5012 
     39 N          25.7107  -29.1275  -40.8960 N.am      6 UNK        -0.4439 
     40 CA         26.5261  -29.4744  -42.0666 C.3       6 UNK         0.0297 
     41 CB         26.4590  -28.3177  -43.0774 C.3       6 UNK        -0.2006 
     42 C          26.1617  -30.8020  -42.7567 C.2       6 UNK         0.4892 
     43 O          27.0416  -31.4318  -43.3448 O.2       6 UNK        -0.5089 
     44 N          24.8906  -31.2059  -42.6640 N.am      7 UNK        -0.4243 
     45 CA         24.3775  -32.4887  -43.1430 C.3       7 UNK         0.0196 
     46 CB         23.8286  -32.3292  -44.5748 C.3       7 UNK        -0.2007 
     47 C          23.3326  -33.0172  -42.1491 C.2       7 UNK         0.5020 
     48 O          22.2989  -33.5334  -42.5710 O.2       7 UNK        -0.5147 
     49 N          23.6131  -32.8418  -40.8475 N.am      8 UNK        -0.4734 
     50 CA         22.6832  -32.9588  -39.7154 C.3       8 UNK         0.0238 
     51 CB         22.0434  -34.3637  -39.6246 C.3       8 UNK        -0.1912 
     52 C          21.6652  -31.7998  -39.7219 C.2       8 UNK         0.5038 
     53 O          21.9733  -30.7376  -40.2659 O.2       8 UNK        -0.5046 
     54 N          20.4982  -31.9912  -39.0906 N.am      9 UNK        -0.4200 
     55 CA         19.4450  -30.9721  -38.8992 C.3       9 UNK         0.0839 
     56 C          19.8578  -29.7860  -37.9704 C.2       9 UNK         0.5513 
     57 N          20.9392  -29.8851  -37.2046 N.am      9 UNK        -0.7519 
     58 O          19.1719  -28.7697  -37.9140 O.2       9 UNK        -0.4960 
     59 C59        18.8040  -30.4827  -40.2340 C.3       10 UNK        -0.0876 
     60 S60        17.8727  -31.7808  -41.1203 S.3       10 UNK        -0.2414 
     61 C61        19.0800  -32.4234  -42.3209 C.3       10 UNK         0.0169 
     62 H62        17.2752  -27.7539  -41.6576 H         1 UNK         0.0903 
     63 H63        16.4374  -29.1732  -42.2981 H         1 UNK         0.0903 
     64 H64        18.1409  -28.8938  -42.6821 H         1 UNK         0.0903 
     65 H65        18.0068  -28.6810  -44.9455 H         1 UNK         0.3096 
     66 H66        15.9193  -27.1275  -46.2236 H         1 UNK         0.1121 
     67 H67        18.3297  -28.4225  -47.5758 H         1 UNK         0.0849 
     68 H68        16.8468  -27.9093  -48.3114 H         1 UNK         0.0849 
     69 H69        17.6540  -32.0962  -47.1496 H         1 UNK         0.0865 
     70 H70        18.6069  -30.8848  -47.9573 H         1 UNK         0.0865 
     71 H71        17.7215  -32.3585  -44.6834 H         1 UNK         0.1346 
     72 H72        20.9628  -30.4665  -42.6105 H         1 UNK         0.1412 
     73 H73        20.1014  -29.3967  -46.6633 H         1 UNK         0.1426 
     74 H74        22.6453  -29.1501  -44.9846 H         1 UNK         0.0716 
     75 H75        21.9600  -28.4900  -43.5163 H         1 UNK         0.0716 
     76 H76        22.4439  -25.1344  -45.1527 H         1 UNK         0.0695 
     77 H77        22.9718  -26.2742  -43.9598 H         1 UNK         0.0695 
     78 H78        21.5874  -24.2691  -43.0915 H         1 UNK         0.0983 
     79 H79        19.0692  -25.4247  -43.6532 H         1 UNK         0.3095 
     80 H80        17.5635  -23.2553  -44.4706 H         1 UNK         0.0454 
     81 H81        18.4374  -23.1902  -47.4055 H         1 UNK         0.0851 
     82 H82        18.2278  -21.8142  -46.3380 H         1 UNK         0.0851 
     83 H83        16.8302  -22.7599  -46.8206 H         1 UNK         0.0851 
     84 H84        16.7739  -25.3108  -44.7489 H         1 UNK         0.2976 
     85 H85        22.7978  -25.8211  -41.5740 H         1 UNK         0.3116 
     86 H86        21.2933  -27.9396  -40.3317 H         1 UNK         0.0646 
     87 H87        20.2292  -25.9944  -39.1716 H         1 UNK         0.0847 
     88 H88        21.8146  -25.3186  -38.7931 H         1 UNK         0.0847 
     89 H89        21.2950  -26.8290  -38.0578 H         1 UNK         0.0847 
     90 H90        22.6224  -29.0495  -38.8619 H         1 UNK         0.3040 
     91 H91        24.3728  -30.0407  -38.0157 H         1 UNK         0.1015 
     92 H92        25.9684  -27.4473  -38.3596 H         1 UNK         0.0786 
     93 H93        26.4403  -28.8346  -37.3929 H         1 UNK         0.0786 
     94 H94        25.0240  -27.8994  -36.9416 H         1 UNK         0.0786 
     95 H95        25.3041  -28.1941  -40.8813 H         1 UNK         0.3172 
     96 H96        27.5573  -29.5656  -41.7197 H         1 UNK         0.0595 
     97 H97        25.4408  -28.1502  -43.4314 H         1 UNK         0.0839 
     98 H98        27.0783  -28.5246  -43.9516 H         1 UNK         0.0839 
     99 H99        26.8199  -27.3861  -42.6410 H         1 UNK         0.0839 
    100 H100       24.2391  -30.6354  -42.1412 H         1 UNK         0.2998 
    101 H101       25.1836  -33.2255  -43.1610 H         1 UNK         0.0822 
    102 H102       24.5908  -31.9456  -45.2530 H         1 UNK         0.0787 
    103 H103       23.4927  -33.2870  -44.9740 H         1 UNK         0.0787 
    104 H104       22.9782  -31.6481  -44.6044 H         1 UNK         0.0787 
    105 H105       24.4989  -32.4034  -40.6204 H         1 UNK         0.3055 
    106 H106       23.2911  -32.8165  -38.8205 H         1 UNK         0.1106 
    107 H107       21.2771  -34.5175  -40.3852 H         1 UNK         0.0828 
    108 H108       21.5760  -34.5245  -38.6527 H         1 UNK         0.0828 
    109 H109       22.7926  -35.1459  -39.7468 H         1 UNK         0.0828 
    110 H110       20.3188  -32.8871  -38.6619 H         1 UNK         0.2931 
    111 H111       18.6599  -31.4812  -38.3391 H         1 UNK         0.0412 
    112 H112       21.4664  -30.7420  -37.1708 H         1 UNK         0.3472 
    113 H113       21.1643  -29.1292  -36.5772 H         1 UNK         0.3472 
    114 H114       19.5464  -30.0250  -40.8848 H         1 UNK         0.0970 
    115 H115       18.0792  -29.6927  -40.0321 H         1 UNK         0.0970 
    116 H116       20.0195  -32.6272  -41.8145 H         1 UNK         0.0612 
    117 H117       18.7248  -33.3916  -42.6764 H         1 UNK         0.0612 
@<TRIPOS>BOND
     1    1    2 1    
     2    1   62 1    
     3    1   63 1    
     4    1   64 1    
     5    2    3 2    
     6    2    4 am   BACKBONE|DICT|INTERRES
     7    4    5 1    
     8    4   65 1    
     9    5    6 1    
    10    5   25 1    
    11    5   66 1    
    12    6    7 1    
    13    6   67 1    
    14    6   68 1    
    15    7    8 1    
    16    8    9 1    
    17    8   69 1    
    18    8   70 1    
    19    9   10 ar   
    20    9   14 ar   
    21   10   11 ar   
    22   10   71 1    
    23   11   12 ar   
    24   11   61 1    
    25   12   13 ar   
    26   12   72 1    
    27   13   14 ar   
    28   13   15 1    
    29   14   73 1    
    30   15   16 1    
    31   15   74 1    
    32   15   75 1    
    33   16   17 1    
    34   17   18 1    
    35   17   76 1    
    36   17   77 1    
    37   18   19 1    
    38   18   27 1    
    39   18   78 1    
    40   19   20 am   BACKBONE|DICT|INTERRES
    41   19   79 1    
    42   20   21 2    
    43   20   22 1    
    44   22   23 1    
    45   22   24 1    
    46   22   80 1    
    47   23   81 1    
    48   23   82 1    
    49   23   83 1    
    50   24   25 am   BACKBONE|DICT|INTERRES
    51   24   84 1    
    52   25   26 2    
    53   27   28 2    
    54   27   29 am   BACKBONE|DICT|INTERRES
    55   29   30 1    
    56   29   85 1    
    57   30   31 1    
    58   30   32 1    
    59   30   86 1    
    60   31   87 1    
    61   31   88 1    
    62   31   89 1    
    63   32   33 2    
    64   32   34 am   BACKBONE|DICT|INTERRES
    65   34   35 1    
    66   34   90 1    
    67   35   36 1    
    68   35   37 1    
    69   35   91 1    
    70   36   92 1    
    71   36   93 1    
    72   36   94 1    
    73   37   38 2    
    74   37   39 am   BACKBONE|DICT|INTERRES
    75   39   40 1    
    76   39   95 1    
    77   40   41 1    
    78   40   42 1    
    79   40   96 1    
    80   41   97 1    
    81   41   98 1    
    82   41   99 1    
    83   42   43 2    
    84   42   44 am   BACKBONE|DICT|INTERRES
    85   44   45 1    
    86   44  100 1    
    87   45   46 1    
    88   45   47 1    
    89   45  101 1    
    90   46  102 1    
    91   46  103 1    
    92   46  104 1    
    93   47   48 2    
    94   47   49 am   BACKBONE|DICT|INTERRES
    95   49   50 1    
    96   49  105 1    
    97   50   51 1    
    98   50   52 1    
    99   50  106 1    
   100   51  107 1    
   101   51  108 1    
   102   51  109 1    
   103   52   53 2    
   104   52   54 am   BACKBONE|DICT|INTERRES
   105   54   55 1    
   106   54  110 1    
   107   55   56 1    
   108   55   59 1    
   109   55  111 1    
   110   56   57 am   BACKBONE|DICT|INTERRES
   111   56   58 2    
   112   57  112 1    
   113   57  113 1    
   114   59   60 1    
   115   59  114 1    
   116   59  115 1    
   117   60   61 1    
   118   61  116 1    
   119   61  117 1    
@<TRIPOS>SUBSTRUCTURE
     1 UNK         1 GROUP             0       ****    0 ROOT    
