@<TRIPOS>MOLECULE
3R8
117   119    1
SMALL
USER_CHARGES


@<TRIPOS>ATOM
      1 CA         16.5044  -23.6882  -47.8274 C.3       0 UNK        -0.2013 
      2 C          17.6226  -24.5936  -47.3328 C.2       0 UNK         0.4866 
      3 O          18.7951  -24.3088  -47.5788 O.2       0 UNK        -0.5176 
      4 N          17.2704  -25.6864  -46.6435 N.am      1 UNK        -0.4884 
      5 CA         18.2126  -26.6286  -46.0332 C.3       1 UNK         0.0853 
      6 C6         17.5190  -27.9737  -45.7164 C.3       10 UNK        -0.0849 
      7 S7         18.6970  -29.3565  -45.5487 S.3       10 UNK        -0.2776 
      8 C8         17.5560  -30.7247  -45.1479 C.3       10 UNK         0.0316 
      9 C9         17.5824  -31.0765  -43.6660 C.ar      10 UNK        -0.0863 
     10 C10        17.8793  -32.3798  -43.2558 C.ar      10 UNK        -0.1009 
     11 C11        17.9371  -32.6978  -41.8957 C.ar      10 UNK        -0.0712 
     12 C12        17.6947  -31.7008  -40.9434 C.ar      10 UNK        -0.0894 
     13 C13        17.3917  -30.3919  -41.3345 C.ar      10 UNK        -0.0745 
     14 C14        17.3158  -30.1002  -42.7014 C.ar      10 UNK        -0.0972 
     15 C15        17.1337  -29.3318  -40.2595 C.3       10 UNK         0.0209 
     16 S16        17.3674  -27.5993  -40.8108 S.3       10 UNK        -0.2568 
     17 C17        18.6905  -26.9750  -39.7201 C.3       10 UNK        -0.0983 
     18 CA         20.0856  -26.9527  -40.3931 C.3       3 UNK         0.0876 
     19 N          20.0945  -26.2174  -41.6693 N.am      3 UNK        -0.4424 
     20 C          21.1575  -26.0768  -42.4729 C.2       2 UNK         0.4918 
     21 O          22.2583  -26.5770  -42.2337 O.2       2 UNK        -0.4875 
     22 CA         20.9652  -25.2173  -43.7329 C.3       2 UNK         0.0481 
     23 CB         22.3068  -24.7755  -44.3457 C.3       2 UNK        -0.1831 
     24 N          20.1867  -25.9147  -44.7555 N.am      2 UNK        -0.4498 
     25 C          18.8503  -25.9853  -44.7834 C.2       1 UNK         0.5027 
     26 O          18.1246  -25.5396  -43.8902 O.2       1 UNK        -0.4969 
     27 C          21.1465  -26.4341  -39.3955 C.2       3 UNK         0.5005 
     28 O          21.7605  -27.2319  -38.6861 O.2       3 UNK        -0.5279 
     29 N          21.3848  -25.1130  -39.4037 N.am      4 UNK        -0.4463 
     30 CA         22.4171  -24.4280  -38.6180 C.3       4 UNK         0.0283 
     31 CB         22.2036  -22.9095  -38.7243 C.3       4 UNK        -0.1875 
     32 C          23.8609  -24.7928  -39.0177 C.2       4 UNK         0.4949 
     33 O          24.7656  -24.6258  -38.2007 O.2       4 UNK        -0.5039 
     34 N          24.0537  -25.3017  -40.2428 N.am      5 UNK        -0.4663 
     35 CA         25.3285  -25.8050  -40.7632 C.3       5 UNK         0.0242 
     36 CB         25.4989  -25.3231  -42.2158 C.3       5 UNK        -0.1982 
     37 C          25.4161  -27.3411  -40.6563 C.2       5 UNK         0.5017 
     38 O          26.1796  -27.9551  -41.4019 O.2       5 UNK        -0.5012 
     39 N          24.6276  -27.9299  -39.7436 N.am      6 UNK        -0.4439 
     40 CA         24.4828  -29.3612  -39.4509 C.3       6 UNK         0.0297 
     41 CB         25.8338  -30.0227  -39.1006 C.3       6 UNK        -0.2006 
     42 C          23.6850  -30.1492  -40.5090 C.2       6 UNK         0.4892 
     43 O          23.6849  -31.3798  -40.4481 O.2       6 UNK        -0.5089 
     44 N          22.9764  -29.4351  -41.3999 N.am      7 UNK        -0.4243 
     45 CA         22.0362  -29.9228  -42.4166 C.3       7 UNK         0.0196 
     46 CB         20.9109  -30.7419  -41.7596 C.3       7 UNK        -0.2007 
     47 C          22.6779  -30.7150  -43.5681 C.2       7 UNK         0.5020 
     48 O          23.8424  -31.1127  -43.5074 O.2       7 UNK        -0.5147 
     49 N          21.8729  -30.9543  -44.6127 N.am      8 UNK        -0.4734 
     50 CA         22.2381  -31.7932  -45.7587 C.3       8 UNK         0.0238 
     51 CB         21.2688  -31.5216  -46.9203 C.3       8 UNK        -0.1912 
     52 C          22.2637  -33.2957  -45.4241 C.2       8 UNK         0.5038 
     53 O          22.9177  -34.0533  -46.1419 O.2       8 UNK        -0.5046 
     54 N          21.5597  -33.7004  -44.3567 N.am      9 UNK        -0.4200 
     55 CA         21.5388  -35.0782  -43.8446 C.3       9 UNK         0.0839 
     56 C          22.8255  -35.5142  -43.0810 C.2       9 UNK         0.5513 
     57 N          23.7598  -34.6204  -42.7762 N.am      9 UNK        -0.7519 
     58 O          22.9846  -36.6933  -42.7752 O.2       9 UNK        -0.4960 
     59 C59        20.2380  -35.3823  -43.0541 C.3       10 UNK        -0.0876 
     60 S60        20.0552  -34.4398  -41.4973 S.3       10 UNK        -0.2414 
     61 C61        18.2638  -34.1152  -41.4497 C.3       10 UNK         0.0169 
     62 H62        16.6157  -22.6900  -47.4048 H         1 UNK         0.0903 
     63 H63        16.5419  -23.6047  -48.9133 H         1 UNK         0.0903 
     64 H64        15.5202  -24.0657  -47.5505 H         1 UNK         0.0903 
     65 H65        16.2941  -25.8494  -46.4407 H         1 UNK         0.3096 
     66 H66        18.9973  -26.8193  -46.7696 H         1 UNK         0.1121 
     67 H67        16.8870  -27.8912  -44.8317 H         1 UNK         0.0849 
     68 H68        16.8469  -28.2379  -46.5350 H         1 UNK         0.0849 
     69 H69        17.8381  -31.5897  -45.7501 H         1 UNK         0.0865 
     70 H70        16.5359  -30.4737  -45.4416 H         1 UNK         0.0865 
     71 H71        18.0760  -33.1465  -43.9922 H         1 UNK         0.1346 
     72 H72        17.7480  -31.9450  -39.8911 H         1 UNK         0.1412 
     73 H73        17.0690  -29.1016  -43.0231 H         1 UNK         0.1426 
     74 H74        17.7705  -29.5327  -39.3973 H         1 UNK         0.0716 
     75 H75        16.1061  -29.4419  -39.9111 H         1 UNK         0.0716 
     76 H76        18.7140  -27.5656  -38.8025 H         1 UNK         0.0695 
     77 H77        18.4056  -25.9663  -39.4146 H         1 UNK         0.0695 
     78 H78        20.3584  -27.9813  -40.6272 H         1 UNK         0.0983 
     79 H79        19.2063  -25.8404  -41.9800 H         1 UNK         0.3095 
     80 H80        20.4319  -24.3119  -43.4350 H         1 UNK         0.0454 
     81 H81        22.1541  -24.1154  -45.1997 H         1 UNK         0.0851 
     82 H82        22.9011  -25.6261  -44.6820 H         1 UNK         0.0851 
     83 H83        22.9049  -24.2253  -43.6184 H         1 UNK         0.0851 
     84 H84        20.7123  -26.3284  -45.5122 H         1 UNK         0.2976 
     85 H85        20.8303  -24.5371  -40.0212 H         1 UNK         0.3116 
     86 H86        22.2869  -24.7192  -37.5735 H         1 UNK         0.0646 
     87 H87        22.9360  -22.3693  -38.1225 H         1 UNK         0.0847 
     88 H88        21.2165  -22.6194  -38.3637 H         1 UNK         0.0847 
     89 H89        22.3049  -22.5574  -39.7517 H         1 UNK         0.0847 
     90 H90        23.2498  -25.4617  -40.8397 H         1 UNK         0.3040 
     91 H91        26.1563  -25.3996  -40.1772 H         1 UNK         0.1015 
     92 H92        25.3822  -24.2422  -42.2940 H         1 UNK         0.0786 
     93 H93        24.7742  -25.7908  -42.8824 H         1 UNK         0.0786 
     94 H94        26.4919  -25.5677  -42.5951 H         1 UNK         0.0786 
     95 H95        24.0019  -27.3302  -39.2187 H         1 UNK         0.3172 
     96 H96        23.8702  -29.3991  -38.5489 H         1 UNK         0.0595 
     97 H97        26.4737  -30.1302  -39.9766 H         1 UNK         0.0839 
     98 H98        25.6828  -31.0224  -38.6914 H         1 UNK         0.0839 
     99 H99        26.3782  -29.4474  -38.3519 H         1 UNK         0.0839 
    100 H100       23.0878  -28.4287  -41.3845 H         1 UNK         0.2998 
    101 H101       21.5862  -29.0356  -42.8618 H         1 UNK         0.0822 
    102 H102       21.2642  -31.7098  -41.4046 H         1 UNK         0.0787 
    103 H103       20.4635  -30.2250  -40.9125 H         1 UNK         0.0787 
    104 H104       20.1151  -30.9334  -42.4743 H         1 UNK         0.0787 
    105 H105       20.9341  -30.5772  -44.6092 H         1 UNK         0.3055 
    106 H106       23.2444  -31.5155  -46.0811 H         1 UNK         0.1106 
    107 H107       21.2645  -30.4675  -47.1982 H         1 UNK         0.0828 
    108 H108       21.5561  -32.0874  -47.8076 H         1 UNK         0.0828 
    109 H109       20.2472  -31.8088  -46.6701 H         1 UNK         0.0828 
    110 H110       21.0715  -33.0125  -43.8036 H         1 UNK         0.2931 
    111 H111       21.5064  -35.7288  -44.7210 H         1 UNK         0.0412 
    112 H112       23.6400  -33.6457  -43.0092 H         1 UNK         0.3472 
    113 H113       24.5862  -34.9204  -42.2839 H         1 UNK         0.3472 
    114 H114       19.3795  -35.1911  -43.6987 H         1 UNK         0.0970 
    115 H115       20.1853  -36.4456  -42.8130 H         1 UNK         0.0970 
    116 H116       17.7249  -34.8383  -42.0634 H         1 UNK         0.0612 
    117 H117       17.9150  -34.2739  -40.4282 H         1 UNK         0.0612 
@<TRIPOS>BOND
     1    1    2 1    
     2    1   62 1    
     3    1   63 1    
     4    1   64 1    
     5    2    3 2    
     6    2    4 am   BACKBONE|DICT|INTERRES
     7    4    5 1    
     8    4   65 1    
     9    5    6 1    
    10    5   25 1    
    11    5   66 1    
    12    6    7 1    
    13    6   67 1    
    14    6   68 1    
    15    7    8 1    
    16    8    9 1    
    17    8   69 1    
    18    8   70 1    
    19    9   10 ar   
    20    9   14 ar   
    21   10   11 ar   
    22   10   71 1    
    23   11   12 ar   
    24   11   61 1    
    25   12   13 ar   
    26   12   72 1    
    27   13   14 ar   
    28   13   15 1    
    29   14   73 1    
    30   15   16 1    
    31   15   74 1    
    32   15   75 1    
    33   16   17 1    
    34   17   18 1    
    35   17   76 1    
    36   17   77 1    
    37   18   19 1    
    38   18   27 1    
    39   18   78 1    
    40   19   20 am   BACKBONE|DICT|INTERRES
    41   19   79 1    
    42   20   21 2    
    43   20   22 1    
    44   22   23 1    
    45   22   24 1    
    46   22   80 1    
    47   23   81 1    
    48   23   82 1    
    49   23   83 1    
    50   24   25 am   BACKBONE|DICT|INTERRES
    51   24   84 1    
    52   25   26 2    
    53   27   28 2    
    54   27   29 am   BACKBONE|DICT|INTERRES
    55   29   30 1    
    56   29   85 1    
    57   30   31 1    
    58   30   32 1    
    59   30   86 1    
    60   31   87 1    
    61   31   88 1    
    62   31   89 1    
    63   32   33 2    
    64   32   34 am   BACKBONE|DICT|INTERRES
    65   34   35 1    
    66   34   90 1    
    67   35   36 1    
    68   35   37 1    
    69   35   91 1    
    70   36   92 1    
    71   36   93 1    
    72   36   94 1    
    73   37   38 2    
    74   37   39 am   BACKBONE|DICT|INTERRES
    75   39   40 1    
    76   39   95 1    
    77   40   41 1    
    78   40   42 1    
    79   40   96 1    
    80   41   97 1    
    81   41   98 1    
    82   41   99 1    
    83   42   43 2    
    84   42   44 am   BACKBONE|DICT|INTERRES
    85   44   45 1    
    86   44  100 1    
    87   45   46 1    
    88   45   47 1    
    89   45  101 1    
    90   46  102 1    
    91   46  103 1    
    92   46  104 1    
    93   47   48 2    
    94   47   49 am   BACKBONE|DICT|INTERRES
    95   49   50 1    
    96   49  105 1    
    97   50   51 1    
    98   50   52 1    
    99   50  106 1    
   100   51  107 1    
   101   51  108 1    
   102   51  109 1    
   103   52   53 2    
   104   52   54 am   BACKBONE|DICT|INTERRES
   105   54   55 1    
   106   54  110 1    
   107   55   56 1    
   108   55   59 1    
   109   55  111 1    
   110   56   57 am   BACKBONE|DICT|INTERRES
   111   56   58 2    
   112   57  112 1    
   113   57  113 1    
   114   59   60 1    
   115   59  114 1    
   116   59  115 1    
   117   60   61 1    
   118   61  116 1    
   119   61  117 1    
@<TRIPOS>SUBSTRUCTURE
     1 UNK         1 GROUP             0       ****    0 ROOT    
