@<TRIPOS>MOLECULE
3R8
117   119    1
SMALL
USER_CHARGES


@<TRIPOS>ATOM
      1 CA         11.3142  -25.6049  -46.0914 C.3       0 UNK        -0.2013 
      2 C          12.7493  -25.9518  -46.4588 C.2       0 UNK         0.4866 
      3 O          13.1686  -25.7072  -47.5909 O.2       0 UNK        -0.5176 
      4 N          13.5021  -26.5292  -45.5151 N.am      1 UNK        -0.4884 
      5 CA         14.9218  -26.8644  -45.6603 C.3       1 UNK         0.0853 
      6 C6         15.3921  -27.9087  -44.6059 C.3       10 UNK        -0.0849 
      7 S7         14.8461  -27.5982  -42.8844 S.3       10 UNK        -0.2776 
      8 C8         16.1984  -26.5830  -42.1830 C.3       10 UNK         0.0316 
      9 C9         17.4737  -27.3163  -41.7574 C.ar      10 UNK        -0.0863 
     10 C10        17.7527  -28.6476  -42.0994 C.ar      10 UNK        -0.1009 
     11 C11        18.9506  -29.2488  -41.7000 C.ar      10 UNK        -0.0712 
     12 C12        19.8652  -28.5248  -40.9320 C.ar      10 UNK        -0.0894 
     13 C13        19.6143  -27.1926  -40.6029 C.ar      10 UNK        -0.0745 
     14 C14        18.4161  -26.5993  -41.0106 C.ar      10 UNK        -0.0972 
     15 C15        20.6662  -26.3851  -39.8563 C.3       10 UNK         0.0209 
     16 S16        22.1133  -26.0355  -40.9118 S.3       10 UNK        -0.2568 
     17 C17        21.3725  -25.0145  -42.2320 C.3       10 UNK        -0.0983 
     18 CA         20.9861  -25.8480  -43.4810 C.3       3 UNK         0.0876 
     19 N          19.9881  -25.1592  -44.2997 N.am      3 UNK        -0.4424 
     20 C          19.2385  -25.7706  -45.2226 C.2       2 UNK         0.4918 
     21 O          19.3351  -26.9682  -45.5053 O.2       2 UNK        -0.4875 
     22 CA         18.1899  -24.9142  -45.9438 C.3       2 UNK         0.0481 
     23 CB         18.7317  -24.4068  -47.2895 C.3       2 UNK        -0.1831 
     24 N          17.0365  -25.7778  -46.1754 N.am      2 UNK        -0.4498 
     25 C          15.8232  -25.6124  -45.6398 C.2       1 UNK         0.5027 
     26 O          15.4442  -24.5735  -45.0914 O.2       1 UNK        -0.4969 
     27 C          22.2180  -26.2385  -44.3200 C.2       3 UNK         0.5005 
     28 O          22.7870  -25.3817  -45.0009 O.2       3 UNK        -0.5279 
     29 N          22.6209  -27.5125  -44.2271 N.am      4 UNK        -0.4463 
     30 CA         23.8199  -28.0601  -44.8689 C.3       4 UNK         0.0283 
     31 CB         23.5616  -29.5328  -45.2321 C.3       4 UNK        -0.1875 
     32 C          25.0772  -27.9368  -43.9870 C.2       4 UNK         0.4949 
     33 O          26.1275  -28.4456  -44.3770 O.2       4 UNK        -0.5039 
     34 N          24.9492  -27.3274  -42.7978 N.am      5 UNK        -0.4663 
     35 CA         25.9550  -27.1227  -41.7407 C.3       5 UNK         0.0242 
     36 CB         27.1719  -26.3312  -42.2593 C.3       5 UNK        -0.1982 
     37 C          26.3940  -28.4036  -41.0035 C.2       5 UNK         0.5017 
     38 O          26.7547  -28.3186  -39.8287 O.2       5 UNK        -0.5012 
     39 N          26.3407  -29.5585  -41.6786 N.am      6 UNK        -0.4439 
     40 CA         26.5371  -30.8933  -41.1128 C.3       6 UNK         0.0297 
     41 CB         26.5408  -31.9231  -42.2543 C.3       6 UNK        -0.2006 
     42 C          25.4464  -31.2423  -40.0859 C.2       6 UNK         0.4892 
     43 O          24.2923  -30.8389  -40.2599 O.2       6 UNK        -0.5089 
     44 N          25.8311  -32.0083  -39.0552 N.am      7 UNK        -0.4243 
     45 CA         24.9657  -32.4705  -37.9662 C.3       7 UNK         0.0196 
     46 CB         25.7945  -33.3014  -36.9723 C.3       7 UNK        -0.2007 
     47 C          23.7689  -33.2760  -38.4958 C.2       7 UNK         0.5020 
     48 O          23.9666  -34.3444  -39.0785 O.2       7 UNK        -0.5147 
     49 N          22.5639  -32.7086  -38.3395 N.am      8 UNK        -0.4734 
     50 CA         21.2789  -33.2021  -38.8573 C.3       8 UNK         0.0238 
     51 CB         20.8452  -34.4721  -38.0940 C.3       8 UNK        -0.1912 
     52 C          21.2593  -33.3990  -40.3896 C.2       8 UNK         0.5038 
     53 O          20.5091  -34.2444  -40.8804 O.2       8 UNK        -0.5046 
     54 N          22.0864  -32.6266  -41.1120 N.am      9 UNK        -0.4200 
     55 CA         22.3469  -32.7494  -42.5558 C.3       9 UNK         0.0839 
     56 C          23.0548  -34.0788  -42.9652 C.2       9 UNK         0.5513 
     57 N          23.6821  -34.8096  -42.0496 N.am      9 UNK        -0.7519 
     58 O          23.0725  -34.4402  -44.1389 O.2       9 UNK        -0.4960 
     59 C59        21.1055  -32.4090  -43.4350 C.3       10 UNK        -0.0876 
     60 S60        20.6528  -30.6463  -43.3298 S.3       10 UNK        -0.2414 
     61 C61        19.2908  -30.6670  -42.1246 C.3       10 UNK         0.0169 
     62 H62        11.1504  -24.5323  -46.1926 H         1 UNK         0.0903 
     63 H63        10.6212  -26.1202  -46.7560 H         1 UNK         0.0903 
     64 H64        11.0757  -25.8890  -45.0665 H         1 UNK         0.0903 
     65 H65        13.1230  -26.6824  -44.5906 H         1 UNK         0.3096 
     66 H66        15.0443  -27.3182  -46.6470 H         1 UNK         0.1121 
     67 H67        14.9886  -28.8832  -44.8851 H         1 UNK         0.0849 
     68 H68        16.4758  -28.0386  -44.6318 H         1 UNK         0.0849 
     69 H69        16.4667  -25.7924  -42.8824 H         1 UNK         0.0865 
     70 H70        15.7908  -26.0766  -41.3067 H         1 UNK         0.0865 
     71 H71        17.0536  -29.2231  -42.6876 H         1 UNK         0.1346 
     72 H72        20.7985  -28.9843  -40.6347 H         1 UNK         0.1412 
     73 H73        18.2237  -25.5644  -40.7608 H         1 UNK         0.1426 
     74 H74        20.9943  -26.9432  -38.9783 H         1 UNK         0.0716 
     75 H75        20.2510  -25.4463  -39.4864 H         1 UNK         0.0716 
     76 H76        20.4920  -24.5181  -41.8210 H         1 UNK         0.0695 
     77 H77        22.0662  -24.2122  -42.4913 H         1 UNK         0.0695 
     78 H78        20.5102  -26.7696  -43.1405 H         1 UNK         0.0983 
     79 H79        19.8876  -24.1656  -44.1529 H         1 UNK         0.3095 
     80 H80        17.9251  -24.0614  -45.3151 H         1 UNK         0.0454 
     81 H81        19.0414  -25.2276  -47.9378 H         1 UNK         0.0851 
     82 H82        17.9802  -23.8247  -47.8231 H         1 UNK         0.0851 
     83 H83        19.5988  -23.7616  -47.1430 H         1 UNK         0.0851 
     84 H84        17.2790  -26.6869  -46.5480 H         1 UNK         0.2976 
     85 H85        22.0843  -28.1555  -43.6595 H         1 UNK         0.3116 
     86 H86        24.0168  -27.5150  -45.7944 H         1 UNK         0.0646 
     87 H87        24.3852  -29.9422  -45.8186 H         1 UNK         0.0847 
     88 H88        22.6559  -29.6449  -45.8285 H         1 UNK         0.0847 
     89 H89        23.4587  -30.1546  -44.3429 H         1 UNK         0.0847 
     90 H90        24.0259  -26.9868  -42.5653 H         1 UNK         0.3040 
     91 H91        25.4607  -26.5024  -40.9907 H         1 UNK         0.1015 
     92 H92        26.8661  -25.3972  -42.7306 H         1 UNK         0.0786 
     93 H93        27.7526  -26.9005  -42.9856 H         1 UNK         0.0786 
     94 H94        27.8450  -26.0755  -41.4400 H         1 UNK         0.0786 
     95 H95        26.0870  -29.5017  -42.6579 H         1 UNK         0.3172 
     96 H96        27.5101  -30.9098  -40.6174 H         1 UNK         0.0595 
     97 H97        27.3467  -31.7284  -42.9623 H         1 UNK         0.0839 
     98 H98        25.6010  -31.9163  -42.8074 H         1 UNK         0.0839 
     99 H99        26.6842  -32.9347  -41.8715 H         1 UNK         0.0839 
    100 H100       26.7919  -32.3167  -39.0199 H         1 UNK         0.2998 
    101 H101       24.5963  -31.5863  -37.4423 H         1 UNK         0.0822 
    102 H102       26.6047  -32.7136  -36.5403 H         1 UNK         0.0787 
    103 H103       25.1743  -33.6526  -36.1464 H         1 UNK         0.0787 
    104 H104       26.2326  -34.1807  -37.4468 H         1 UNK         0.0787 
    105 H105       22.5255  -31.8074  -37.8819 H         1 UNK         0.3055 
    106 H106       20.5421  -32.4241  -38.6506 H         1 UNK         0.1106 
    107 H107       21.5017  -35.3161  -38.3086 H         1 UNK         0.0828 
    108 H108       20.8496  -34.3092  -37.0164 H         1 UNK         0.0828 
    109 H109       19.8328  -34.7704  -38.3693 H         1 UNK         0.0828 
    110 H110       22.6920  -31.9726  -40.6252 H         1 UNK         0.2931 
    111 H111       23.0997  -31.9886  -42.7627 H         1 UNK         0.0412 
    112 H112       24.1437  -35.6586  -42.3342 H         1 UNK         0.3472 
    113 H113       23.6872  -34.5403  -41.0714 H         1 UNK         0.3472 
    114 H114       20.2500  -33.0372  -43.1846 H         1 UNK         0.0970 
    115 H115       21.3149  -32.6037  -44.4881 H         1 UNK         0.0970 
    116 H116       18.4262  -31.1671  -42.5635 H         1 UNK         0.0612 
    117 H117       19.5751  -31.2420  -41.2445 H         1 UNK         0.0612 
@<TRIPOS>BOND
     1    1    2 1    
     2    1   62 1    
     3    1   63 1    
     4    1   64 1    
     5    2    3 2    
     6    2    4 am   BACKBONE|DICT|INTERRES
     7    4    5 1    
     8    4   65 1    
     9    5    6 1    
    10    5   25 1    
    11    5   66 1    
    12    6    7 1    
    13    6   67 1    
    14    6   68 1    
    15    7    8 1    
    16    8    9 1    
    17    8   69 1    
    18    8   70 1    
    19    9   10 ar   
    20    9   14 ar   
    21   10   11 ar   
    22   10   71 1    
    23   11   12 ar   
    24   11   61 1    
    25   12   13 ar   
    26   12   72 1    
    27   13   14 ar   
    28   13   15 1    
    29   14   73 1    
    30   15   16 1    
    31   15   74 1    
    32   15   75 1    
    33   16   17 1    
    34   17   18 1    
    35   17   76 1    
    36   17   77 1    
    37   18   19 1    
    38   18   27 1    
    39   18   78 1    
    40   19   20 am   BACKBONE|DICT|INTERRES
    41   19   79 1    
    42   20   21 2    
    43   20   22 1    
    44   22   23 1    
    45   22   24 1    
    46   22   80 1    
    47   23   81 1    
    48   23   82 1    
    49   23   83 1    
    50   24   25 am   BACKBONE|DICT|INTERRES
    51   24   84 1    
    52   25   26 2    
    53   27   28 2    
    54   27   29 am   BACKBONE|DICT|INTERRES
    55   29   30 1    
    56   29   85 1    
    57   30   31 1    
    58   30   32 1    
    59   30   86 1    
    60   31   87 1    
    61   31   88 1    
    62   31   89 1    
    63   32   33 2    
    64   32   34 am   BACKBONE|DICT|INTERRES
    65   34   35 1    
    66   34   90 1    
    67   35   36 1    
    68   35   37 1    
    69   35   91 1    
    70   36   92 1    
    71   36   93 1    
    72   36   94 1    
    73   37   38 2    
    74   37   39 am   BACKBONE|DICT|INTERRES
    75   39   40 1    
    76   39   95 1    
    77   40   41 1    
    78   40   42 1    
    79   40   96 1    
    80   41   97 1    
    81   41   98 1    
    82   41   99 1    
    83   42   43 2    
    84   42   44 am   BACKBONE|DICT|INTERRES
    85   44   45 1    
    86   44  100 1    
    87   45   46 1    
    88   45   47 1    
    89   45  101 1    
    90   46  102 1    
    91   46  103 1    
    92   46  104 1    
    93   47   48 2    
    94   47   49 am   BACKBONE|DICT|INTERRES
    95   49   50 1    
    96   49  105 1    
    97   50   51 1    
    98   50   52 1    
    99   50  106 1    
   100   51  107 1    
   101   51  108 1    
   102   51  109 1    
   103   52   53 2    
   104   52   54 am   BACKBONE|DICT|INTERRES
   105   54   55 1    
   106   54  110 1    
   107   55   56 1    
   108   55   59 1    
   109   55  111 1    
   110   56   57 am   BACKBONE|DICT|INTERRES
   111   56   58 2    
   112   57  112 1    
   113   57  113 1    
   114   59   60 1    
   115   59  114 1    
   116   59  115 1    
   117   60   61 1    
   118   61  116 1    
   119   61  117 1    
@<TRIPOS>SUBSTRUCTURE
     1 UNK         1 GROUP             0       ****    0 ROOT    
