@<TRIPOS>MOLECULE
3R8
117   119    1
SMALL
USER_CHARGES


@<TRIPOS>ATOM
      1 CA         19.0717  -27.2543  -41.6737 C.3       0 UNK        -0.2013 
      2 C          18.5562  -26.3174  -42.7545 C.2       0 UNK         0.4866 
      3 O          18.7125  -25.1007  -42.6416 O.2       0 UNK        -0.5176 
      4 N          17.9458  -26.8684  -43.8121 N.am      1 UNK        -0.4884 
      5 CA         17.3500  -26.1274  -44.9348 C.3       1 UNK         0.0853 
      6 C6         16.2291  -26.9309  -45.6509 C.3       10 UNK        -0.0849 
      7 S7         14.8982  -27.4916  -44.5302 S.3       10 UNK        -0.2776 
      8 C8         15.0269  -29.3075  -44.6539 C.3       10 UNK         0.0316 
      9 C9         16.2740  -29.8289  -43.9561 C.ar      10 UNK        -0.0863 
     10 C10        16.2596  -30.0723  -42.5796 C.ar      10 UNK        -0.1009 
     11 C11        17.4155  -30.5025  -41.9196 C.ar      10 UNK        -0.0712 
     12 C12        18.5939  -30.6810  -42.6521 C.ar      10 UNK        -0.0894 
     13 C13        18.6145  -30.4549  -44.0309 C.ar      10 UNK        -0.0745 
     14 C14        17.4485  -30.0463  -44.6805 C.ar      10 UNK        -0.0972 
     15 C15        19.9072  -30.5922  -44.8141 C.3       10 UNK         0.0209 
     16 S16        20.8850  -29.0761  -44.6218 S.3       10 UNK        -0.2568 
     17 C17        21.7759  -28.9767  -46.2159 C.3       10 UNK        -0.0983 
     18 CA         22.4305  -27.5894  -46.4593 C.3       3 UNK         0.0876 
     19 N          21.4748  -26.5038  -46.2226 N.am      3 UNK        -0.4424 
     20 C          21.6207  -25.2227  -46.5778 C.2       2 UNK         0.4918 
     21 O          22.5817  -24.8051  -47.2249 O.2       2 UNK        -0.4875 
     22 CA         20.5343  -24.2280  -46.1123 C.3       2 UNK         0.0481 
     23 CB         20.0721  -23.3056  -47.2595 C.3       2 UNK        -0.1831 
     24 N          19.3837  -24.8347  -45.4215 N.am      2 UNK        -0.4498 
     25 C          18.4360  -25.6407  -45.9243 C.2       1 UNK         0.5027 
     26 O          18.4217  -26.0232  -47.0952 O.2       1 UNK        -0.4969 
     27 C          23.7152  -27.4160  -45.6218 C.2       3 UNK         0.5005 
     28 O          24.8190  -27.5939  -46.1396 O.2       3 UNK        -0.5279 
     29 N          23.5287  -27.0630  -44.3463 N.am      4 UNK        -0.4463 
     30 CA         24.5171  -26.8728  -43.2923 C.3       4 UNK         0.0283 
     31 CB         25.2507  -28.1961  -42.9841 C.3       4 UNK        -0.1875 
     32 C          23.7488  -26.3848  -42.0566 C.2       4 UNK         0.4949 
     33 O          22.5129  -26.3951  -42.0583 O.2       4 UNK        -0.5039 
     34 N          24.4770  -26.0153  -40.9961 N.am      5 UNK        -0.4663 
     35 CA         23.9310  -25.6165  -39.6916 C.3       5 UNK         0.0242 
     36 CB         25.0059  -24.8221  -38.9259 C.3       5 UNK        -0.1982 
     37 C          23.4019  -26.8255  -38.8888 C.2       5 UNK         0.5017 
     38 O          23.8988  -27.1111  -37.7992 O.2       5 UNK        -0.5012 
     39 N          22.4385  -27.5447  -39.4818 N.am      6 UNK        -0.4439 
     40 CA         21.7667  -28.7677  -39.0175 C.3       6 UNK         0.0297 
     41 CB         21.0233  -28.5287  -37.6886 C.3       6 UNK        -0.2006 
     42 C          22.6562  -30.0268  -38.9509 C.2       6 UNK         0.4892 
     43 O          22.1319  -31.1069  -38.6818 O.2       6 UNK        -0.5089 
     44 N          23.9591  -29.9070  -39.2424 N.am      7 UNK        -0.4243 
     45 CA         24.9251  -31.0128  -39.2572 C.3       7 UNK         0.0196 
     46 CB         26.3390  -30.4427  -39.4531 C.3       7 UNK        -0.2007 
     47 C          24.6251  -32.0829  -40.3234 C.2       7 UNK         0.5020 
     48 O          24.9488  -33.2528  -40.1212 O.2       7 UNK        -0.5147 
     49 N          23.9922  -31.6651  -41.4265 N.am      8 UNK        -0.4734 
     50 CA         23.5668  -32.5256  -42.5326 C.3       8 UNK         0.0238 
     51 CB         23.6079  -31.7041  -43.8324 C.3       8 UNK        -0.1912 
     52 C          22.1790  -33.1629  -42.3164 C.2       8 UNK         0.5038 
     53 O          21.7376  -33.9209  -43.1807 O.2       8 UNK        -0.5046 
     54 N          21.5093  -32.8535  -41.1953 N.am      9 UNK        -0.4200 
     55 CA         20.2001  -33.4160  -40.8203 C.3       9 UNK         0.0839 
     56 C          20.2455  -34.9073  -40.3706 C.2       9 UNK         0.5513 
     57 N          21.4059  -35.4675  -40.0476 N.am      9 UNK        -0.7519 
     58 O          19.2141  -35.5720  -40.3249 O.2       9 UNK        -0.4960 
     59 C59        19.4923  -32.5175  -39.7682 C.3       10 UNK        -0.0876 
     60 S60        17.6758  -32.4625  -39.9498 S.3       10 UNK        -0.2414 
     61 C61        17.3917  -30.7212  -40.4117 C.3       10 UNK         0.0169 
     62 H62        18.2397  -27.6979  -41.1281 H         1 UNK         0.0903 
     63 H63        19.6733  -28.0525  -42.1050 H         1 UNK         0.0903 
     64 H64        19.6962  -26.7135  -40.9629 H         1 UNK         0.0903 
     65 H65        17.8395  -27.8746  -43.8519 H         1 UNK         0.3096 
     66 H66        16.8812  -25.2270  -44.5307 H         1 UNK         0.1121 
     67 H67        15.7613  -26.3087  -46.4163 H         1 UNK         0.0849 
     68 H68        16.6448  -27.7837  -46.1871 H         1 UNK         0.0849 
     69 H69        15.0143  -29.6092  -45.7025 H         1 UNK         0.0865 
     70 H70        14.1405  -29.7552  -44.2017 H         1 UNK         0.0865 
     71 H71        15.3496  -29.9048  -42.0194 H         1 UNK         0.1346 
     72 H72        19.5041  -30.9743  -42.1513 H         1 UNK         0.1412 
     73 H73        17.4681  -29.8672  -45.7468 H         1 UNK         0.1426 
     74 H74        19.6934  -30.7749  -45.8682 H         1 UNK         0.0716 
     75 H75        20.4813  -31.4490  -44.4585 H         1 UNK         0.0716 
     76 H76        21.0613  -29.1740  -47.0164 H         1 UNK         0.0695 
     77 H77        22.5138  -29.7798  -46.2688 H         1 UNK         0.0695 
     78 H78        22.7300  -27.5401  -47.5086 H         1 UNK         0.0983 
     79 H79        20.6486  -26.7612  -45.7031 H         1 UNK         0.3095 
     80 H80        21.0176  -23.5973  -45.3649 H         1 UNK         0.0454 
     81 H81        20.9091  -22.7360  -47.6652 H         1 UNK         0.0851 
     82 H82        19.3304  -22.5848  -46.9160 H         1 UNK         0.0851 
     83 H83        19.6371  -23.8689  -48.0853 H         1 UNK         0.0851 
     84 H84        19.3175  -24.6408  -44.4243 H         1 UNK         0.2976 
     85 H85        22.5795  -26.9331  -44.0123 H         1 UNK         0.3116 
     86 H86        25.2274  -26.1037  -43.6007 H         1 UNK         0.0646 
     87 H87        25.8012  -28.5647  -43.8492 H         1 UNK         0.0847 
     88 H88        24.5545  -28.9762  -42.6778 H         1 UNK         0.0847 
     89 H89        25.9781  -28.0714  -42.1816 H         1 UNK         0.0847 
     90 H90        25.4844  -26.0499  -41.0659 H         1 UNK         0.3040 
     91 H91        23.0820  -24.9489  -39.8576 H         1 UNK         0.1015 
     92 H92        24.6257  -24.4774  -37.9631 H         1 UNK         0.0786 
     93 H93        25.3177  -23.9381  -39.4825 H         1 UNK         0.0786 
     94 H94        25.8929  -25.4257  -38.7293 H         1 UNK         0.0786 
     95 H95        22.1714  -27.2254  -40.4117 H         1 UNK         0.3172 
     96 H96        21.0116  -28.9853  -39.7744 H         1 UNK         0.0595 
     97 H97        20.4183  -29.3953  -37.4181 H         1 UNK         0.0839 
     98 H98        20.3495  -27.6750  -37.7586 H         1 UNK         0.0839 
     99 H99        21.7125  -28.3471  -36.8634 H         1 UNK         0.0839 
    100 H100       24.3205  -28.9798  -39.4103 H         1 UNK         0.2998 
    101 H101       24.8829  -31.5031  -38.2822 H         1 UNK         0.0822 
    102 H102       26.5965  -29.7380  -38.6620 H         1 UNK         0.0787 
    103 H103       27.0860  -31.2376  -39.4320 H         1 UNK         0.0787 
    104 H104       26.4392  -29.9276  -40.4091 H         1 UNK         0.0787 
    105 H105       23.7518  -30.6876  -41.4925 H         1 UNK         0.3055 
    106 H106       24.2742  -33.3518  -42.6362 H         1 UNK         0.1106 
    107 H107       24.6201  -31.3655  -44.0542 H         1 UNK         0.0828 
    108 H108       23.2719  -32.2917  -44.6878 H         1 UNK         0.0828 
    109 H109       22.9707  -30.8243  -43.7687 H         1 UNK         0.0828 
    110 H110       21.9527  -32.2614  -40.5040 H         1 UNK         0.2931 
    111 H111       19.5958  -33.3996  -41.7297 H         1 UNK         0.0412 
    112 H112       22.2604  -34.9338  -40.0791 H         1 UNK         0.3472 
    113 H113       21.4251  -36.4347  -39.7639 H         1 UNK         0.3472 
    114 H114       19.7395  -32.8281  -38.7510 H         1 UNK         0.0970 
    115 H115       19.8614  -31.4954  -39.8417 H         1 UNK         0.0970 
    116 H116       18.1214  -30.0688  -39.9307 H         1 UNK         0.0612 
    117 H117       16.4225  -30.4268  -40.0064 H         1 UNK         0.0612 
@<TRIPOS>BOND
     1    1    2 1    
     2    1   62 1    
     3    1   63 1    
     4    1   64 1    
     5    2    3 2    
     6    2    4 am   BACKBONE|DICT|INTERRES
     7    4    5 1    
     8    4   65 1    
     9    5    6 1    
    10    5   25 1    
    11    5   66 1    
    12    6    7 1    
    13    6   67 1    
    14    6   68 1    
    15    7    8 1    
    16    8    9 1    
    17    8   69 1    
    18    8   70 1    
    19    9   10 ar   
    20    9   14 ar   
    21   10   11 ar   
    22   10   71 1    
    23   11   12 ar   
    24   11   61 1    
    25   12   13 ar   
    26   12   72 1    
    27   13   14 ar   
    28   13   15 1    
    29   14   73 1    
    30   15   16 1    
    31   15   74 1    
    32   15   75 1    
    33   16   17 1    
    34   17   18 1    
    35   17   76 1    
    36   17   77 1    
    37   18   19 1    
    38   18   27 1    
    39   18   78 1    
    40   19   20 am   BACKBONE|DICT|INTERRES
    41   19   79 1    
    42   20   21 2    
    43   20   22 1    
    44   22   23 1    
    45   22   24 1    
    46   22   80 1    
    47   23   81 1    
    48   23   82 1    
    49   23   83 1    
    50   24   25 am   BACKBONE|DICT|INTERRES
    51   24   84 1    
    52   25   26 2    
    53   27   28 2    
    54   27   29 am   BACKBONE|DICT|INTERRES
    55   29   30 1    
    56   29   85 1    
    57   30   31 1    
    58   30   32 1    
    59   30   86 1    
    60   31   87 1    
    61   31   88 1    
    62   31   89 1    
    63   32   33 2    
    64   32   34 am   BACKBONE|DICT|INTERRES
    65   34   35 1    
    66   34   90 1    
    67   35   36 1    
    68   35   37 1    
    69   35   91 1    
    70   36   92 1    
    71   36   93 1    
    72   36   94 1    
    73   37   38 2    
    74   37   39 am   BACKBONE|DICT|INTERRES
    75   39   40 1    
    76   39   95 1    
    77   40   41 1    
    78   40   42 1    
    79   40   96 1    
    80   41   97 1    
    81   41   98 1    
    82   41   99 1    
    83   42   43 2    
    84   42   44 am   BACKBONE|DICT|INTERRES
    85   44   45 1    
    86   44  100 1    
    87   45   46 1    
    88   45   47 1    
    89   45  101 1    
    90   46  102 1    
    91   46  103 1    
    92   46  104 1    
    93   47   48 2    
    94   47   49 am   BACKBONE|DICT|INTERRES
    95   49   50 1    
    96   49  105 1    
    97   50   51 1    
    98   50   52 1    
    99   50  106 1    
   100   51  107 1    
   101   51  108 1    
   102   51  109 1    
   103   52   53 2    
   104   52   54 am   BACKBONE|DICT|INTERRES
   105   54   55 1    
   106   54  110 1    
   107   55   56 1    
   108   55   59 1    
   109   55  111 1    
   110   56   57 am   BACKBONE|DICT|INTERRES
   111   56   58 2    
   112   57  112 1    
   113   57  113 1    
   114   59   60 1    
   115   59  114 1    
   116   59  115 1    
   117   60   61 1    
   118   61  116 1    
   119   61  117 1    
@<TRIPOS>SUBSTRUCTURE
     1 UNK         1 GROUP             0       ****    0 ROOT    
