@<TRIPOS>MOLECULE
3R8
117   119    1
SMALL
USER_CHARGES


@<TRIPOS>ATOM
      1 CA         18.9133  -26.6338  -39.9230 C.3       0 UNK        -0.2013 
      2 C          18.4677  -27.0358  -41.3202 C.2       0 UNK         0.4866 
      3 O          19.2909  -27.0697  -42.2390 O.2       0 UNK        -0.5176 
      4 N          17.1684  -27.3302  -41.4822 N.am      1 UNK        -0.4884 
      5 CA         16.4860  -27.7827  -42.7048 C.3       1 UNK         0.0853 
      6 C6         17.0770  -29.1067  -43.2534 C.3       10 UNK        -0.0849 
      7 S7         15.9994  -29.9554  -44.4597 S.3       10 UNK        -0.2776 
      8 C8         16.9433  -29.7646  -46.0167 C.3       10 UNK         0.0316 
      9 C9         18.3828  -30.2778  -45.9532 C.ar      10 UNK        -0.0863 
     10 C10        18.7221  -31.4044  -45.1952 C.ar      10 UNK        -0.1009 
     11 C11        20.0485  -31.8307  -45.1048 C.ar      10 UNK        -0.0712 
     12 C12        21.0407  -31.1449  -45.8096 C.ar      10 UNK        -0.0894 
     13 C13        20.7184  -30.0382  -46.6006 C.ar      10 UNK        -0.0745 
     14 C14        19.3853  -29.6123  -46.6676 C.ar      10 UNK        -0.0972 
     15 C15        21.8169  -29.3597  -47.4162 C.3       10 UNK         0.0209 
     16 S16        21.7003  -27.5417  -47.4744 S.3       10 UNK        -0.2568 
     17 C17        22.2278  -27.0718  -45.7940 C.3       10 UNK        -0.0983 
     18 CA         21.5761  -25.7348  -45.3679 C.3       3 UNK         0.0876 
     19 N          20.1203  -25.8486  -45.2534 N.am      3 UNK        -0.4424 
     20 C          19.2705  -24.8116  -45.2774 C.2       2 UNK         0.4918 
     21 O          19.6197  -23.6334  -45.3466 O.2       2 UNK        -0.4875 
     22 CA         17.7775  -25.1527  -45.2142 C.3       2 UNK         0.0481 
     23 CB         17.2598  -25.5442  -46.6129 C.3       2 UNK        -0.1831 
     24 N          17.5636  -26.2207  -44.2415 N.am      2 UNK        -0.4498 
     25 C          16.3979  -26.6783  -43.7795 C.2       1 UNK         0.5027 
     26 O          15.2972  -26.2598  -44.1410 O.2       1 UNK        -0.4969 
     27 C          22.2339  -25.1762  -44.0921 C.2       3 UNK         0.5005 
     28 O          23.2393  -24.4734  -44.2074 O.2       3 UNK        -0.5279 
     29 N          21.6753  -25.4906  -42.9108 N.am      4 UNK        -0.4463 
     30 CA         22.0605  -25.0462  -41.5596 C.3       4 UNK         0.0283 
     31 CB         21.9095  -23.5205  -41.4099 C.3       4 UNK        -0.1875 
     32 C          23.4429  -25.5152  -41.0649 C.2       4 UNK         0.4949 
     33 O          23.5634  -25.9035  -39.9036 O.2       4 UNK        -0.5039 
     34 N          24.4549  -25.4797  -41.9380 N.am      5 UNK        -0.4663 
     35 CA         25.8249  -25.9290  -41.6770 C.3       5 UNK         0.0242 
     36 CB         26.7635  -25.2711  -42.7019 C.3       5 UNK        -0.1982 
     37 C          25.9807  -27.4604  -41.7101 C.2       5 UNK         0.5017 
     38 O          26.9888  -27.9699  -41.2185 O.2       5 UNK        -0.5012 
     39 N          25.0016  -28.1636  -42.2966 N.am      6 UNK        -0.4439 
     40 CA         24.9305  -29.6237  -42.3502 C.3       6 UNK         0.0297 
     41 CB         23.8250  -30.0379  -43.3361 C.3       6 UNK        -0.2006 
     42 C          24.6713  -30.2179  -40.9544 C.2       6 UNK         0.4892 
     43 O          23.8434  -29.6859  -40.2114 O.2       6 UNK        -0.5089 
     44 N          25.3799  -31.3059  -40.6278 N.am      7 UNK        -0.4243 
     45 CA         25.2280  -32.0395  -39.3699 C.3       7 UNK         0.0196 
     46 CB         26.4437  -32.9589  -39.1671 C.3       7 UNK        -0.2007 
     47 C          23.9253  -32.8543  -39.3642 C.2       7 UNK         0.5020 
     48 O          23.6031  -33.4789  -40.3762 O.2       7 UNK        -0.5147 
     49 N          23.2299  -32.8558  -38.2181 N.am      8 UNK        -0.4734 
     50 CA         21.9061  -33.4507  -37.9932 C.3       8 UNK         0.0238 
     51 CB         21.9481  -34.9922  -38.1238 C.3       8 UNK        -0.1912 
     52 C          20.8376  -32.7551  -38.8608 C.2       8 UNK         0.5038 
     53 O          20.6173  -31.5581  -38.6690 O.2       8 UNK        -0.5046 
     54 N          20.1957  -33.4992  -39.7723 N.am      9 UNK        -0.4200 
     55 CA         19.1629  -33.0249  -40.7143 C.3       9 UNK         0.0839 
     56 C          17.8181  -32.6013  -40.0471 C.2       9 UNK         0.5513 
     57 N          17.5420  -32.9949  -38.8093 N.am      9 UNK        -0.7519 
     58 O          16.9934  -31.9362  -40.6678 O.2       9 UNK        -0.4960 
     59 C59        19.6921  -31.9635  -41.7246 C.3       10 UNK        -0.0876 
     60 S60        21.1453  -32.5466  -42.6646 S.3       10 UNK        -0.2414 
     61 C61        20.4102  -33.0383  -44.2539 C.3       10 UNK         0.0169 
     62 H62        19.1149  -25.5637  -39.8862 H         1 UNK         0.0903 
     63 H63        18.1566  -26.8637  -39.1732 H         1 UNK         0.0903 
     64 H64        19.8252  -27.1658  -39.6526 H         1 UNK         0.0903 
     65 H65        16.5581  -27.2376  -40.6811 H         1 UNK         0.3096 
     66 H66        15.4592  -27.9908  -42.3977 H         1 UNK         0.1121 
     67 H67        18.0719  -28.9474  -43.6700 H         1 UNK         0.0849 
     68 H68        17.2223  -29.8024  -42.4260 H         1 UNK         0.0849 
     69 H69        16.4188  -30.2961  -46.8116 H         1 UNK         0.0865 
     70 H70        16.9310  -28.7093  -46.2920 H         1 UNK         0.0865 
     71 H71        17.9551  -31.9425  -44.6559 H         1 UNK         0.1346 
     72 H72        22.0654  -31.4854  -45.7479 H         1 UNK         0.1412 
     73 H73        19.1271  -28.7619  -47.2835 H         1 UNK         0.1426 
     74 H74        21.7652  -29.7398  -48.4371 H         1 UNK         0.0716 
     75 H75        22.8039  -29.6303  -47.0374 H         1 UNK         0.0716 
     76 H76        21.9760  -27.8669  -45.0892 H         1 UNK         0.0695 
     77 H77        23.3170  -26.9936  -45.8002 H         1 UNK         0.0695 
     78 H78        21.7837  -25.0035  -46.1531 H         1 UNK         0.0983 
     79 H79        19.7510  -26.7874  -45.2422 H         1 UNK         0.3095 
     80 H80        17.2414  -24.2660  -44.8703 H         1 UNK         0.0454 
     81 H81        17.4554  -24.7499  -47.3345 H         1 UNK         0.0851 
     82 H82        17.7437  -26.4470  -46.9860 H         1 UNK         0.0851 
     83 H83        16.1838  -25.7158  -46.6142 H         1 UNK         0.0851 
     84 H84        18.3896  -26.5527  -43.7470 H         1 UNK         0.2976 
     85 H85        20.8647  -26.1050  -42.9220 H         1 UNK         0.3116 
     86 H86        21.3342  -25.5069  -40.8912 H         1 UNK         0.0646 
     87 H87        22.0982  -23.2099  -40.3814 H         1 UNK         0.0847 
     88 H88        20.9013  -23.1957  -41.6666 H         1 UNK         0.0847 
     89 H89        22.6090  -22.9763  -42.0450 H         1 UNK         0.0847 
     90 H90        24.2507  -25.1030  -42.8630 H         1 UNK         0.3040 
     91 H91        26.1159  -25.5953  -40.6784 H         1 UNK         0.1015 
     92 H92        26.7165  -24.1836  -42.6413 H         1 UNK         0.0786 
     93 H93        26.5124  -25.5614  -43.7230 H         1 UNK         0.0786 
     94 H94        27.8008  -25.5596  -42.5254 H         1 UNK         0.0786 
     95 H95        24.1960  -27.6537  -42.6248 H         1 UNK         0.3172 
     96 H96        25.8862  -29.9954  -42.7260 H         1 UNK         0.0595 
     97 H97        22.8401  -29.7037  -43.0058 H         1 UNK         0.0839 
     98 H98        23.7807  -31.1234  -43.4333 H         1 UNK         0.0839 
     99 H99        24.0022  -29.6322  -44.3323 H         1 UNK         0.0839 
    100 H100       26.0085  -31.7044  -41.3100 H         1 UNK         0.2998 
    101 H101       25.2020  -31.3158  -38.5519 H         1 UNK         0.0822 
    102 H102       27.3729  -32.3893  -39.1398 H         1 UNK         0.0787 
    103 H103       26.3687  -33.5013  -38.2236 H         1 UNK         0.0787 
    104 H104       26.5263  -33.7006  -39.9629 H         1 UNK         0.0787 
    105 H105       23.5819  -32.2967  -37.4526 H         1 UNK         0.3055 
    106 H106       21.6389  -33.2232  -36.9597 H         1 UNK         0.1106 
    107 H107       22.2071  -35.3229  -39.1299 H         1 UNK         0.0828 
    108 H108       22.6832  -35.4195  -37.4417 H         1 UNK         0.0828 
    109 H109       20.9848  -35.4350  -37.8672 H         1 UNK         0.0828 
    110 H110       20.4536  -34.4706  -39.8617 H         1 UNK         0.2931 
    111 H111       18.8983  -33.9054  -41.3008 H         1 UNK         0.0412 
    112 H112       16.6649  -32.7267  -38.3911 H         1 UNK         0.3472 
    113 H113       18.1994  -33.5543  -38.2904 H         1 UNK         0.3472 
    114 H114       19.9673  -31.0439  -41.2061 H         1 UNK         0.0970 
    115 H115       18.9092  -31.6786  -42.4268 H         1 UNK         0.0970 
    116 H116       19.5369  -33.6669  -44.0728 H         1 UNK         0.0612 
    117 H117       21.1270  -33.6588  -44.7936 H         1 UNK         0.0612 
@<TRIPOS>BOND
     1    1    2 1    
     2    1   62 1    
     3    1   63 1    
     4    1   64 1    
     5    2    3 2    
     6    2    4 am   BACKBONE|DICT|INTERRES
     7    4    5 1    
     8    4   65 1    
     9    5    6 1    
    10    5   25 1    
    11    5   66 1    
    12    6    7 1    
    13    6   67 1    
    14    6   68 1    
    15    7    8 1    
    16    8    9 1    
    17    8   69 1    
    18    8   70 1    
    19    9   10 ar   
    20    9   14 ar   
    21   10   11 ar   
    22   10   71 1    
    23   11   12 ar   
    24   11   61 1    
    25   12   13 ar   
    26   12   72 1    
    27   13   14 ar   
    28   13   15 1    
    29   14   73 1    
    30   15   16 1    
    31   15   74 1    
    32   15   75 1    
    33   16   17 1    
    34   17   18 1    
    35   17   76 1    
    36   17   77 1    
    37   18   19 1    
    38   18   27 1    
    39   18   78 1    
    40   19   20 am   BACKBONE|DICT|INTERRES
    41   19   79 1    
    42   20   21 2    
    43   20   22 1    
    44   22   23 1    
    45   22   24 1    
    46   22   80 1    
    47   23   81 1    
    48   23   82 1    
    49   23   83 1    
    50   24   25 am   BACKBONE|DICT|INTERRES
    51   24   84 1    
    52   25   26 2    
    53   27   28 2    
    54   27   29 am   BACKBONE|DICT|INTERRES
    55   29   30 1    
    56   29   85 1    
    57   30   31 1    
    58   30   32 1    
    59   30   86 1    
    60   31   87 1    
    61   31   88 1    
    62   31   89 1    
    63   32   33 2    
    64   32   34 am   BACKBONE|DICT|INTERRES
    65   34   35 1    
    66   34   90 1    
    67   35   36 1    
    68   35   37 1    
    69   35   91 1    
    70   36   92 1    
    71   36   93 1    
    72   36   94 1    
    73   37   38 2    
    74   37   39 am   BACKBONE|DICT|INTERRES
    75   39   40 1    
    76   39   95 1    
    77   40   41 1    
    78   40   42 1    
    79   40   96 1    
    80   41   97 1    
    81   41   98 1    
    82   41   99 1    
    83   42   43 2    
    84   42   44 am   BACKBONE|DICT|INTERRES
    85   44   45 1    
    86   44  100 1    
    87   45   46 1    
    88   45   47 1    
    89   45  101 1    
    90   46  102 1    
    91   46  103 1    
    92   46  104 1    
    93   47   48 2    
    94   47   49 am   BACKBONE|DICT|INTERRES
    95   49   50 1    
    96   49  105 1    
    97   50   51 1    
    98   50   52 1    
    99   50  106 1    
   100   51  107 1    
   101   51  108 1    
   102   51  109 1    
   103   52   53 2    
   104   52   54 am   BACKBONE|DICT|INTERRES
   105   54   55 1    
   106   54  110 1    
   107   55   56 1    
   108   55   59 1    
   109   55  111 1    
   110   56   57 am   BACKBONE|DICT|INTERRES
   111   56   58 2    
   112   57  112 1    
   113   57  113 1    
   114   59   60 1    
   115   59  114 1    
   116   59  115 1    
   117   60   61 1    
   118   61  116 1    
   119   61  117 1    
@<TRIPOS>SUBSTRUCTURE
     1 UNK         1 GROUP             0       ****    0 ROOT    
