@<TRIPOS>MOLECULE
3R8
117   119    1
SMALL
USER_CHARGES


@<TRIPOS>ATOM
      1 CA         14.8518  -23.8269  -43.9491 C.3       0 UNK        -0.2013 
      2 C          15.9156  -24.8841  -44.2030 C.2       0 UNK         0.4866 
      3 O          15.8051  -25.6484  -45.1632 O.2       0 UNK        -0.5176 
      4 N          16.9483  -24.9384  -43.3520 N.am      1 UNK        -0.4884 
      5 CA         18.0686  -25.8773  -43.4516 C.3       1 UNK         0.0853 
      6 C6         18.8099  -26.0474  -42.0978 C.3       10 UNK        -0.0849 
      7 S7         17.8664  -27.0525  -40.9034 S.3       10 UNK        -0.2776 
      8 C8         18.8326  -28.6019  -40.8670 C.3       10 UNK         0.0316 
      9 C9         18.4189  -29.5711  -41.9693 C.ar      10 UNK        -0.0863 
     10 C10        17.6609  -30.7049  -41.6598 C.ar      10 UNK        -0.1009 
     11 C11        17.3048  -31.6163  -42.6590 C.ar      10 UNK        -0.0712 
     12 C12        17.6814  -31.3711  -43.9824 C.ar      10 UNK        -0.0894 
     13 C13        18.4184  -30.2312  -44.3107 C.ar      10 UNK        -0.0745 
     14 C14        18.8023  -29.3486  -43.2953 C.ar      10 UNK        -0.0972 
     15 C15        18.7254  -29.9213  -45.7705 C.3       10 UNK         0.0209 
     16 S16        20.3221  -30.5857  -46.3564 S.3       10 UNK        -0.2568 
     17 C17        21.5712  -29.6805  -45.3783 C.3       10 UNK        -0.0983 
     18 CA         22.0088  -28.3100  -45.9661 C.3       3 UNK         0.0876 
     19 N          20.8537  -27.4560  -46.2574 N.am      3 UNK        -0.4424 
     20 C          20.8400  -26.3462  -47.0058 C.2       2 UNK         0.4918 
     21 O          21.8141  -25.9227  -47.6268 O.2       2 UNK        -0.4875 
     22 CA         19.5123  -25.5581  -47.0289 C.3       2 UNK         0.0481 
     23 CB         18.6981  -25.9227  -48.2798 C.3       2 UNK        -0.1831 
     24 N          18.6771  -25.7585  -45.8333 N.am      2 UNK        -0.4498 
     25 C          19.0390  -25.4604  -44.5769 C.2       1 UNK         0.5027 
     26 O          20.1100  -24.9218  -44.2940 O.2       1 UNK        -0.4969 
     27 C          23.0076  -27.6460  -44.9880 C.2       3 UNK         0.5005 
     28 O          24.1278  -28.1416  -44.8621 O.2       3 UNK        -0.5279 
     29 N          22.5690  -26.5789  -44.2972 N.am      4 UNK        -0.4463 
     30 CA         23.1501  -25.9285  -43.1185 C.3       4 UNK         0.0283 
     31 CB         24.6446  -25.5906  -43.2991 C.3       4 UNK        -0.1875 
     32 C          22.9052  -26.7422  -41.8370 C.2       4 UNK         0.4949 
     33 O          22.7331  -27.9629  -41.8784 O.2       4 UNK        -0.5039 
     34 N          22.9253  -26.0416  -40.6958 N.am      5 UNK        -0.4663 
     35 CA         22.7771  -26.6257  -39.3559 C.3       5 UNK         0.0242 
     36 CB         22.5695  -25.4971  -38.3335 C.3       5 UNK        -0.1982 
     37 C          23.9578  -27.5251  -38.9412 C.2       5 UNK         0.5017 
     38 O          23.8052  -28.3424  -38.0343 O.2       5 UNK        -0.5012 
     39 N          25.1016  -27.3712  -39.6237 N.am      6 UNK        -0.4439 
     40 CA         26.2833  -28.2254  -39.5028 C.3       6 UNK         0.0297 
     41 CB         27.4652  -27.5511  -40.2186 C.3       6 UNK        -0.2006 
     42 C          26.0674  -29.6507  -40.0480 C.2       6 UNK         0.4892 
     43 O          26.7844  -30.5576  -39.6236 O.2       6 UNK        -0.5089 
     44 N          25.1056  -29.8264  -40.9677 N.am      7 UNK        -0.4243 
     45 CA         24.6848  -31.1279  -41.4808 C.3       7 UNK         0.0196 
     46 CB         24.1939  -30.9819  -42.9320 C.3       7 UNK        -0.2007 
     47 C          23.6242  -31.7135  -40.5377 C.2       7 UNK         0.5020 
     48 O          23.9717  -32.5448  -39.6995 O.2       7 UNK        -0.5147 
     49 N          22.3763  -31.2330  -40.6719 N.am      8 UNK        -0.4734 
     50 CA         21.2023  -31.5242  -39.8338 C.3       8 UNK         0.0238 
     51 CB         21.3024  -30.7102  -38.5270 C.3       8 UNK        -0.1912 
     52 C          20.9706  -33.0328  -39.5633 C.2       8 UNK         0.5038 
     53 O          21.1901  -33.4776  -38.4359 O.2       8 UNK        -0.5046 
     54 N          20.5418  -33.8428  -40.5400 N.am      9 UNK        -0.4200 
     55 CA         20.1866  -33.5150  -41.9289 C.3       9 UNK         0.0839 
     56 C          21.3751  -33.7399  -42.8971 C.2       9 UNK         0.5513 
     57 N          21.3726  -33.0659  -44.0382 N.am      9 UNK        -0.7519 
     58 O          22.2768  -34.5359  -42.6442 O.2       9 UNK        -0.4960 
     59 C59        18.9492  -34.3343  -42.3870 C.3       10 UNK        -0.0876 
     60 S60        17.4906  -34.0458  -41.3228 S.3       10 UNK        -0.2414 
     61 C61        16.5139  -32.8692  -42.3119 C.3       10 UNK         0.0169 
     62 H62        13.8813  -24.3000  -43.8024 H         1 UNK         0.0903 
     63 H63        15.0740  -23.2280  -43.0662 H         1 UNK         0.0903 
     64 H64        14.7783  -23.1563  -44.8047 H         1 UNK         0.0903 
     65 H65        16.9939  -24.2828  -42.5843 H         1 UNK         0.3096 
     66 H66        17.6590  -26.8499  -43.7319 H         1 UNK         0.1121 
     67 H67        19.0167  -25.0741  -41.6487 H         1 UNK         0.0849 
     68 H68        19.7880  -26.5110  -42.2363 H         1 UNK         0.0849 
     69 H69        19.9015  -28.3923  -40.9338 H         1 UNK         0.0865 
     70 H70        18.6868  -29.0658  -39.8902 H         1 UNK         0.0865 
     71 H71        17.3613  -30.8941  -40.6379 H         1 UNK         0.1346 
     72 H72        17.3872  -32.0604  -44.7622 H         1 UNK         0.1412 
     73 H73        19.3875  -28.4756  -43.5376 H         1 UNK         0.1426 
     74 H74        18.6644  -28.8490  -45.9444 H         1 UNK         0.0716 
     75 H75        17.9420  -30.3492  -46.3982 H         1 UNK         0.0716 
     76 H76        22.4417  -30.3366  -45.3227 H         1 UNK         0.0695 
     77 H77        21.2290  -29.5827  -44.3492 H         1 UNK         0.0695 
     78 H78        22.5396  -28.4868  -46.9041 H         1 UNK         0.0983 
     79 H79        19.9869  -27.7390  -45.8324 H         1 UNK         0.3095 
     80 H80        19.7633  -24.4968  -47.0809 H         1 UNK         0.0454 
     81 H81        18.3966  -26.9709  -48.2758 H         1 UNK         0.0851 
     82 H82        19.2800  -25.7548  -49.1873 H         1 UNK         0.0851 
     83 H83        17.7971  -25.3141  -48.3589 H         1 UNK         0.0851 
     84 H84        17.7338  -26.1027  -45.9796 H         1 UNK         0.2976 
     85 H85        21.6444  -26.2311  -44.5244 H         1 UNK         0.3116 
     86 H86        22.6070  -24.9878  -43.0146 H         1 UNK         0.0646 
     87 H87        24.8261  -25.0888  -44.2495 H         1 UNK         0.0847 
     88 H88        25.2745  -26.4800  -43.2637 H         1 UNK         0.0847 
     89 H89        24.9923  -24.9217  -42.5113 H         1 UNK         0.0847 
     90 H90        23.0636  -25.0413  -40.7386 H         1 UNK         0.3040 
     91 H91        21.8829  -27.2530  -39.3599 H         1 UNK         0.1015 
     92 H92        23.4271  -24.8243  -38.2938 H         1 UNK         0.0786 
     93 H93        22.4257  -25.9010  -37.3302 H         1 UNK         0.0786 
     94 H94        21.6858  -24.9043  -38.5706 H         1 UNK         0.0786 
     95 H95        25.1294  -26.6525  -40.3312 H         1 UNK         0.3172 
     96 H96        26.5290  -28.3123  -38.4422 H         1 UNK         0.0595 
     97 H97        28.3725  -28.1491  -40.1199 H         1 UNK         0.0839 
     98 H98        27.6802  -26.5697  -39.7955 H         1 UNK         0.0839 
     99 H99        27.2744  -27.4248  -41.2852 H         1 UNK         0.0839 
    100 H100       24.5310  -29.0358  -41.2342 H         1 UNK         0.2998 
    101 H101       25.5367  -31.8117  -41.4915 H         1 UNK         0.0822 
    102 H102       24.9914  -30.6165  -43.5792 H         1 UNK         0.0787 
    103 H103       23.8727  -31.9436  -43.3313 H         1 UNK         0.0787 
    104 H104       23.3598  -30.2876  -43.0233 H         1 UNK         0.0787 
    105 H105       22.2317  -30.5383  -41.3925 H         1 UNK         0.3055 
    106 H106       20.3236  -31.1474  -40.3537 H         1 UNK         0.1106 
    107 H107       22.1911  -30.9738  -37.9521 H         1 UNK         0.0828 
    108 H108       20.4354  -30.8828  -37.8882 H         1 UNK         0.0828 
    109 H109       21.3451  -29.6407  -38.7299 H         1 UNK         0.0828 
    110 H110       20.4626  -34.8236  -40.3197 H         1 UNK         0.2931 
    111 H111       19.9213  -32.4624  -42.0003 H         1 UNK         0.0412 
    112 H112       22.1216  -33.2184  -44.6945 H         1 UNK         0.3472 
    113 H113       20.6330  -32.4205  -44.2699 H         1 UNK         0.3472 
    114 H114       18.6890  -34.1023  -43.4214 H         1 UNK         0.0970 
    115 H115       19.1722  -35.4028  -42.3707 H         1 UNK         0.0970 
    116 H116       16.1615  -33.3715  -43.2141 H         1 UNK         0.0612 
    117 H117       15.6231  -32.5880  -41.7487 H         1 UNK         0.0612 
@<TRIPOS>BOND
     1    1    2 1    
     2    1   62 1    
     3    1   63 1    
     4    1   64 1    
     5    2    3 2    
     6    2    4 am   BACKBONE|DICT|INTERRES
     7    4    5 1    
     8    4   65 1    
     9    5    6 1    
    10    5   25 1    
    11    5   66 1    
    12    6    7 1    
    13    6   67 1    
    14    6   68 1    
    15    7    8 1    
    16    8    9 1    
    17    8   69 1    
    18    8   70 1    
    19    9   10 ar   
    20    9   14 ar   
    21   10   11 ar   
    22   10   71 1    
    23   11   12 ar   
    24   11   61 1    
    25   12   13 ar   
    26   12   72 1    
    27   13   14 ar   
    28   13   15 1    
    29   14   73 1    
    30   15   16 1    
    31   15   74 1    
    32   15   75 1    
    33   16   17 1    
    34   17   18 1    
    35   17   76 1    
    36   17   77 1    
    37   18   19 1    
    38   18   27 1    
    39   18   78 1    
    40   19   20 am   BACKBONE|DICT|INTERRES
    41   19   79 1    
    42   20   21 2    
    43   20   22 1    
    44   22   23 1    
    45   22   24 1    
    46   22   80 1    
    47   23   81 1    
    48   23   82 1    
    49   23   83 1    
    50   24   25 am   BACKBONE|DICT|INTERRES
    51   24   84 1    
    52   25   26 2    
    53   27   28 2    
    54   27   29 am   BACKBONE|DICT|INTERRES
    55   29   30 1    
    56   29   85 1    
    57   30   31 1    
    58   30   32 1    
    59   30   86 1    
    60   31   87 1    
    61   31   88 1    
    62   31   89 1    
    63   32   33 2    
    64   32   34 am   BACKBONE|DICT|INTERRES
    65   34   35 1    
    66   34   90 1    
    67   35   36 1    
    68   35   37 1    
    69   35   91 1    
    70   36   92 1    
    71   36   93 1    
    72   36   94 1    
    73   37   38 2    
    74   37   39 am   BACKBONE|DICT|INTERRES
    75   39   40 1    
    76   39   95 1    
    77   40   41 1    
    78   40   42 1    
    79   40   96 1    
    80   41   97 1    
    81   41   98 1    
    82   41   99 1    
    83   42   43 2    
    84   42   44 am   BACKBONE|DICT|INTERRES
    85   44   45 1    
    86   44  100 1    
    87   45   46 1    
    88   45   47 1    
    89   45  101 1    
    90   46  102 1    
    91   46  103 1    
    92   46  104 1    
    93   47   48 2    
    94   47   49 am   BACKBONE|DICT|INTERRES
    95   49   50 1    
    96   49  105 1    
    97   50   51 1    
    98   50   52 1    
    99   50  106 1    
   100   51  107 1    
   101   51  108 1    
   102   51  109 1    
   103   52   53 2    
   104   52   54 am   BACKBONE|DICT|INTERRES
   105   54   55 1    
   106   54  110 1    
   107   55   56 1    
   108   55   59 1    
   109   55  111 1    
   110   56   57 am   BACKBONE|DICT|INTERRES
   111   56   58 2    
   112   57  112 1    
   113   57  113 1    
   114   59   60 1    
   115   59  114 1    
   116   59  115 1    
   117   60   61 1    
   118   61  116 1    
   119   61  117 1    
@<TRIPOS>SUBSTRUCTURE
     1 UNK         1 GROUP             0       ****    0 ROOT    
