@<TRIPOS>MOLECULE
3R8
117   119    1
SMALL
USER_CHARGES


@<TRIPOS>ATOM
      1 CA         15.4982  -24.9951  -48.6583 C.3       0 UNK        -0.2013 
      2 C          15.5805  -25.7915  -47.3641 C.2       0 UNK         0.4866 
      3 O          14.5985  -25.8453  -46.6226 O.2       0 UNK        -0.5176 
      4 N          16.7422  -26.4074  -47.1015 N.am      1 UNK        -0.4884 
      5 CA         17.0790  -27.2039  -45.9105 C.3       1 UNK         0.0853 
      6 C6         16.1944  -28.4796  -45.7528 C.3       10 UNK        -0.0849 
      7 S7         16.7019  -29.7665  -46.9413 S.3       10 UNK        -0.2776 
      8 C8         17.5786  -30.9529  -45.8618 C.3       10 UNK         0.0316 
      9 C9         18.6630  -30.2991  -45.0101 C.ar      10 UNK        -0.0863 
     10 C10        18.5963  -30.3618  -43.6141 C.ar      10 UNK        -0.1009 
     11 C11        19.5883  -29.7677  -42.8282 C.ar      10 UNK        -0.0712 
     12 C12        20.6469  -29.0990  -43.4484 C.ar      10 UNK        -0.0894 
     13 C13        20.7125  -29.0056  -44.8417 C.ar      10 UNK        -0.0745 
     14 C14        19.7300  -29.6289  -45.6161 C.ar      10 UNK        -0.0972 
     15 C15        21.8426  -28.2418  -45.5181 C.3       10 UNK         0.0209 
     16 S16        21.5728  -26.4381  -45.4716 S.3       10 UNK        -0.2568 
     17 C17        22.3050  -26.0053  -43.8548 C.3       10 UNK        -0.0983 
     18 CA         21.3251  -25.3313  -42.8558 C.3       3 UNK         0.0876 
     19 N          20.0242  -26.0024  -42.7920 N.am      3 UNK        -0.4424 
     20 C          18.9551  -25.5672  -42.1108 C.2       2 UNK         0.4918 
     21 O          18.9275  -24.5084  -41.4806 O.2       2 UNK        -0.4875 
     22 CA         17.7086  -26.4733  -42.1599 C.3       2 UNK         0.0481 
     23 CB         16.4396  -25.7949  -41.6011 C.3       2 UNK        -0.1831 
     24 N          17.4690  -27.0322  -43.4968 N.am      2 UNK        -0.4498 
     25 C          17.1830  -26.3552  -44.6213 C.2       1 UNK         0.5027 
     26 O          17.0654  -25.1278  -44.6674 O.2       1 UNK        -0.4969 
     27 C          21.9804  -25.2926  -41.4614 C.2       3 UNK         0.5005 
     28 O          21.9885  -26.3198  -40.7781 O.2       3 UNK        -0.5279 
     29 N          22.5754  -24.1500  -41.0901 N.am      4 UNK        -0.4463 
     30 CA         23.2682  -23.9521  -39.8085 C.3       4 UNK         0.0283 
     31 CB         23.6683  -22.4747  -39.6664 C.3       4 UNK        -0.1875 
     32 C          24.4965  -24.8620  -39.6121 C.2       4 UNK         0.4949 
     33 O          24.8237  -25.2010  -38.4751 O.2       4 UNK        -0.5039 
     34 N          25.1383  -25.2538  -40.7209 N.am      5 UNK        -0.4663 
     35 CA         26.2612  -26.1944  -40.7503 C.3       5 UNK         0.0242 
     36 CB         27.0723  -25.9479  -42.0340 C.3       5 UNK        -0.1982 
     37 C          25.8321  -27.6732  -40.6642 C.2       5 UNK         0.5017 
     38 O          26.6997  -28.5212  -40.4501 O.2       5 UNK        -0.5012 
     39 N          24.5289  -27.9525  -40.8413 N.am      6 UNK        -0.4439 
     40 CA         23.8841  -29.2694  -40.9435 C.3       6 UNK         0.0297 
     41 CB         24.0975  -30.0918  -39.6536 C.3       6 UNK        -0.2006 
     42 C          24.2900  -30.0641  -42.2044 C.2       6 UNK         0.4892 
     43 O          25.1881  -29.6640  -42.9481 O.2       6 UNK        -0.5089 
     44 N          23.5971  -31.1863  -42.4263 N.am      7 UNK        -0.4243 
     45 CA         23.8561  -32.1434  -43.5058 C.3       7 UNK         0.0196 
     46 CB         23.1422  -31.6978  -44.7975 C.3       7 UNK        -0.2007 
     47 C          23.4572  -33.5573  -43.0546 C.2       7 UNK         0.5020 
     48 O          22.7351  -34.2516  -43.7703 O.2       7 UNK        -0.5147 
     49 N          23.8908  -33.9357  -41.8400 N.am      8 UNK        -0.4734 
     50 CA         23.5487  -35.1778  -41.1174 C.3       8 UNK         0.0238 
     51 CB         24.0865  -36.4203  -41.8596 C.3       8 UNK        -0.1912 
     52 C          22.0480  -35.3029  -40.7664 C.2       8 UNK         0.5038 
     53 O          21.5621  -36.4037  -40.5002 O.2       8 UNK        -0.5046 
     54 N          21.3520  -34.1631  -40.7745 N.am      9 UNK        -0.4200 
     55 CA         19.9419  -33.9733  -40.4332 C.3       9 UNK         0.0839 
     56 C          19.6582  -34.1105  -38.9115 C.2       9 UNK         0.5513 
     57 N          18.4127  -34.3744  -38.5404 N.am      9 UNK        -0.7519 
     58 O          20.5399  -33.9614  -38.0671 O.2       9 UNK        -0.4960 
     59 C59        19.4254  -32.6302  -41.0209 C.3       10 UNK        -0.0876 
     60 S60        20.4786  -31.1883  -40.6165 S.3       10 UNK        -0.2414 
     61 C61        19.5052  -29.8188  -41.3093 C.3       10 UNK         0.0169 
     62 H62        16.4277  -25.0384  -49.2258 H         1 UNK         0.0903 
     63 H63        14.6988  -25.3846  -49.2882 H         1 UNK         0.0903 
     64 H64        15.2822  -23.9492  -48.4413 H         1 UNK         0.0903 
     65 H65        17.5037  -26.2932  -47.7561 H         1 UNK         0.3096 
     66 H66        18.1070  -27.5233  -46.0807 H         1 UNK         0.1121 
     67 H67        16.2384  -28.9088  -44.7520 H         1 UNK         0.0849 
     68 H68        15.1393  -28.2558  -45.9102 H         1 UNK         0.0849 
     69 H69        16.8457  -31.4607  -45.2327 H         1 UNK         0.0865 
     70 H70        18.0334  -31.7263  -46.4822 H         1 UNK         0.0865 
     71 H71        17.7741  -30.8771  -43.1359 H         1 UNK         0.1346 
     72 H72        21.4120  -28.6398  -42.8405 H         1 UNK         0.1412 
     73 H73        19.7796  -29.5744  -46.6955 H         1 UNK         0.1426 
     74 H74        21.9278  -28.5488  -46.5616 H         1 UNK         0.0716 
     75 H75        22.7988  -28.4921  -45.0573 H         1 UNK         0.0716 
     76 H76        23.1436  -25.3344  -44.0501 H         1 UNK         0.0695 
     77 H77        22.7536  -26.8998  -43.4198 H         1 UNK         0.0695 
     78 H78        21.1394  -24.3081  -43.1895 H         1 UNK         0.0983 
     79 H79        19.9552  -26.8721  -43.2992 H         1 UNK         0.3095 
     80 H80        17.9292  -27.3222  -41.5125 H         1 UNK         0.0454 
     81 H81        16.5801  -25.5042  -40.5594 H         1 UNK         0.0851 
     82 H82        15.5821  -26.4666  -41.6355 H         1 UNK         0.0851 
     83 H83        16.1816  -24.8923  -42.1555 H         1 UNK         0.0851 
     84 H84        17.5915  -28.0332  -43.5693 H         1 UNK         0.2976 
     85 H85        22.5356  -23.3521  -41.7092 H         1 UNK         0.3116 
     86 H86        22.5595  -24.1903  -39.0123 H         1 UNK         0.0646 
     87 H87        22.7971  -21.8205  -39.7053 H         1 UNK         0.0847 
     88 H88        24.3591  -22.1644  -40.4513 H         1 UNK         0.0847 
     89 H89        24.1617  -22.2948  -38.7100 H         1 UNK         0.0847 
     90 H90        24.8117  -24.9053  -41.6103 H         1 UNK         0.3040 
     91 H91        26.9093  -25.9961  -39.8933 H         1 UNK         0.1015 
     92 H92        27.9462  -26.5996  -42.0751 H         1 UNK         0.0786 
     93 H93        27.4346  -24.9209  -42.0852 H         1 UNK         0.0786 
     94 H94        26.4801  -26.1429  -42.9292 H         1 UNK         0.0786 
     95 H95        23.8947  -27.1691  -40.9487 H         1 UNK         0.3172 
     96 H96        22.8171  -29.0623  -41.0280 H         1 UNK         0.0595 
     97 H97        23.4631  -30.9781  -39.6347 H         1 UNK         0.0839 
     98 H98        23.8492  -29.5069  -38.7678 H         1 UNK         0.0839 
     99 H99        25.1282  -30.4321  -39.5511 H         1 UNK         0.0839 
    100 H100       22.8355  -31.4148  -41.8029 H         1 UNK         0.2998 
    101 H101       24.9296  -32.1791  -43.7044 H         1 UNK         0.0822 
    102 H102       23.5122  -30.7326  -45.1393 H         1 UNK         0.0787 
    103 H103       23.3124  -32.4079  -45.6076 H         1 UNK         0.0787 
    104 H104       22.0642  -31.6175  -44.6520 H         1 UNK         0.0787 
    105 H105       24.4946  -33.2967  -41.3394 H         1 UNK         0.3055 
    106 H106       24.0668  -35.1234  -40.1583 H         1 UNK         0.1106 
    107 H107       25.1474  -36.3189  -42.0875 H         1 UNK         0.0828 
    108 H108       23.9727  -37.3189  -41.2519 H         1 UNK         0.0828 
    109 H109       23.5566  -36.5959  -42.7961 H         1 UNK         0.0828 
    110 H110       21.8539  -33.3134  -40.9695 H         1 UNK         0.2931 
    111 H111       19.3911  -34.7778  -40.9248 H         1 UNK         0.0412 
    112 H112       17.6794  -34.5003  -39.2210 H         1 UNK         0.3472 
    113 H113       18.2024  -34.4594  -37.5578 H         1 UNK         0.3472 
    114 H114       19.3833  -32.7157  -42.1077 H         1 UNK         0.0970 
    115 H115       18.4009  -32.4319  -40.7010 H         1 UNK         0.0970 
    116 H116       19.8818  -28.8832  -40.8922 H         1 UNK         0.0612 
    117 H117       18.4680  -29.9023  -40.9810 H         1 UNK         0.0612 
@<TRIPOS>BOND
     1    1    2 1    
     2    1   62 1    
     3    1   63 1    
     4    1   64 1    
     5    2    3 2    
     6    2    4 am   BACKBONE|DICT|INTERRES
     7    4    5 1    
     8    4   65 1    
     9    5    6 1    
    10    5   25 1    
    11    5   66 1    
    12    6    7 1    
    13    6   67 1    
    14    6   68 1    
    15    7    8 1    
    16    8    9 1    
    17    8   69 1    
    18    8   70 1    
    19    9   10 ar   
    20    9   14 ar   
    21   10   11 ar   
    22   10   71 1    
    23   11   12 ar   
    24   11   61 1    
    25   12   13 ar   
    26   12   72 1    
    27   13   14 ar   
    28   13   15 1    
    29   14   73 1    
    30   15   16 1    
    31   15   74 1    
    32   15   75 1    
    33   16   17 1    
    34   17   18 1    
    35   17   76 1    
    36   17   77 1    
    37   18   19 1    
    38   18   27 1    
    39   18   78 1    
    40   19   20 am   BACKBONE|DICT|INTERRES
    41   19   79 1    
    42   20   21 2    
    43   20   22 1    
    44   22   23 1    
    45   22   24 1    
    46   22   80 1    
    47   23   81 1    
    48   23   82 1    
    49   23   83 1    
    50   24   25 am   BACKBONE|DICT|INTERRES
    51   24   84 1    
    52   25   26 2    
    53   27   28 2    
    54   27   29 am   BACKBONE|DICT|INTERRES
    55   29   30 1    
    56   29   85 1    
    57   30   31 1    
    58   30   32 1    
    59   30   86 1    
    60   31   87 1    
    61   31   88 1    
    62   31   89 1    
    63   32   33 2    
    64   32   34 am   BACKBONE|DICT|INTERRES
    65   34   35 1    
    66   34   90 1    
    67   35   36 1    
    68   35   37 1    
    69   35   91 1    
    70   36   92 1    
    71   36   93 1    
    72   36   94 1    
    73   37   38 2    
    74   37   39 am   BACKBONE|DICT|INTERRES
    75   39   40 1    
    76   39   95 1    
    77   40   41 1    
    78   40   42 1    
    79   40   96 1    
    80   41   97 1    
    81   41   98 1    
    82   41   99 1    
    83   42   43 2    
    84   42   44 am   BACKBONE|DICT|INTERRES
    85   44   45 1    
    86   44  100 1    
    87   45   46 1    
    88   45   47 1    
    89   45  101 1    
    90   46  102 1    
    91   46  103 1    
    92   46  104 1    
    93   47   48 2    
    94   47   49 am   BACKBONE|DICT|INTERRES
    95   49   50 1    
    96   49  105 1    
    97   50   51 1    
    98   50   52 1    
    99   50  106 1    
   100   51  107 1    
   101   51  108 1    
   102   51  109 1    
   103   52   53 2    
   104   52   54 am   BACKBONE|DICT|INTERRES
   105   54   55 1    
   106   54  110 1    
   107   55   56 1    
   108   55   59 1    
   109   55  111 1    
   110   56   57 am   BACKBONE|DICT|INTERRES
   111   56   58 2    
   112   57  112 1    
   113   57  113 1    
   114   59   60 1    
   115   59  114 1    
   116   59  115 1    
   117   60   61 1    
   118   61  116 1    
   119   61  117 1    
@<TRIPOS>SUBSTRUCTURE
     1 UNK         1 GROUP             0       ****    0 ROOT    
