@<TRIPOS>MOLECULE
3R8
117   119    1
SMALL
USER_CHARGES


@<TRIPOS>ATOM
      1 CA         17.7583  -24.5419  -39.7388 C.3       0 UNK        -0.2013 
      2 C          17.0690  -24.8424  -41.0615 C.2       0 UNK         0.4866 
      3 O          15.8418  -24.7851  -41.1409 O.2       0 UNK        -0.5176 
      4 N          17.8485  -25.1590  -42.0992 N.am      1 UNK        -0.4884 
      5 CA         17.3937  -25.4411  -43.4592 C.3       1 UNK         0.0853 
      6 C6         16.7633  -26.8539  -43.5921 C.3       10 UNK        -0.0849 
      7 S7         15.5871  -26.9509  -44.9833 S.3       10 UNK        -0.2776 
      8 C8         14.8849  -28.6133  -44.7395 C.3       10 UNK         0.0316 
      9 C9         15.9356  -29.7031  -44.8969 C.ar      10 UNK        -0.0863 
     10 C10        16.3195  -30.4799  -43.7985 C.ar      10 UNK        -0.1009 
     11 C11        17.2850  -31.4810  -43.9402 C.ar      10 UNK        -0.0712 
     12 C12        17.8594  -31.7068  -45.1948 C.ar      10 UNK        -0.0894 
     13 C13        17.5071  -30.9152  -46.2933 C.ar      10 UNK        -0.0745 
     14 C14        16.5307  -29.9277  -46.1422 C.ar      10 UNK        -0.0972 
     15 C15        18.2084  -31.1047  -47.6332 C.3       10 UNK         0.0209 
     16 S16        19.3755  -29.7489  -48.0104 S.3       10 UNK        -0.2568 
     17 C17        20.5079  -29.8124  -46.5762 C.3       10 UNK        -0.0983 
     18 CA         21.1883  -28.4643  -46.2047 C.3       3 UNK         0.0876 
     19 N          20.2439  -27.3427  -46.2441 N.am      3 UNK        -0.4424 
     20 C          20.5039  -26.1341  -46.7564 C.2       2 UNK         0.4918 
     21 O          21.6044  -25.7957  -47.1918 O.2       2 UNK        -0.4875 
     22 CA         19.3408  -25.1233  -46.7821 C.3       2 UNK         0.0481 
     23 CB         18.6374  -25.1630  -48.1480 C.3       2 UNK        -0.1831 
     24 N          18.3433  -25.3172  -45.7226 N.am      2 UNK        -0.4498 
     25 C          18.5883  -25.2289  -44.4091 C.2       1 UNK         0.5027 
     26 O          19.7096  -25.0059  -43.9448 O.2       1 UNK        -0.4969 
     27 C          21.8818  -28.5895  -44.8257 C.2       3 UNK         0.5005 
     28 O          22.4292  -29.6576  -44.5524 O.2       3 UNK        -0.5279 
     29 N          21.7981  -27.5485  -43.9734 N.am      4 UNK        -0.4463 
     30 CA         22.0982  -27.5270  -42.5294 C.3       4 UNK         0.0283 
     31 CB         22.2540  -26.0763  -42.0401 C.3       4 UNK        -0.1875 
     32 C          23.2939  -28.3607  -42.0414 C.2       4 UNK         0.4949 
     33 O          23.1352  -29.1096  -41.0781 O.2       4 UNK        -0.5039 
     34 N          24.4578  -28.1958  -42.6891 N.am      5 UNK        -0.4663 
     35 CA         25.7103  -28.9295  -42.4419 C.3       5 UNK         0.0242 
     36 CB         25.5774  -30.3788  -42.9563 C.3       5 UNK        -0.1982 
     37 C          26.1876  -28.8629  -40.9744 C.2       5 UNK         0.5017 
     38 O          26.6131  -29.8762  -40.4187 O.2       5 UNK        -0.5012 
     39 N          26.0798  -27.6657  -40.3760 N.am      6 UNK        -0.4439 
     40 CA         26.3403  -27.3543  -38.9631 C.3       6 UNK         0.0297 
     41 CB         27.8319  -27.5471  -38.6119 C.3       6 UNK        -0.2006 
     42 C          25.3866  -28.1012  -38.0055 C.2       6 UNK         0.4892 
     43 O          25.8297  -28.6483  -36.9941 O.2       6 UNK        -0.5089 
     44 N          24.0903  -28.0877  -38.3538 N.am      7 UNK        -0.4243 
     45 CA         22.9629  -28.7274  -37.6634 C.3       7 UNK         0.0196 
     46 CB         22.7441  -28.1144  -36.2630 C.3       7 UNK        -0.2007 
     47 C          23.0797  -30.2634  -37.6474 C.2       7 UNK         0.5020 
     48 O          22.9188  -30.8906  -36.5986 O.2       7 UNK        -0.5147 
     49 N          23.3538  -30.8406  -38.8214 N.am      8 UNK        -0.4734 
     50 CA         23.5126  -32.2781  -39.0412 C.3       8 UNK         0.0238 
     51 CB         24.9424  -32.7149  -38.6606 C.3       8 UNK        -0.1912 
     52 C          23.1383  -32.6279  -40.4899 C.2       8 UNK         0.5038 
     53 O          23.8878  -33.3376  -41.1639 O.2       8 UNK        -0.5046 
     54 N          22.0020  -32.0912  -40.9544 N.am      9 UNK        -0.4200 
     55 CA         21.4890  -32.2635  -42.3198 C.3       9 UNK         0.0839 
     56 C          21.1110  -33.7272  -42.6816 C.2       9 UNK         0.5513 
     57 N          21.1333  -34.0683  -43.9634 N.am      9 UNK        -0.7519 
     58 O          20.7659  -34.5404  -41.8263 O.2       9 UNK        -0.4960 
     59 C59        20.3464  -31.2628  -42.6339 C.3       10 UNK        -0.0876 
     60 S60        18.8367  -31.4344  -41.6172 S.3       10 UNK        -0.2414 
     61 C61        17.7035  -32.3220  -42.7401 C.3       10 UNK         0.0169 
     62 H62        18.8416  -24.6370  -39.8123 H         1 UNK         0.0903 
     63 H63        17.5279  -23.5265  -39.4176 H         1 UNK         0.0903 
     64 H64        17.4095  -25.2303  -38.9694 H         1 UNK         0.0903 
     65 H65        18.8583  -25.1316  -42.0183 H         1 UNK         0.3096 
     66 H66        16.6480  -24.6836  -43.7126 H         1 UNK         0.1121 
     67 H67        17.5289  -27.6263  -43.6922 H         1 UNK         0.0849 
     68 H68        16.2061  -27.1063  -42.6886 H         1 UNK         0.0849 
     69 H69        14.4102  -28.6640  -43.7582 H         1 UNK         0.0865 
     70 H70        14.0915  -28.7738  -45.4708 H         1 UNK         0.0865 
     71 H71        15.8733  -30.3045  -42.8289 H         1 UNK         0.1346 
     72 H72        18.6095  -32.4777  -45.3084 H         1 UNK         0.1412 
     73 H73        16.2535  -29.3139  -46.9888 H         1 UNK         0.1426 
     74 H74        17.4620  -31.1597  -48.4269 H         1 UNK         0.0716 
     75 H75        18.7483  -32.0526  -47.6556 H         1 UNK         0.0716 
     76 H76        21.2627  -30.5737  -46.7820 H         1 UNK         0.0695 
     77 H77        19.9508  -30.1720  -45.7148 H         1 UNK         0.0695 
     78 H78        21.9823  -28.2907  -46.9341 H         1 UNK         0.0983 
     79 H79        19.3069  -27.5399  -45.9250 H         1 UNK         0.3095 
     80 H80        19.7709  -24.1284  -46.6496 H         1 UNK         0.0454 
     81 H81        19.3475  -24.9919  -48.9584 H         1 UNK         0.0851 
     82 H82        17.8710  -24.3916  -48.2244 H         1 UNK         0.0851 
     83 H83        18.1634  -26.1287  -48.3299 H         1 UNK         0.0851 
     84 H84        17.4006  -25.5374  -46.0174 H         1 UNK         0.2976 
     85 H85        21.3264  -26.7227  -44.3194 H         1 UNK         0.3116 
     86 H86        21.2167  -27.9393  -42.0355 H         1 UNK         0.0646 
     87 H87        21.3104  -25.5367  -42.0783 H         1 UNK         0.0847 
     88 H88        22.9821  -25.5232  -42.6342 H         1 UNK         0.0847 
     89 H89        22.5853  -26.0394  -41.0011 H         1 UNK         0.0847 
     90 H90        24.4713  -27.5481  -43.4648 H         1 UNK         0.3040 
     91 H91        26.4848  -28.4393  -43.0339 H         1 UNK         0.1015 
     92 H92        26.5249  -30.9139  -42.8827 H         1 UNK         0.0786 
     93 H93        25.2719  -30.4013  -44.0024 H         1 UNK         0.0786 
     94 H94        24.8391  -30.9412  -42.3844 H         1 UNK         0.0786 
     95 H95        25.7219  -26.9029  -40.9345 H         1 UNK         0.3172 
     96 H96        26.1158  -26.2936  -38.8412 H         1 UNK         0.0595 
     97 H97        28.0437  -27.1871  -37.6044 H         1 UNK         0.0839 
     98 H98        28.4762  -26.9934  -39.2946 H         1 UNK         0.0839 
     99 H99        28.1272  -28.5961  -38.6473 H         1 UNK         0.0839 
    100 H100       23.8587  -27.6670  -39.2422 H         1 UNK         0.2998 
    101 H101       22.0766  -28.5013  -38.2585 H         1 UNK         0.0822 
    102 H102       22.6392  -27.0308  -36.3161 H         1 UNK         0.0787 
    103 H103       21.8347  -28.5055  -35.8053 H         1 UNK         0.0787 
    104 H104       23.5688  -28.3394  -35.5861 H         1 UNK         0.0787 
    105 H105       23.4287  -30.2503  -39.6508 H         1 UNK         0.3055 
    106 H106       22.8081  -32.8175  -38.4040 H         1 UNK         0.1106 
    107 H107       25.1656  -32.4871  -37.6184 H         1 UNK         0.0828 
    108 H108       25.0732  -33.7898  -38.7910 H         1 UNK         0.0828 
    109 H109       25.6891  -32.2152  -39.2788 H         1 UNK         0.0828 
    110 H110       21.4361  -31.5298  -40.3361 H         1 UNK         0.2931 
    111 H111       22.3213  -31.9947  -42.9742 H         1 UNK         0.0412 
    112 H112       21.4305  -33.4154  -44.6715 H         1 UNK         0.3472 
    113 H113       20.8833  -35.0097  -44.2235 H         1 UNK         0.3472 
    114 H114       20.0934  -31.3124  -43.6907 H         1 UNK         0.0970 
    115 H115       20.7166  -30.2493  -42.4841 H         1 UNK         0.0970 
    116 H116       16.8144  -32.6111  -42.1782 H         1 UNK         0.0612 
    117 H117       18.1700  -33.2530  -43.0650 H         1 UNK         0.0612 
@<TRIPOS>BOND
     1    1    2 1    
     2    1   62 1    
     3    1   63 1    
     4    1   64 1    
     5    2    3 2    
     6    2    4 am   BACKBONE|DICT|INTERRES
     7    4    5 1    
     8    4   65 1    
     9    5    6 1    
    10    5   25 1    
    11    5   66 1    
    12    6    7 1    
    13    6   67 1    
    14    6   68 1    
    15    7    8 1    
    16    8    9 1    
    17    8   69 1    
    18    8   70 1    
    19    9   10 ar   
    20    9   14 ar   
    21   10   11 ar   
    22   10   71 1    
    23   11   12 ar   
    24   11   61 1    
    25   12   13 ar   
    26   12   72 1    
    27   13   14 ar   
    28   13   15 1    
    29   14   73 1    
    30   15   16 1    
    31   15   74 1    
    32   15   75 1    
    33   16   17 1    
    34   17   18 1    
    35   17   76 1    
    36   17   77 1    
    37   18   19 1    
    38   18   27 1    
    39   18   78 1    
    40   19   20 am   BACKBONE|DICT|INTERRES
    41   19   79 1    
    42   20   21 2    
    43   20   22 1    
    44   22   23 1    
    45   22   24 1    
    46   22   80 1    
    47   23   81 1    
    48   23   82 1    
    49   23   83 1    
    50   24   25 am   BACKBONE|DICT|INTERRES
    51   24   84 1    
    52   25   26 2    
    53   27   28 2    
    54   27   29 am   BACKBONE|DICT|INTERRES
    55   29   30 1    
    56   29   85 1    
    57   30   31 1    
    58   30   32 1    
    59   30   86 1    
    60   31   87 1    
    61   31   88 1    
    62   31   89 1    
    63   32   33 2    
    64   32   34 am   BACKBONE|DICT|INTERRES
    65   34   35 1    
    66   34   90 1    
    67   35   36 1    
    68   35   37 1    
    69   35   91 1    
    70   36   92 1    
    71   36   93 1    
    72   36   94 1    
    73   37   38 2    
    74   37   39 am   BACKBONE|DICT|INTERRES
    75   39   40 1    
    76   39   95 1    
    77   40   41 1    
    78   40   42 1    
    79   40   96 1    
    80   41   97 1    
    81   41   98 1    
    82   41   99 1    
    83   42   43 2    
    84   42   44 am   BACKBONE|DICT|INTERRES
    85   44   45 1    
    86   44  100 1    
    87   45   46 1    
    88   45   47 1    
    89   45  101 1    
    90   46  102 1    
    91   46  103 1    
    92   46  104 1    
    93   47   48 2    
    94   47   49 am   BACKBONE|DICT|INTERRES
    95   49   50 1    
    96   49  105 1    
    97   50   51 1    
    98   50   52 1    
    99   50  106 1    
   100   51  107 1    
   101   51  108 1    
   102   51  109 1    
   103   52   53 2    
   104   52   54 am   BACKBONE|DICT|INTERRES
   105   54   55 1    
   106   54  110 1    
   107   55   56 1    
   108   55   59 1    
   109   55  111 1    
   110   56   57 am   BACKBONE|DICT|INTERRES
   111   56   58 2    
   112   57  112 1    
   113   57  113 1    
   114   59   60 1    
   115   59  114 1    
   116   59  115 1    
   117   60   61 1    
   118   61  116 1    
   119   61  117 1    
@<TRIPOS>SUBSTRUCTURE
     1 UNK         1 GROUP             0       ****    0 ROOT    
