@<TRIPOS>MOLECULE
3R8
117   119    1
SMALL
USER_CHARGES


@<TRIPOS>ATOM
      1 CA         13.4269  -25.7025  -42.0037 C.3       0 UNK        -0.2013 
      2 C          14.5718  -25.6576  -43.0045 C.2       0 UNK         0.4866 
      3 O          15.2597  -24.6415  -43.1018 O.2       0 UNK        -0.5176 
      4 N          14.7806  -26.7512  -43.7506 N.am      1 UNK        -0.4884 
      5 CA         15.8502  -26.8893  -44.7496 C.3       1 UNK         0.0853 
      6 C6         15.5468  -28.0560  -45.7267 C.3       10 UNK        -0.0849 
      7 S7         16.3799  -27.8709  -47.3415 S.3       10 UNK        -0.2776 
      8 C8         17.2481  -29.4644  -47.5225 C.3       10 UNK         0.0316 
      9 C9         18.4467  -29.5918  -46.5909 C.ar      10 UNK        -0.0863 
     10 C10        18.3769  -30.4022  -45.4546 C.ar      10 UNK        -0.1009 
     11 C11        19.4840  -30.5416  -44.6127 C.ar      10 UNK        -0.0712 
     12 C12        20.6736  -29.8706  -44.9144 C.ar      10 UNK        -0.0894 
     13 C13        20.7510  -29.0470  -46.0413 C.ar      10 UNK        -0.0745 
     14 C14        19.6369  -28.9163  -46.8776 C.ar      10 UNK        -0.0972 
     15 C15        22.0373  -28.3062  -46.3730 C.3       10 UNK         0.0209 
     16 S16        22.0137  -26.5935  -45.7503 S.3       10 UNK        -0.2568 
     17 C17        22.7592  -26.7518  -44.0935 C.3       10 UNK        -0.0983 
     18 CA         21.8246  -26.2666  -42.9599 C.3       3 UNK         0.0876 
     19 N          20.6578  -27.1370  -42.8113 N.am      3 UNK        -0.4424 
     20 C          19.5782  -26.8643  -42.0687 C.2       2 UNK         0.4918 
     21 O          19.4297  -25.8384  -41.4024 O.2       2 UNK        -0.4875 
     22 CA         18.4726  -27.9335  -42.0842 C.3       2 UNK         0.0481 
     23 CB         18.0279  -28.2890  -40.6551 C.3       2 UNK        -0.1831 
     24 N          17.2915  -27.5833  -42.8809 N.am      2 UNK        -0.4498 
     25 C          17.2487  -27.0305  -44.1063 C.2       1 UNK         0.5027 
     26 O          18.2328  -26.6371  -44.7305 O.2       1 UNK        -0.4969 
     27 C          22.6237  -26.1226  -41.6500 C.2       3 UNK         0.5005 
     28 O          23.1850  -25.0537  -41.4037 O.2       3 UNK        -0.5279 
     29 N          22.7003  -27.2061  -40.8611 N.am      4 UNK        -0.4463 
     30 CA         23.4542  -27.3870  -39.6116 C.3       4 UNK         0.0283 
     31 CB         23.0566  -26.3631  -38.5311 C.3       4 UNK        -0.1875 
     32 C          24.9750  -27.4300  -39.8347 C.2       4 UNK         0.4949 
     33 O          25.6146  -28.4085  -39.4504 O.2       4 UNK        -0.5039 
     34 N          25.5173  -26.4058  -40.5061 N.am      5 UNK        -0.4663 
     35 CA         26.9135  -26.3226  -40.9494 C.3       5 UNK         0.0242 
     36 CB         27.2060  -24.8891  -41.4199 C.3       5 UNK        -0.1982 
     37 C          27.2557  -27.3347  -42.0592 C.2       5 UNK         0.5017 
     38 O          28.4161  -27.7263  -42.1828 O.2       5 UNK        -0.5012 
     39 N          26.2362  -27.7535  -42.8192 N.am      6 UNK        -0.4439 
     40 CA         26.2856  -28.8243  -43.8136 C.3       6 UNK         0.0297 
     41 CB         26.0972  -28.2351  -45.2247 C.3       6 UNK        -0.2006 
     42 C          25.2387  -29.8910  -43.4494 C.2       6 UNK         0.4892 
     43 O          24.4400  -30.2858  -44.2987 O.2       6 UNK        -0.5089 
     44 N          25.2804  -30.3153  -42.1772 N.am      7 UNK        -0.4243 
     45 CA         24.4184  -31.2817  -41.4868 C.3       7 UNK         0.0196 
     46 CB         24.3034  -32.6136  -42.2565 C.3       7 UNK        -0.2007 
     47 C          23.0296  -30.7252  -41.1342 C.2       7 UNK         0.5020 
     48 O          22.4763  -29.8810  -41.8426 O.2       7 UNK        -0.5147 
     49 N          22.4856  -31.2272  -40.0197 N.am      8 UNK        -0.4734 
     50 CA         21.1291  -30.9329  -39.5445 C.3       8 UNK         0.0238 
     51 CB         21.1566  -30.7875  -38.0136 C.3       8 UNK        -0.1912 
     52 C          20.1108  -32.0075  -39.9711 C.2       8 UNK         0.5038 
     53 O          18.9149  -31.8094  -39.7591 O.2       8 UNK        -0.5046 
     54 N          20.5955  -33.1083  -40.5670 N.am      9 UNK        -0.4200 
     55 CA         19.8219  -34.2618  -41.0629 C.3       9 UNK         0.0839 
     56 C          19.1357  -35.1110  -39.9480 C.2       9 UNK         0.5513 
     57 N          19.5369  -34.9956  -38.6876 N.am      9 UNK        -0.7519 
     58 O          18.2484  -35.9130  -40.2291 O.2       9 UNK        -0.4960 
     59 C59        18.8486  -33.8976  -42.2219 C.3       10 UNK        -0.0876 
     60 S60        19.6756  -33.1422  -43.6669 S.3       10 UNK        -0.2414 
     61 C61        19.3690  -31.3797  -43.3520 C.3       10 UNK         0.0169 
     62 H62        13.8056  -25.5491  -40.9935 H         1 UNK         0.0903 
     63 H63        12.7078  -24.9131  -42.2212 H         1 UNK         0.0903 
     64 H64        12.9000  -26.6562  -42.0271 H         1 UNK         0.0903 
     65 H65        14.1726  -27.5509  -43.6378 H         1 UNK         0.3096 
     66 H66        15.8653  -25.9613  -45.3269 H         1 UNK         0.1121 
     67 H67        14.4775  -28.0897  -45.9421 H         1 UNK         0.0849 
     68 H68        15.7838  -29.0210  -45.2759 H         1 UNK         0.0849 
     69 H69        16.5435  -30.2826  -47.3646 H         1 UNK         0.0865 
     70 H70        17.5893  -29.5596  -48.5545 H         1 UNK         0.0865 
     71 H71        17.4603  -30.9262  -45.2207 H         1 UNK         0.1346 
     72 H72        21.5369  -29.9846  -44.2716 H         1 UNK         0.1412 
     73 H73        19.6933  -28.2804  -47.7506 H         1 UNK         0.1426 
     74 H74        22.1656  -28.2763  -47.4560 H         1 UNK         0.0716 
     75 H75        22.9051  -28.8424  -45.9877 H         1 UNK         0.0716 
     76 H76        23.6780  -26.1618  -44.1113 H         1 UNK         0.0695 
     77 H77        23.0619  -27.7852  -43.9173 H         1 UNK         0.0695 
     78 H78        21.4591  -25.2698  -43.2170 H         1 UNK         0.0983 
     79 H79        20.6564  -27.9711  -43.3810 H         1 UNK         0.3095 
     80 H80        18.8919  -28.8349  -42.5242 H         1 UNK         0.0454 
     81 H81        18.8849  -28.5086  -40.0181 H         1 UNK         0.0851 
     82 H82        17.3876  -29.1714  -40.6445 H         1 UNK         0.0851 
     83 H83        17.4815  -27.4688  -40.1879 H         1 UNK         0.0851 
     84 H84        16.4020  -27.8189  -42.4669 H         1 UNK         0.2976 
     85 H85        22.2966  -28.0648  -41.2299 H         1 UNK         0.3116 
     86 H86        23.1654  -28.3696  -39.2367 H         1 UNK         0.0646 
     87 H87        23.3409  -25.3452  -38.7983 H         1 UNK         0.0847 
     88 H88        21.9812  -26.3740  -38.3539 H         1 UNK         0.0847 
     89 H89        23.5439  -26.5936  -37.5830 H         1 UNK         0.0847 
     90 H90        24.8885  -25.6594  -40.7952 H         1 UNK         0.3040 
     91 H91        27.5557  -26.5457  -40.0943 H         1 UNK         0.1015 
     92 H92        28.2443  -24.7863  -41.7388 H         1 UNK         0.0786 
     93 H93        27.0416  -24.1678  -40.6191 H         1 UNK         0.0786 
     94 H94        26.5752  -24.6040  -42.2631 H         1 UNK         0.0786 
     95 H95        25.3207  -27.3854  -42.6072 H         1 UNK         0.3172 
     96 H96        27.2565  -29.3234  -43.7866 H         1 UNK         0.0595 
     97 H97        25.1303  -27.7479  -45.3407 H         1 UNK         0.0839 
     98 H98        26.1603  -29.0155  -45.9842 H         1 UNK         0.0839 
     99 H99        26.8701  -27.5009  -45.4519 H         1 UNK         0.0839 
    100 H100       25.9631  -29.8709  -41.5776 H         1 UNK         0.2998 
    101 H101       24.9338  -31.4874  -40.5469 H         1 UNK         0.0822 
    102 H102       23.8360  -33.3828  -41.6413 H         1 UNK         0.0787 
    103 H103       25.2833  -32.9891  -42.5517 H         1 UNK         0.0787 
    104 H104       23.6966  -32.5129  -43.1574 H         1 UNK         0.0787 
    105 H105       23.0205  -31.8866  -39.4707 H         1 UNK         0.3055 
    106 H106       20.7868  -29.9864  -39.9672 H         1 UNK         0.1106 
    107 H107       21.8342  -29.9921  -37.7030 H         1 UNK         0.0828 
    108 H108       20.1681  -30.5357  -37.6265 H         1 UNK         0.0828 
    109 H109       21.4732  -31.7087  -37.5233 H         1 UNK         0.0828 
    110 H110       21.5926  -33.1702  -40.7002 H         1 UNK         0.2931 
    111 H111       20.5692  -34.9351  -41.4845 H         1 UNK         0.0412 
    112 H112       20.2721  -34.3535  -38.4401 H         1 UNK         0.3472 
    113 H113       19.0951  -35.5568  -37.9761 H         1 UNK         0.3472 
    114 H114       18.3534  -34.7980  -42.5898 H         1 UNK         0.0970 
    115 H115       18.0451  -33.2533  -41.8628 H         1 UNK         0.0970 
    116 H116       18.3761  -31.2434  -42.9208 H         1 UNK         0.0612 
    117 H117       20.0811  -31.0224  -42.6094 H         1 UNK         0.0612 
@<TRIPOS>BOND
     1    1    2 1    
     2    1   62 1    
     3    1   63 1    
     4    1   64 1    
     5    2    3 2    
     6    2    4 am   BACKBONE|DICT|INTERRES
     7    4    5 1    
     8    4   65 1    
     9    5    6 1    
    10    5   25 1    
    11    5   66 1    
    12    6    7 1    
    13    6   67 1    
    14    6   68 1    
    15    7    8 1    
    16    8    9 1    
    17    8   69 1    
    18    8   70 1    
    19    9   10 ar   
    20    9   14 ar   
    21   10   11 ar   
    22   10   71 1    
    23   11   12 ar   
    24   11   61 1    
    25   12   13 ar   
    26   12   72 1    
    27   13   14 ar   
    28   13   15 1    
    29   14   73 1    
    30   15   16 1    
    31   15   74 1    
    32   15   75 1    
    33   16   17 1    
    34   17   18 1    
    35   17   76 1    
    36   17   77 1    
    37   18   19 1    
    38   18   27 1    
    39   18   78 1    
    40   19   20 am   BACKBONE|DICT|INTERRES
    41   19   79 1    
    42   20   21 2    
    43   20   22 1    
    44   22   23 1    
    45   22   24 1    
    46   22   80 1    
    47   23   81 1    
    48   23   82 1    
    49   23   83 1    
    50   24   25 am   BACKBONE|DICT|INTERRES
    51   24   84 1    
    52   25   26 2    
    53   27   28 2    
    54   27   29 am   BACKBONE|DICT|INTERRES
    55   29   30 1    
    56   29   85 1    
    57   30   31 1    
    58   30   32 1    
    59   30   86 1    
    60   31   87 1    
    61   31   88 1    
    62   31   89 1    
    63   32   33 2    
    64   32   34 am   BACKBONE|DICT|INTERRES
    65   34   35 1    
    66   34   90 1    
    67   35   36 1    
    68   35   37 1    
    69   35   91 1    
    70   36   92 1    
    71   36   93 1    
    72   36   94 1    
    73   37   38 2    
    74   37   39 am   BACKBONE|DICT|INTERRES
    75   39   40 1    
    76   39   95 1    
    77   40   41 1    
    78   40   42 1    
    79   40   96 1    
    80   41   97 1    
    81   41   98 1    
    82   41   99 1    
    83   42   43 2    
    84   42   44 am   BACKBONE|DICT|INTERRES
    85   44   45 1    
    86   44  100 1    
    87   45   46 1    
    88   45   47 1    
    89   45  101 1    
    90   46  102 1    
    91   46  103 1    
    92   46  104 1    
    93   47   48 2    
    94   47   49 am   BACKBONE|DICT|INTERRES
    95   49   50 1    
    96   49  105 1    
    97   50   51 1    
    98   50   52 1    
    99   50  106 1    
   100   51  107 1    
   101   51  108 1    
   102   51  109 1    
   103   52   53 2    
   104   52   54 am   BACKBONE|DICT|INTERRES
   105   54   55 1    
   106   54  110 1    
   107   55   56 1    
   108   55   59 1    
   109   55  111 1    
   110   56   57 am   BACKBONE|DICT|INTERRES
   111   56   58 2    
   112   57  112 1    
   113   57  113 1    
   114   59   60 1    
   115   59  114 1    
   116   59  115 1    
   117   60   61 1    
   118   61  116 1    
   119   61  117 1    
@<TRIPOS>SUBSTRUCTURE
     1 UNK         1 GROUP             0       ****    0 ROOT    
