@<TRIPOS>MOLECULE
3R8
117   119    1
SMALL
USER_CHARGES


@<TRIPOS>ATOM
      1 CA         16.1076  -22.6169  -45.8960 C.3       0 UNK        -0.2013 
      2 C          16.5888  -24.0044  -45.4974 C.2       0 UNK         0.4866 
      3 O          17.4134  -24.5890  -46.1994 O.2       0 UNK        -0.5176 
      4 N          16.0727  -24.5348  -44.3818 N.am      1 UNK        -0.4884 
      5 CA         16.4499  -25.8354  -43.8148 C.3       1 UNK         0.0853 
      6 C6         15.3378  -26.3876  -42.8847 C.3       10 UNK        -0.0849 
      7 S7         13.9882  -27.1054  -43.8771 S.3       10 UNK        -0.2776 
      8 C8         14.2856  -28.8967  -43.6770 C.3       10 UNK         0.0316 
      9 C9         15.7037  -29.3250  -44.0484 C.ar      10 UNK        -0.0863 
     10 C10        16.5231  -29.9391  -43.0956 C.ar      10 UNK        -0.1009 
     11 C11        17.8074  -30.3752  -43.4355 C.ar      10 UNK        -0.0712 
     12 C12        18.2796  -30.1827  -44.7369 C.ar      10 UNK        -0.0894 
     13 C13        17.4780  -29.5540  -45.6945 C.ar      10 UNK        -0.0745 
     14 C14        16.1877  -29.1389  -45.3474 C.ar      10 UNK        -0.0972 
     15 C15        17.9873  -29.3472  -47.1134 C.3       10 UNK         0.0209 
     16 S16        18.9515  -27.8093  -47.2730 S.3       10 UNK        -0.2568 
     17 C17        20.6460  -28.3610  -46.8720 C.3       10 UNK        -0.0983 
     18 CA         21.2882  -27.5691  -45.7054 C.3       3 UNK         0.0876 
     19 N          20.4709  -27.6442  -44.4849 N.am      3 UNK        -0.4424 
     20 C          20.7239  -27.0573  -43.3052 C.2       2 UNK         0.4918 
     21 O          21.7387  -26.4033  -43.0633 O.2       2 UNK        -0.4875 
     22 CA         19.6552  -27.2727  -42.2199 C.3       2 UNK         0.0481 
     23 CB         19.9508  -26.5223  -40.9034 C.3       2 UNK        -0.1831 
     24 N          18.3130  -26.9855  -42.7394 N.am      2 UNK        -0.4498 
     25 C          17.8236  -25.7922  -43.1138 C.2       1 UNK         0.5027 
     26 O          18.4011  -24.7170  -42.9330 O.2       1 UNK        -0.4969 
     27 C          22.7550  -28.0187  -45.5133 C.2       3 UNK         0.5005 
     28 O          23.6304  -27.5642  -46.2509 O.2       3 UNK        -0.5279 
     29 N          22.9994  -28.8827  -44.5170 N.am      4 UNK        -0.4463 
     30 CA         24.3216  -29.3447  -44.0884 C.3       4 UNK         0.0283 
     31 CB         24.1381  -30.5782  -43.1870 C.3       4 UNK        -0.1875 
     32 C          25.1657  -28.2738  -43.3654 C.2       4 UNK         0.4949 
     33 O          26.3380  -28.5347  -43.0950 O.2       4 UNK        -0.5039 
     34 N          24.5673  -27.1225  -43.0151 N.am      5 UNK        -0.4663 
     35 CA         25.1264  -25.9561  -42.3083 C.3       5 UNK         0.0242 
     36 CB         26.3356  -25.3561  -43.0520 C.3       5 UNK        -0.1982 
     37 C          25.4484  -26.2177  -40.8270 C.2       5 UNK         0.5017 
     38 O          25.0771  -25.4120  -39.9742 O.2       5 UNK        -0.5012 
     39 N          26.0788  -27.3626  -40.5430 N.am      6 UNK        -0.4439 
     40 CA         26.3180  -27.9053  -39.2026 C.3       6 UNK         0.0297 
     41 CB         27.5081  -28.8777  -39.2758 C.3       6 UNK        -0.2006 
     42 C          25.0803  -28.6075  -38.6042 C.2       6 UNK         0.4892 
     43 O          25.1577  -29.0892  -37.4740 O.2       6 UNK        -0.5089 
     44 N          23.9846  -28.6833  -39.3785 N.am      7 UNK        -0.4243 
     45 CA         22.7134  -29.3615  -39.0873 C.3       7 UNK         0.0196 
     46 CB         22.0126  -28.7463  -37.8578 C.3       7 UNK        -0.2007 
     47 C          22.8350  -30.8964  -39.0023 C.2       7 UNK         0.5020 
     48 O          21.9669  -31.5503  -38.4215 O.2       7 UNK        -0.5147 
     49 N          23.8800  -31.4588  -39.6261 N.am      8 UNK        -0.4734 
     50 CA         24.1256  -32.8961  -39.7711 C.3       8 UNK         0.0238 
     51 CB         25.6205  -33.1136  -40.0730 C.3       8 UNK        -0.1912 
     52 C          23.2074  -33.5090  -40.8473 C.2       8 UNK         0.5038 
     53 O          23.6817  -33.9296  -41.9037 O.2       8 UNK        -0.5046 
     54 N          21.8995  -33.4955  -40.5682 N.am      9 UNK        -0.4200 
     55 CA         20.8219  -33.9432  -41.4627 C.3       9 UNK         0.0839 
     56 C          20.7549  -35.4817  -41.6998 C.2       9 UNK         0.5513 
     57 N          21.4132  -36.3059  -40.8931 N.am      9 UNK        -0.7519 
     58 O          20.1014  -35.9353  -42.6351 O.2       9 UNK        -0.4960 
     59 C59        19.4550  -33.3655  -40.9978 C.3       10 UNK        -0.0876 
     60 S60        18.3881  -32.8581  -42.3869 S.3       10 UNK        -0.2414 
     61 C61        18.6780  -31.0636  -42.3966 C.3       10 UNK         0.0169 
     62 H62        15.3683  -22.2244  -45.1980 H         1 UNK         0.0903 
     63 H63        16.9476  -21.9235  -45.9257 H         1 UNK         0.0903 
     64 H64        15.6552  -22.6471  -46.8870 H         1 UNK         0.0903 
     65 H65        15.4124  -23.9972  -43.8390 H         1 UNK         0.3096 
     66 H66        16.5825  -26.5237  -44.6520 H         1 UNK         0.1121 
     67 H67        15.7030  -27.1522  -42.1971 H         1 UNK         0.0849 
     68 H68        14.9339  -25.5981  -42.2484 H         1 UNK         0.0849 
     69 H69        14.0545  -29.1752  -42.6475 H         1 UNK         0.0865 
     70 H70        13.5776  -29.4421  -44.3026 H         1 UNK         0.0865 
     71 H71        16.1551  -30.1011  -42.0911 H         1 UNK         0.1346 
     72 H72        19.2657  -30.5355  -45.0061 H         1 UNK         0.1412 
     73 H73        15.5568  -28.6660  -46.0883 H         1 UNK         0.1426 
     74 H74        18.5794  -30.2043  -47.4375 H         1 UNK         0.0716 
     75 H75        17.1431  -29.2943  -47.8027 H         1 UNK         0.0716 
     76 H76        20.6461  -29.4298  -46.6525 H         1 UNK         0.0695 
     77 H77        21.2414  -28.2440  -47.7799 H         1 UNK         0.0695 
     78 H78        21.3240  -26.5152  -45.9898 H         1 UNK         0.0983 
     79 H79        19.5892  -28.1232  -44.5962 H         1 UNK         0.3095 
     80 H80        19.6698  -28.3374  -41.9868 H         1 UNK         0.0454 
     81 H81        20.0367  -25.4459  -41.0525 H         1 UNK         0.0851 
     82 H82        19.1717  -26.6981  -40.1621 H         1 UNK         0.0851 
     83 H83        20.8929  -26.8582  -40.4687 H         1 UNK         0.0851 
     84 H84        17.7431  -27.8015  -42.9223 H         1 UNK         0.2976 
     85 H85        22.2115  -29.2095  -43.9786 H         1 UNK         0.3116 
     86 H86        24.8811  -29.6483  -44.9757 H         1 UNK         0.0646 
     87 H87        25.0999  -30.9714  -42.8547 H         1 UNK         0.0847 
     88 H88        23.6327  -31.3866  -43.7161 H         1 UNK         0.0847 
     89 H89        23.5535  -30.3455  -42.2972 H         1 UNK         0.0847 
     90 H90        23.5805  -27.0232  -43.2391 H         1 UNK         0.3040 
     91 H91        24.3337  -25.2054  -42.3216 H         1 UNK         0.1015 
     92 H92        26.0860  -25.1217  -44.0869 H         1 UNK         0.0786 
     93 H93        27.1925  -26.0301  -43.0583 H         1 UNK         0.0786 
     94 H94        26.6596  -24.4283  -42.5786 H         1 UNK         0.0786 
     95 H95        26.3535  -27.9383  -41.3373 H         1 UNK         0.3172 
     96 H96        26.5843  -27.0853  -38.5326 H         1 UNK         0.0595 
     97 H97        27.7534  -29.2745  -38.2896 H         1 UNK         0.0839 
     98 H98        28.4027  -28.3816  -39.6527 H         1 UNK         0.0839 
     99 H99        27.2972  -29.7279  -39.9259 H         1 UNK         0.0839 
    100 H100       24.0411  -28.2330  -40.2803 H         1 UNK         0.2998 
    101 H101       22.0725  -29.1708  -39.9493 H         1 UNK         0.0822 
    102 H102       21.9299  -27.6633  -37.9486 H         1 UNK         0.0787 
    103 H103       21.0008  -29.1384  -37.7472 H         1 UNK         0.0787 
    104 H104       22.5466  -28.9666  -36.9331 H         1 UNK         0.0787 
    105 H105       24.5412  -30.8461  -40.0783 H         1 UNK         0.3055 
    106 H106       23.8994  -33.3919  -38.8241 H         1 UNK         0.1106 
    107 H107       25.8483  -34.1763  -40.1670 H         1 UNK         0.0828 
    108 H108       25.9225  -32.6328  -41.0042 H         1 UNK         0.0828 
    109 H109       26.2480  -32.7194  -39.2734 H         1 UNK         0.0828 
    110 H110       21.6176  -33.0834  -39.6851 H         1 UNK         0.2931 
    111 H111       21.0585  -33.5058  -42.4351 H         1 UNK         0.0412 
    112 H112       21.3680  -37.2995  -41.0576 H         1 UNK         0.3472 
    113 H113       21.9536  -35.9458  -40.1231 H         1 UNK         0.3472 
    114 H114       19.6002  -32.4968  -40.3532 H         1 UNK         0.0970 
    115 H115       18.9101  -34.0816  -40.3792 H         1 UNK         0.0970 
    116 H116       19.7334  -30.8710  -42.5959 H         1 UNK         0.0612 
    117 H117       18.4669  -30.6536  -41.4076 H         1 UNK         0.0612 
@<TRIPOS>BOND
     1    1    2 1    
     2    1   62 1    
     3    1   63 1    
     4    1   64 1    
     5    2    3 2    
     6    2    4 am   BACKBONE|DICT|INTERRES
     7    4    5 1    
     8    4   65 1    
     9    5    6 1    
    10    5   25 1    
    11    5   66 1    
    12    6    7 1    
    13    6   67 1    
    14    6   68 1    
    15    7    8 1    
    16    8    9 1    
    17    8   69 1    
    18    8   70 1    
    19    9   10 ar   
    20    9   14 ar   
    21   10   11 ar   
    22   10   71 1    
    23   11   12 ar   
    24   11   61 1    
    25   12   13 ar   
    26   12   72 1    
    27   13   14 ar   
    28   13   15 1    
    29   14   73 1    
    30   15   16 1    
    31   15   74 1    
    32   15   75 1    
    33   16   17 1    
    34   17   18 1    
    35   17   76 1    
    36   17   77 1    
    37   18   19 1    
    38   18   27 1    
    39   18   78 1    
    40   19   20 am   BACKBONE|DICT|INTERRES
    41   19   79 1    
    42   20   21 2    
    43   20   22 1    
    44   22   23 1    
    45   22   24 1    
    46   22   80 1    
    47   23   81 1    
    48   23   82 1    
    49   23   83 1    
    50   24   25 am   BACKBONE|DICT|INTERRES
    51   24   84 1    
    52   25   26 2    
    53   27   28 2    
    54   27   29 am   BACKBONE|DICT|INTERRES
    55   29   30 1    
    56   29   85 1    
    57   30   31 1    
    58   30   32 1    
    59   30   86 1    
    60   31   87 1    
    61   31   88 1    
    62   31   89 1    
    63   32   33 2    
    64   32   34 am   BACKBONE|DICT|INTERRES
    65   34   35 1    
    66   34   90 1    
    67   35   36 1    
    68   35   37 1    
    69   35   91 1    
    70   36   92 1    
    71   36   93 1    
    72   36   94 1    
    73   37   38 2    
    74   37   39 am   BACKBONE|DICT|INTERRES
    75   39   40 1    
    76   39   95 1    
    77   40   41 1    
    78   40   42 1    
    79   40   96 1    
    80   41   97 1    
    81   41   98 1    
    82   41   99 1    
    83   42   43 2    
    84   42   44 am   BACKBONE|DICT|INTERRES
    85   44   45 1    
    86   44  100 1    
    87   45   46 1    
    88   45   47 1    
    89   45  101 1    
    90   46  102 1    
    91   46  103 1    
    92   46  104 1    
    93   47   48 2    
    94   47   49 am   BACKBONE|DICT|INTERRES
    95   49   50 1    
    96   49  105 1    
    97   50   51 1    
    98   50   52 1    
    99   50  106 1    
   100   51  107 1    
   101   51  108 1    
   102   51  109 1    
   103   52   53 2    
   104   52   54 am   BACKBONE|DICT|INTERRES
   105   54   55 1    
   106   54  110 1    
   107   55   56 1    
   108   55   59 1    
   109   55  111 1    
   110   56   57 am   BACKBONE|DICT|INTERRES
   111   56   58 2    
   112   57  112 1    
   113   57  113 1    
   114   59   60 1    
   115   59  114 1    
   116   59  115 1    
   117   60   61 1    
   118   61  116 1    
   119   61  117 1    
@<TRIPOS>SUBSTRUCTURE
     1 UNK         1 GROUP             0       ****    0 ROOT    
