@<TRIPOS>MOLECULE
3R8
117   119    1
SMALL
USER_CHARGES


@<TRIPOS>ATOM
      1 CA         15.3153  -24.6944  -46.3882 C.3       0 UNK        -0.2013 
      2 C          15.6823  -26.0684  -46.9272 C.2       0 UNK         0.4866 
      3 O          16.1955  -26.1752  -48.0419 O.2       0 UNK        -0.5176 
      4 N          15.4274  -27.1240  -46.1451 N.am      1 UNK        -0.4884 
      5 CA         15.7065  -28.5329  -46.4517 C.3       1 UNK         0.0853 
      6 C6         14.7891  -29.5057  -45.6486 C.3       10 UNK        -0.0849 
      7 S7         14.3454  -28.9969  -43.9448 S.3       10 UNK        -0.2776 
      8 C8         15.6242  -29.8002  -42.9109 C.3       10 UNK         0.0316 
      9 C9         16.7159  -28.8757  -42.3609 C.ar      10 UNK        -0.0863 
     10 C10        17.7599  -29.4477  -41.6264 C.ar      10 UNK        -0.1009 
     11 C11        18.7914  -28.6615  -41.0963 C.ar      10 UNK        -0.0712 
     12 C12        18.7517  -27.2757  -41.2779 C.ar      10 UNK        -0.0894 
     13 C13        17.7223  -26.6866  -42.0175 C.ar      10 UNK        -0.0745 
     14 C14        16.7090  -27.4875  -42.5477 C.ar      10 UNK        -0.0972 
     15 C15        17.6985  -25.1865  -42.2669 C.3       10 UNK         0.0209 
     16 S16        18.1769  -24.7972  -43.9812 S.3       10 UNK        -0.2568 
     17 C17        19.9898  -24.9766  -43.9082 C.3       10 UNK        -0.0983 
     18 CA         20.4901  -26.4012  -44.2573 C.3       3 UNK         0.0876 
     19 N          20.0258  -26.8478  -45.5720 N.am      3 UNK        -0.4424 
     20 C          20.2344  -28.0604  -46.1004 C.2       2 UNK         0.4918 
     21 O          20.9421  -28.9293  -45.5899 O.2       2 UNK        -0.4875 
     22 CA         19.4654  -28.3531  -47.4009 C.3       2 UNK         0.0481 
     23 CB         19.8063  -29.7333  -48.0023 C.3       2 UNK        -0.1831 
     24 N          18.0143  -28.2080  -47.2226 N.am      2 UNK        -0.4498 
     25 C          17.2144  -28.8747  -46.3737 C.2       1 UNK         0.5027 
     26 O          17.6149  -29.7308  -45.5851 O.2       1 UNK        -0.4969 
     27 C          22.0192  -26.4766  -44.0757 C.2       3 UNK         0.5005 
     28 O          22.7759  -26.2412  -45.0216 O.2       3 UNK        -0.5279 
     29 N          22.4298  -26.7528  -42.8350 N.am      4 UNK        -0.4463 
     30 CA         23.8053  -26.7905  -42.3587 C.3       4 UNK         0.0283 
     31 CB         24.4071  -28.1874  -42.6022 C.3       4 UNK        -0.1875 
     32 C          23.7821  -26.4446  -40.8647 C.2       4 UNK         0.4949 
     33 O          22.7165  -26.4771  -40.2432 O.2       4 UNK        -0.5039 
     34 N          24.9598  -26.1400  -40.3090 N.am      5 UNK        -0.4663 
     35 CA         25.1552  -25.7923  -38.8950 C.3       5 UNK         0.0242 
     36 CB         26.4368  -24.9487  -38.7729 C.3       5 UNK        -0.1982 
     37 C          25.2094  -27.0118  -37.9499 C.2       5 UNK         0.5017 
     38 O          25.4182  -26.8318  -36.7491 O.2       5 UNK        -0.5012 
     39 N          25.0467  -28.2214  -38.4944 N.am      6 UNK        -0.4439 
     40 CA         25.0869  -29.5032  -37.8004 C.3       6 UNK         0.0297 
     41 CB         26.5515  -29.9687  -37.6711 C.3       6 UNK        -0.2006 
     42 C          24.2312  -30.5087  -38.5841 C.2       6 UNK         0.4892 
     43 O          23.6666  -30.1552  -39.6225 O.2       6 UNK        -0.5089 
     44 N          24.1903  -31.7580  -38.0989 N.am      7 UNK        -0.4243 
     45 CA         23.4463  -32.8961  -38.6620 C.3       7 UNK         0.0196 
     46 CB         23.5707  -34.0903  -37.7004 C.3       7 UNK        -0.2007 
     47 C          23.8336  -33.3143  -40.0976 C.2       7 UNK         0.5020 
     48 O          23.1584  -34.1659  -40.6772 O.2       7 UNK        -0.5147 
     49 N          24.8742  -32.6915  -40.6695 N.am      8 UNK        -0.4734 
     50 CA         25.2954  -32.7987  -42.0716 C.3       8 UNK         0.0238 
     51 CB         26.5643  -31.9533  -42.2714 C.3       8 UNK        -0.1912 
     52 C          24.2151  -32.3951  -43.0976 C.2       8 UNK         0.5038 
     53 O          24.3420  -32.7589  -44.2674 O.2       8 UNK        -0.5046 
     54 N          23.1720  -31.6833  -42.6473 N.am      9 UNK        -0.4200 
     55 CA         21.9278  -31.4426  -43.3917 C.3       9 UNK         0.0839 
     56 C          21.1178  -32.7269  -43.7488 C.2       9 UNK         0.5513 
     57 N          21.3203  -33.8535  -43.0724 N.am      9 UNK        -0.7519 
     58 O          20.3014  -32.7041  -44.6654 O.2       9 UNK        -0.4960 
     59 C59        21.0375  -30.3906  -42.6796 C.3       10 UNK        -0.0876 
     60 S60        20.5382  -30.8731  -40.9880 S.3       10 UNK        -0.2414 
     61 C61        19.9471  -29.2841  -40.3129 C.3       10 UNK         0.0169 
     62 H62        14.9587  -24.7425  -45.3594 H         1 UNK         0.0903 
     63 H63        16.1852  -24.0384  -46.4120 H         1 UNK         0.0903 
     64 H64        14.5333  -24.2470  -47.0008 H         1 UNK         0.0903 
     65 H65        15.0071  -26.9787  -45.2377 H         1 UNK         0.3096 
     66 H66        15.4506  -28.6850  -47.5033 H         1 UNK         0.1121 
     67 H67        13.8401  -29.5819  -46.1816 H         1 UNK         0.0849 
     68 H68        15.1748  -30.5270  -45.6468 H         1 UNK         0.0849 
     69 H69        16.0905  -30.6133  -43.4687 H         1 UNK         0.0865 
     70 H70        15.1196  -30.2665  -42.0637 H         1 UNK         0.0865 
     71 H71        17.7729  -30.5183  -41.4743 H         1 UNK         0.1346 
     72 H72        19.5339  -26.6559  -40.8605 H         1 UNK         0.1412 
     73 H73        15.9226  -27.0081  -43.1102 H         1 UNK         0.1426 
     74 H74        18.3466  -24.6581  -41.5662 H         1 UNK         0.0716 
     75 H75        16.6900  -24.8096  -42.0907 H         1 UNK         0.0716 
     76 H76        20.3275  -24.6786  -42.9137 H         1 UNK         0.0695 
     77 H77        20.4202  -24.2487  -44.5989 H         1 UNK         0.0695 
     78 H78        20.0543  -27.1096  -43.5543 H         1 UNK         0.0983 
     79 H79        19.4208  -26.2056  -46.0612 H         1 UNK         0.3095 
     80 H80        19.7684  -27.5943  -48.1238 H         1 UNK         0.0454 
     81 H81        20.8731  -29.8111  -48.2152 H         1 UNK         0.0851 
     82 H82        19.2755  -29.9011  -48.9391 H         1 UNK         0.0851 
     83 H83        19.5534  -30.5476  -47.3219 H         1 UNK         0.0851 
     84 H84        17.5664  -27.4860  -47.7826 H         1 UNK         0.2976 
     85 H85        21.7554  -26.8417  -42.0842 H         1 UNK         0.3116 
     86 H86        24.3932  -26.0340  -42.8829 H         1 UNK         0.0646 
     87 H87        25.4571  -28.2223  -42.3108 H         1 UNK         0.0847 
     88 H88        24.3555  -28.4665  -43.6548 H         1 UNK         0.0847 
     89 H89        23.8852  -28.9541  -42.0299 H         1 UNK         0.0847 
     90 H90        25.7888  -26.1490  -40.8871 H         1 UNK         0.3040 
     91 H91        24.3132  -25.1784  -38.5665 H         1 UNK         0.1015 
     92 H92        26.3862  -24.0565  -39.3973 H         1 UNK         0.0786 
     93 H93        27.3219  -25.5151  -39.0652 H         1 UNK         0.0786 
     94 H94        26.5905  -24.6116  -37.7467 H         1 UNK         0.0786 
     95 H95        24.7683  -28.2862  -39.4653 H         1 UNK         0.3172 
     96 H96        24.6453  -29.3927  -36.8079 H         1 UNK         0.0595 
     97 H97        27.0090  -30.1338  -38.6474 H         1 UNK         0.0839 
     98 H98        26.6312  -30.8994  -37.1089 H         1 UNK         0.0839 
     99 H99        27.1560  -29.2305  -37.1436 H         1 UNK         0.0839 
    100 H100       24.7012  -31.9497  -37.2490 H         1 UNK         0.2998 
    101 H101       22.3956  -32.6012  -38.7042 H         1 UNK         0.0822 
    102 H102       23.1967  -33.8423  -36.7069 H         1 UNK         0.0787 
    103 H103       22.9912  -34.9438  -38.0556 H         1 UNK         0.0787 
    104 H104       24.6058  -34.4192  -37.5995 H         1 UNK         0.0787 
    105 H105       25.3504  -31.9965  -40.1141 H         1 UNK         0.3055 
    106 H106       25.5392  -33.8459  -42.2629 H         1 UNK         0.1106 
    107 H107       26.3804  -30.8969  -42.0706 H         1 UNK         0.0828 
    108 H108       27.3715  -32.2855  -41.6184 H         1 UNK         0.0828 
    109 H109       26.9287  -32.0308  -43.2969 H         1 UNK         0.0828 
    110 H110       23.1556  -31.4198  -41.6708 H         1 UNK         0.2931 
    111 H111       22.2281  -31.0083  -44.3468 H         1 UNK         0.0412 
    112 H112       20.7937  -34.6766  -43.3176 H         1 UNK         0.3472 
    113 H113       21.9749  -33.8853  -42.2982 H         1 UNK         0.3472 
    114 H114       20.1406  -30.1899  -43.2698 H         1 UNK         0.0970 
    115 H115       21.5702  -29.4419  -42.6281 H         1 UNK         0.0970 
    116 H116       20.7955  -28.5991  -40.2687 H         1 UNK         0.0612 
    117 H117       19.6243  -29.4430  -39.2836 H         1 UNK         0.0612 
@<TRIPOS>BOND
     1    1    2 1    
     2    1   62 1    
     3    1   63 1    
     4    1   64 1    
     5    2    3 2    
     6    2    4 am   BACKBONE|DICT|INTERRES
     7    4    5 1    
     8    4   65 1    
     9    5    6 1    
    10    5   25 1    
    11    5   66 1    
    12    6    7 1    
    13    6   67 1    
    14    6   68 1    
    15    7    8 1    
    16    8    9 1    
    17    8   69 1    
    18    8   70 1    
    19    9   10 ar   
    20    9   14 ar   
    21   10   11 ar   
    22   10   71 1    
    23   11   12 ar   
    24   11   61 1    
    25   12   13 ar   
    26   12   72 1    
    27   13   14 ar   
    28   13   15 1    
    29   14   73 1    
    30   15   16 1    
    31   15   74 1    
    32   15   75 1    
    33   16   17 1    
    34   17   18 1    
    35   17   76 1    
    36   17   77 1    
    37   18   19 1    
    38   18   27 1    
    39   18   78 1    
    40   19   20 am   BACKBONE|DICT|INTERRES
    41   19   79 1    
    42   20   21 2    
    43   20   22 1    
    44   22   23 1    
    45   22   24 1    
    46   22   80 1    
    47   23   81 1    
    48   23   82 1    
    49   23   83 1    
    50   24   25 am   BACKBONE|DICT|INTERRES
    51   24   84 1    
    52   25   26 2    
    53   27   28 2    
    54   27   29 am   BACKBONE|DICT|INTERRES
    55   29   30 1    
    56   29   85 1    
    57   30   31 1    
    58   30   32 1    
    59   30   86 1    
    60   31   87 1    
    61   31   88 1    
    62   31   89 1    
    63   32   33 2    
    64   32   34 am   BACKBONE|DICT|INTERRES
    65   34   35 1    
    66   34   90 1    
    67   35   36 1    
    68   35   37 1    
    69   35   91 1    
    70   36   92 1    
    71   36   93 1    
    72   36   94 1    
    73   37   38 2    
    74   37   39 am   BACKBONE|DICT|INTERRES
    75   39   40 1    
    76   39   95 1    
    77   40   41 1    
    78   40   42 1    
    79   40   96 1    
    80   41   97 1    
    81   41   98 1    
    82   41   99 1    
    83   42   43 2    
    84   42   44 am   BACKBONE|DICT|INTERRES
    85   44   45 1    
    86   44  100 1    
    87   45   46 1    
    88   45   47 1    
    89   45  101 1    
    90   46  102 1    
    91   46  103 1    
    92   46  104 1    
    93   47   48 2    
    94   47   49 am   BACKBONE|DICT|INTERRES
    95   49   50 1    
    96   49  105 1    
    97   50   51 1    
    98   50   52 1    
    99   50  106 1    
   100   51  107 1    
   101   51  108 1    
   102   51  109 1    
   103   52   53 2    
   104   52   54 am   BACKBONE|DICT|INTERRES
   105   54   55 1    
   106   54  110 1    
   107   55   56 1    
   108   55   59 1    
   109   55  111 1    
   110   56   57 am   BACKBONE|DICT|INTERRES
   111   56   58 2    
   112   57  112 1    
   113   57  113 1    
   114   59   60 1    
   115   59  114 1    
   116   59  115 1    
   117   60   61 1    
   118   61  116 1    
   119   61  117 1    
@<TRIPOS>SUBSTRUCTURE
     1 UNK         1 GROUP             0       ****    0 ROOT    
