@<TRIPOS>MOLECULE
3R8
117   119    1
SMALL
USER_CHARGES


@<TRIPOS>ATOM
      1 CA         15.8698  -23.7444  -42.2814 C.3       0 UNK        -0.2013 
      2 C          16.6163  -25.0077  -42.6815 C.2       0 UNK         0.4866 
      3 O          17.3242  -25.0077  -43.6892 O.2       0 UNK        -0.5176 
      4 N          16.4694  -26.0849  -41.8995 N.am      1 UNK        -0.4884 
      5 CA         17.1126  -27.3860  -42.1160 C.3       1 UNK         0.0853 
      6 C6         16.3397  -28.5327  -41.4098 C.3       10 UNK        -0.0849 
      7 S7         14.8644  -29.0101  -42.3730 S.3       10 UNK        -0.2776 
      8 C8         15.4684  -30.4805  -43.2756 C.3       10 UNK         0.0316 
      9 C9         16.7400  -30.1896  -44.0640 C.ar      10 UNK        -0.0863 
     10 C10        17.9800  -30.6179  -43.5803 C.ar      10 UNK        -0.1009 
     11 C11        19.1649  -30.2905  -44.2518 C.ar      10 UNK        -0.0712 
     12 C12        19.0863  -29.5770  -45.4515 C.ar      10 UNK        -0.0894 
     13 C13        17.8534  -29.1471  -45.9511 C.ar      10 UNK        -0.0745 
     14 C14        16.6826  -29.4583  -45.2531 C.ar      10 UNK        -0.0972 
     15 C15        17.7803  -28.3415  -47.2397 C.3       10 UNK         0.0209 
     16 S16        18.2777  -26.6071  -46.9817 S.3       10 UNK        -0.2568 
     17 C17        20.0557  -26.6550  -47.3915 C.3       10 UNK        -0.0983 
     18 CA         20.9510  -25.9461  -46.3441 C.3       3 UNK         0.0876 
     19 N          20.7935  -26.4988  -44.9905 N.am      3 UNK        -0.4424 
     20 C          21.3266  -25.9703  -43.8768 C.2       2 UNK         0.4918 
     21 O          22.1016  -25.0131  -43.8815 O.2       2 UNK        -0.4875 
     22 CA         20.8531  -26.5688  -42.5404 C.3       2 UNK         0.0481 
     23 CB         21.3260  -25.7513  -41.3185 C.3       2 UNK        -0.1831 
     24 N          19.3952  -26.6683  -42.5750 N.am      2 UNK        -0.4498 
     25 C          18.6062  -27.3438  -41.7333 C.2       1 UNK         0.5027 
     26 O          18.9995  -27.8962  -40.7062 O.2       1 UNK        -0.4969 
     27 C          22.4128  -25.9282  -46.8378 C.2       3 UNK         0.5005 
     28 O          22.8376  -24.9391  -47.4382 O.2       3 UNK        -0.5279 
     29 N          23.1465  -27.0203  -46.5889 N.am      4 UNK        -0.4463 
     30 CA         24.5379  -27.2122  -47.0066 C.3       4 UNK         0.0283 
     31 CB         24.5979  -27.6227  -48.4930 C.3       4 UNK        -0.1875 
     32 C          25.2464  -28.2153  -46.0818 C.2       4 UNK         0.4949 
     33 O          26.0817  -28.9952  -46.5407 O.2       4 UNK        -0.5039 
     34 N          24.8883  -28.1930  -44.7946 N.am      5 UNK        -0.4663 
     35 CA         25.4058  -29.0627  -43.7430 C.3       5 UNK         0.0242 
     36 CB         24.7533  -30.4574  -43.8419 C.3       5 UNK        -0.1982 
     37 C          25.0970  -28.4142  -42.3896 C.2       5 UNK         0.5017 
     38 O          24.3073  -27.4669  -42.3333 O.2       5 UNK        -0.5012 
     39 N          25.6951  -28.9575  -41.3218 N.am      6 UNK        -0.4439 
     40 CA         25.3280  -28.6559  -39.9362 C.3       6 UNK         0.0297 
     41 CB         26.3566  -29.2923  -38.9875 C.3       6 UNK        -0.2006 
     42 C          23.9162  -29.1829  -39.6302 C.2       6 UNK         0.4892 
     43 O          23.5343  -30.2208  -40.1732 O.2       6 UNK        -0.5089 
     44 N          23.1934  -28.4782  -38.7492 N.am      7 UNK        -0.4243 
     45 CA         21.7641  -28.6556  -38.4485 C.3       7 UNK         0.0196 
     46 CB         21.3309  -27.5643  -37.4546 C.3       7 UNK        -0.2007 
     47 C          21.3171  -30.0471  -37.9538 C.2       7 UNK         0.5020 
     48 O          20.1139  -30.3042  -37.9040 O.2       7 UNK        -0.5147 
     49 N          22.2656  -30.9252  -37.6016 N.am      8 UNK        -0.4734 
     50 CA         22.0162  -32.3468  -37.3513 C.3       8 UNK         0.0238 
     51 CB         23.2694  -32.9840  -36.7297 C.3       8 UNK        -0.1912 
     52 C          21.5951  -33.1065  -38.6251 C.2       8 UNK         0.5038 
     53 O          20.7628  -34.0092  -38.5303 O.2       8 UNK        -0.5046 
     54 N          22.1624  -32.7164  -39.7784 N.am      9 UNK        -0.4200 
     55 CA         21.8543  -33.2166  -41.1312 C.3       9 UNK         0.0839 
     56 C          22.0089  -34.7564  -41.3276 C.2       9 UNK         0.5513 
     57 N          22.8663  -35.4256  -40.5661 N.am      9 UNK        -0.7519 
     58 O          21.3761  -35.3512  -42.1966 O.2       9 UNK        -0.4960 
     59 C59        20.5107  -32.6417  -41.6649 C.3       10 UNK        -0.0876 
     60 S60        20.6274  -30.8323  -41.8949 S.3       10 UNK        -0.2414 
     61 C61        20.5440  -30.6714  -43.7123 C.3       10 UNK         0.0169 
     62 H62        15.1938  -23.4406  -43.0802 H         1 UNK         0.0903 
     63 H63        15.2815  -23.8869  -41.3751 H         1 UNK         0.0903 
     64 H64        16.5749  -22.9327  -42.1046 H         1 UNK         0.0903 
     65 H65        15.8859  -26.0216  -41.0774 H         1 UNK         0.3096 
     66 H66        17.0970  -27.5873  -43.1889 H         1 UNK         0.1121 
     67 H67        16.0346  -28.2354  -40.4053 H         1 UNK         0.0849 
     68 H68        16.9615  -29.4188  -41.2720 H         1 UNK         0.0849 
     69 H69        15.6328  -31.2933  -42.5662 H         1 UNK         0.0865 
     70 H70        14.6886  -30.8259  -43.9559 H         1 UNK         0.0865 
     71 H71        18.0180  -31.1799  -42.6582 H         1 UNK         0.1346 
     72 H72        19.9923  -29.3458  -45.9925 H         1 UNK         0.1412 
     73 H73        15.7254  -29.1163  -45.6232 H         1 UNK         0.1426 
     74 H74        18.3934  -28.8072  -48.0125 H         1 UNK         0.0716 
     75 H75        16.7604  -28.3486  -47.6272 H         1 UNK         0.0716 
     76 H76        20.3786  -27.6870  -47.5327 H         1 UNK         0.0695 
     77 H77        20.1679  -26.1757  -48.3663 H         1 UNK         0.0695 
     78 H78        20.6303  -24.9031  -46.2905 H         1 UNK         0.0983 
     79 H79        20.1343  -27.2576  -44.8979 H         1 UNK         0.3095 
     80 H80        21.2681  -27.5763  -42.4687 H         1 UNK         0.0454 
     81 H81        20.9279  -24.7364  -41.3369 H         1 UNK         0.0851 
     82 H82        21.0235  -26.2122  -40.3795 H         1 UNK         0.0851 
     83 H83        22.4140  -25.6781  -41.2976 H         1 UNK         0.0851 
     84 H84        18.9330  -26.1495  -43.3183 H         1 UNK         0.2976 
     85 H85        22.7250  -27.7880  -46.0845 H         1 UNK         0.3116 
     86 H86        25.0723  -26.2671  -46.8903 H         1 UNK         0.0646 
     87 H87        25.6294  -27.7332  -48.8298 H         1 UNK         0.0847 
     88 H88        24.1327  -26.8745  -49.1346 H         1 UNK         0.0847 
     89 H89        24.0930  -28.5735  -48.6661 H         1 UNK         0.0847 
     90 H90        24.2665  -27.4691  -44.4522 H         1 UNK         0.3040 
     91 H91        26.4897  -29.1474  -43.8480 H         1 UNK         0.1015 
     92 H92        24.9471  -30.9252  -44.8070 H         1 UNK         0.0786 
     93 H93        23.6728  -30.4043  -43.7061 H         1 UNK         0.0786 
     94 H94        25.1404  -31.1312  -43.0769 H         1 UNK         0.0786 
     95 H95        26.2997  -29.7536  -41.4613 H         1 UNK         0.3172 
     96 H96        25.3432  -27.5720  -39.8025 H         1 UNK         0.0595 
     97 H97        26.1272  -29.0582  -37.9471 H         1 UNK         0.0839 
     98 H98        27.3625  -28.9217  -39.1858 H         1 UNK         0.0839 
     99 H99        26.3745  -30.3792  -39.0798 H         1 UNK         0.0839 
    100 H100       23.6278  -27.6695  -38.3282 H         1 UNK         0.2998 
    101 H101       21.2312  -28.4914  -39.3869 H         1 UNK         0.0822 
    102 H102       21.5256  -26.5662  -37.8475 H         1 UNK         0.0787 
    103 H103       20.2606  -27.6227  -37.2512 H         1 UNK         0.0787 
    104 H104       21.8508  -27.6603  -36.5007 H         1 UNK         0.0787 
    105 H105       23.2286  -30.6321  -37.6772 H         1 UNK         0.3055 
    106 H106       21.1964  -32.4282  -36.6339 H         1 UNK         0.1106 
    107 H107       23.1043  -34.0416  -36.5187 H         1 UNK         0.0828 
    108 H108       24.1320  -32.9147  -37.3936 H         1 UNK         0.0828 
    109 H109       23.5317  -32.5047  -35.7863 H         1 UNK         0.0828 
    110 H110       22.7816  -31.9100  -39.7628 H         1 UNK         0.2931 
    111 H111       22.6425  -32.8065  -41.7642 H         1 UNK         0.0412 
    112 H112       22.9747  -36.4190  -40.6982 H         1 UNK         0.3472 
    113 H113       23.3972  -34.9480  -39.8556 H         1 UNK         0.3472 
    114 H114       19.6974  -32.8603  -40.9714 H         1 UNK         0.0970 
    115 H115       20.2254  -33.1021  -42.6117 H         1 UNK         0.0970 
    116 H116       21.2587  -29.8958  -43.9908 H         1 UNK         0.0612 
    117 H117       20.8872  -31.5863  -44.1960 H         1 UNK         0.0612 
@<TRIPOS>BOND
     1    1    2 1    
     2    1   62 1    
     3    1   63 1    
     4    1   64 1    
     5    2    3 2    
     6    2    4 am   BACKBONE|DICT|INTERRES
     7    4    5 1    
     8    4   65 1    
     9    5    6 1    
    10    5   25 1    
    11    5   66 1    
    12    6    7 1    
    13    6   67 1    
    14    6   68 1    
    15    7    8 1    
    16    8    9 1    
    17    8   69 1    
    18    8   70 1    
    19    9   10 ar   
    20    9   14 ar   
    21   10   11 ar   
    22   10   71 1    
    23   11   12 ar   
    24   11   61 1    
    25   12   13 ar   
    26   12   72 1    
    27   13   14 ar   
    28   13   15 1    
    29   14   73 1    
    30   15   16 1    
    31   15   74 1    
    32   15   75 1    
    33   16   17 1    
    34   17   18 1    
    35   17   76 1    
    36   17   77 1    
    37   18   19 1    
    38   18   27 1    
    39   18   78 1    
    40   19   20 am   BACKBONE|DICT|INTERRES
    41   19   79 1    
    42   20   21 2    
    43   20   22 1    
    44   22   23 1    
    45   22   24 1    
    46   22   80 1    
    47   23   81 1    
    48   23   82 1    
    49   23   83 1    
    50   24   25 am   BACKBONE|DICT|INTERRES
    51   24   84 1    
    52   25   26 2    
    53   27   28 2    
    54   27   29 am   BACKBONE|DICT|INTERRES
    55   29   30 1    
    56   29   85 1    
    57   30   31 1    
    58   30   32 1    
    59   30   86 1    
    60   31   87 1    
    61   31   88 1    
    62   31   89 1    
    63   32   33 2    
    64   32   34 am   BACKBONE|DICT|INTERRES
    65   34   35 1    
    66   34   90 1    
    67   35   36 1    
    68   35   37 1    
    69   35   91 1    
    70   36   92 1    
    71   36   93 1    
    72   36   94 1    
    73   37   38 2    
    74   37   39 am   BACKBONE|DICT|INTERRES
    75   39   40 1    
    76   39   95 1    
    77   40   41 1    
    78   40   42 1    
    79   40   96 1    
    80   41   97 1    
    81   41   98 1    
    82   41   99 1    
    83   42   43 2    
    84   42   44 am   BACKBONE|DICT|INTERRES
    85   44   45 1    
    86   44  100 1    
    87   45   46 1    
    88   45   47 1    
    89   45  101 1    
    90   46  102 1    
    91   46  103 1    
    92   46  104 1    
    93   47   48 2    
    94   47   49 am   BACKBONE|DICT|INTERRES
    95   49   50 1    
    96   49  105 1    
    97   50   51 1    
    98   50   52 1    
    99   50  106 1    
   100   51  107 1    
   101   51  108 1    
   102   51  109 1    
   103   52   53 2    
   104   52   54 am   BACKBONE|DICT|INTERRES
   105   54   55 1    
   106   54  110 1    
   107   55   56 1    
   108   55   59 1    
   109   55  111 1    
   110   56   57 am   BACKBONE|DICT|INTERRES
   111   56   58 2    
   112   57  112 1    
   113   57  113 1    
   114   59   60 1    
   115   59  114 1    
   116   59  115 1    
   117   60   61 1    
   118   61  116 1    
   119   61  117 1    
@<TRIPOS>SUBSTRUCTURE
     1 UNK         1 GROUP             0       ****    0 ROOT    
