@<TRIPOS>MOLECULE
3R8
117   119    1
SMALL
USER_CHARGES


@<TRIPOS>ATOM
      1 CA         16.4868  -23.2508  -42.3985 C.3       0 UNK        -0.2013 
      2 C          17.0520  -24.6567  -42.5300 C.2       0 UNK         0.4866 
      3 O          17.4530  -25.0569  -43.6230 O.2       0 UNK        -0.5176 
      4 N          17.0935  -25.4125  -41.4249 N.am      1 UNK        -0.4884 
      5 CA         17.6297  -26.7752  -41.3513 C.3       1 UNK         0.0853 
      6 C6         16.9979  -27.5486  -40.1640 C.3       10 UNK        -0.0849 
      7 S7         17.4559  -29.3141  -40.0473 S.3       10 UNK        -0.2776 
      8 C8         16.6147  -30.0407  -41.4918 C.3       10 UNK         0.0316 
      9 C9         17.4962  -30.0539  -42.7361 C.ar      10 UNK        -0.0863 
     10 C10        18.7284  -30.7135  -42.7138 C.ar      10 UNK        -0.1009 
     11 C11        19.5140  -30.8006  -43.8659 C.ar      10 UNK        -0.0712 
     12 C12        19.0633  -30.2145  -45.0505 C.ar      10 UNK        -0.0894 
     13 C13        17.8449  -29.5273  -45.0837 C.ar      10 UNK        -0.0745 
     14 C14        17.0645  -29.4544  -43.9242 C.ar      10 UNK        -0.0972 
     15 C15        17.3459  -28.8990  -46.3783 C.3       10 UNK         0.0209 
     16 S16        17.9746  -27.2045  -46.6156 S.3       10 UNK        -0.2568 
     17 C17        19.6327  -27.5143  -47.3147 C.3       10 UNK        -0.0983 
     18 CA         20.7656  -26.7198  -46.6116 C.3       3 UNK         0.0876 
     19 N          20.7588  -26.8978  -45.1519 N.am      3 UNK        -0.4424 
     20 C          21.3679  -26.0846  -44.2772 C.2       2 UNK         0.4918 
     21 O          22.0198  -25.0949  -44.6159 O.2       2 UNK        -0.4875 
     22 CA         21.1925  -26.4101  -42.7874 C.3       2 UNK         0.0481 
     23 CB         21.9396  -25.3996  -41.8847 C.3       2 UNK        -0.1831 
     24 N          19.7602  -26.4482  -42.5000 N.am      2 UNK        -0.4498 
     25 C          19.1731  -26.7415  -41.3345 C.2       1 UNK         0.5027 
     26 O          19.7824  -26.9325  -40.2828 O.2       1 UNK        -0.4969 
     27 C          22.1555  -27.0690  -47.1931 C.2       3 UNK         0.5005 
     28 O          22.3354  -28.1603  -47.7372 O.2       3 UNK        -0.5279 
     29 N          23.1249  -26.1588  -47.0029 N.am      4 UNK        -0.4463 
     30 CA         24.5681  -26.3353  -47.2250 C.3       4 UNK         0.0283 
     31 CB         24.8891  -26.5039  -48.7255 C.3       4 UNK        -0.1875 
     32 C          25.1355  -27.4712  -46.3482 C.2       4 UNK         0.4949 
     33 O          25.9120  -28.3013  -46.8240 O.2       4 UNK        -0.5039 
     34 N          24.6928  -27.5013  -45.0855 N.am      5 UNK        -0.4663 
     35 CA         24.9369  -28.5710  -44.1229 C.3       5 UNK         0.0242 
     36 CB         23.9608  -29.7393  -44.3929 C.3       5 UNK        -0.1982 
     37 C          24.8563  -27.9946  -42.6994 C.2       5 UNK         0.5017 
     38 O          25.4168  -26.9263  -42.4494 O.2       5 UNK        -0.5012 
     39 N          24.1664  -28.6990  -41.7979 N.am      6 UNK        -0.4439 
     40 CA         23.9566  -28.3569  -40.3951 C.3       6 UNK         0.0297 
     41 CB         25.1380  -28.8857  -39.5586 C.3       6 UNK        -0.2006 
     42 C          22.6238  -28.9700  -39.9419 C.2       6 UNK         0.4892 
     43 O          21.9862  -29.6822  -40.7246 O.2       6 UNK        -0.5089 
     44 N          22.2426  -28.6989  -38.6853 N.am      7 UNK        -0.4243 
     45 CA         21.0348  -29.2129  -38.0310 C.3       7 UNK         0.0196 
     46 CB         20.9741  -28.6947  -36.5852 C.3       7 UNK        -0.2007 
     47 C          20.9677  -30.7478  -38.0654 C.2       7 UNK         0.5020 
     48 O          21.9036  -31.4089  -37.6087 O.2       7 UNK        -0.5147 
     49 N          19.8874  -31.2731  -38.6608 N.am      8 UNK        -0.4734 
     50 CA         19.6311  -32.6942  -38.9431 C.3       8 UNK         0.0238 
     51 CB         19.4024  -33.4735  -37.6307 C.3       8 UNK        -0.1912 
     52 C          20.6955  -33.3616  -39.8438 C.2       8 UNK         0.5038 
     53 O          20.7965  -34.5898  -39.8518 O.2       8 UNK        -0.5046 
     54 N          21.4640  -32.5465  -40.5803 N.am      9 UNK        -0.4200 
     55 CA         22.5889  -32.9382  -41.4425 C.3       9 UNK         0.0839 
     56 C          23.8181  -33.4996  -40.6674 C.2       9 UNK         0.5513 
     57 N          23.9563  -33.2327  -39.3728 N.am      9 UNK        -0.7519 
     58 O          24.6762  -34.1571  -41.2504 O.2       9 UNK        -0.4960 
     59 C59        22.1690  -33.8141  -42.6633 C.3       10 UNK        -0.0876 
     60 S60        20.6360  -33.3078  -43.5336 S.3       10 UNK        -0.2414 
     61 C61        20.8523  -31.5198  -43.8156 C.3       10 UNK         0.0169 
     62 H62        17.2404  -22.5163  -42.6813 H         1 UNK         0.0903 
     63 H63        15.6283  -23.1294  -43.0584 H         1 UNK         0.0903 
     64 H64        16.1654  -23.0329  -41.3802 H         1 UNK         0.0903 
     65 H65        16.7803  -25.0193  -40.5481 H         1 UNK         0.3096 
     66 H66        17.3347  -27.2914  -42.2649 H         1 UNK         0.1121 
     67 H67        17.2665  -27.0722  -39.2193 H         1 UNK         0.0849 
     68 H68        15.9098  -27.4906  -40.2233 H         1 UNK         0.0849 
     69 H69        16.3453  -31.0704  -41.2526 H         1 UNK         0.0865 
     70 H70        15.6748  -29.5178  -41.6752 H         1 UNK         0.0865 
     71 H71        19.0728  -31.1770  -41.8000 H         1 UNK         0.1346 
     72 H72        19.6618  -30.3030  -45.9454 H         1 UNK         0.1412 
     73 H73        16.1113  -28.9438  -43.9547 H         1 UNK         0.1426 
     74 H74        16.2554  -28.8624  -46.3724 H         1 UNK         0.0716 
     75 H75        17.6168  -29.5206  -47.2332 H         1 UNK         0.0716 
     76 H76        19.8384  -28.5832  -47.2943 H         1 UNK         0.0695 
     77 H77        19.5964  -27.2461  -48.3721 H         1 UNK         0.0695 
     78 H78        20.5848  -25.6622  -46.8182 H         1 UNK         0.0983 
     79 H79        20.2342  -27.6896  -44.8085 H         1 UNK         0.3095 
     80 H80        21.6026  -27.4068  -42.6172 H         1 UNK         0.0454 
     81 H81        22.9903  -25.3230  -42.1674 H         1 UNK         0.0851 
     82 H82        21.5076  -24.4011  -41.9579 H         1 UNK         0.0851 
     83 H83        21.9254  -25.6945  -40.8367 H         1 UNK         0.0851 
     84 H84        19.1492  -26.1921  -43.2714 H         1 UNK         0.2976 
     85 H85        22.8671  -25.3373  -46.4644 H         1 UNK         0.3116 
     86 H86        25.0485  -25.4162  -46.8861 H         1 UNK         0.0646 
     87 H87        25.9666  -26.5122  -48.8937 H         1 UNK         0.0847 
     88 H88        24.4761  -25.6852  -49.3145 H         1 UNK         0.0847 
     89 H89        24.4934  -27.4381  -49.1249 H         1 UNK         0.0847 
     90 H90        24.1284  -26.7318  -44.7517 H         1 UNK         0.3040 
     91 H91        25.9594  -28.9342  -44.2486 H         1 UNK         0.1015 
     92 H92        22.9234  -29.4309  -44.2585 H         1 UNK         0.0786 
     93 H93        24.1552  -30.5895  -43.7379 H         1 UNK         0.0786 
     94 H94        24.0596  -30.1066  -45.4148 H         1 UNK         0.0786 
     95 H95        23.6435  -29.5127  -42.0953 H         1 UNK         0.3172 
     96 H96        23.8837  -27.2727  -40.2896 H         1 UNK         0.0595 
     97 H97        25.0398  -28.6102  -38.5082 H         1 UNK         0.0839 
     98 H98        25.2074  -29.9736  -39.6059 H         1 UNK         0.0839 
     99 H99        26.0860  -28.4758  -39.9073 H         1 UNK         0.0839 
    100 H100       22.8418  -28.1197  -38.1166 H         1 UNK         0.2998 
    101 H101       20.1751  -28.8128  -38.5699 H         1 UNK         0.0822 
    102 H102       20.0755  -29.0531  -36.0811 H         1 UNK         0.0787 
    103 H103       21.8319  -29.0292  -36.0002 H         1 UNK         0.0787 
    104 H104       20.9482  -27.6052  -36.5550 H         1 UNK         0.0787 
    105 H105       19.1922  -30.6306  -39.0237 H         1 UNK         0.3055 
    106 H106       18.7013  -32.7278  -39.5133 H         1 UNK         0.1106 
    107 H107       20.3146  -33.5437  -37.0375 H         1 UNK         0.0828 
    108 H108       18.6374  -32.9997  -37.0157 H         1 UNK         0.0828 
    109 H109       19.0676  -34.4920  -37.8315 H         1 UNK         0.0828 
    110 H110       21.3397  -31.5437  -40.4851 H         1 UNK         0.2931 
    111 H111       22.9758  -32.0027  -41.8422 H         1 UNK         0.0412 
    112 H112       24.7582  -33.5902  -38.8782 H         1 UNK         0.3472 
    113 H113       23.2607  -32.6866  -38.8803 H         1 UNK         0.3472 
    114 H114       22.0271  -34.8472  -42.3417 H         1 UNK         0.0970 
    115 H115       22.9775  -33.8414  -43.3958 H         1 UNK         0.0970 
    116 H116       21.4354  -31.0570  -43.0241 H         1 UNK         0.0612 
    117 H117       21.4131  -31.3761  -44.7400 H         1 UNK         0.0612 
@<TRIPOS>BOND
     1    1    2 1    
     2    1   62 1    
     3    1   63 1    
     4    1   64 1    
     5    2    3 2    
     6    2    4 am   BACKBONE|DICT|INTERRES
     7    4    5 1    
     8    4   65 1    
     9    5    6 1    
    10    5   25 1    
    11    5   66 1    
    12    6    7 1    
    13    6   67 1    
    14    6   68 1    
    15    7    8 1    
    16    8    9 1    
    17    8   69 1    
    18    8   70 1    
    19    9   10 ar   
    20    9   14 ar   
    21   10   11 ar   
    22   10   71 1    
    23   11   12 ar   
    24   11   61 1    
    25   12   13 ar   
    26   12   72 1    
    27   13   14 ar   
    28   13   15 1    
    29   14   73 1    
    30   15   16 1    
    31   15   74 1    
    32   15   75 1    
    33   16   17 1    
    34   17   18 1    
    35   17   76 1    
    36   17   77 1    
    37   18   19 1    
    38   18   27 1    
    39   18   78 1    
    40   19   20 am   BACKBONE|DICT|INTERRES
    41   19   79 1    
    42   20   21 2    
    43   20   22 1    
    44   22   23 1    
    45   22   24 1    
    46   22   80 1    
    47   23   81 1    
    48   23   82 1    
    49   23   83 1    
    50   24   25 am   BACKBONE|DICT|INTERRES
    51   24   84 1    
    52   25   26 2    
    53   27   28 2    
    54   27   29 am   BACKBONE|DICT|INTERRES
    55   29   30 1    
    56   29   85 1    
    57   30   31 1    
    58   30   32 1    
    59   30   86 1    
    60   31   87 1    
    61   31   88 1    
    62   31   89 1    
    63   32   33 2    
    64   32   34 am   BACKBONE|DICT|INTERRES
    65   34   35 1    
    66   34   90 1    
    67   35   36 1    
    68   35   37 1    
    69   35   91 1    
    70   36   92 1    
    71   36   93 1    
    72   36   94 1    
    73   37   38 2    
    74   37   39 am   BACKBONE|DICT|INTERRES
    75   39   40 1    
    76   39   95 1    
    77   40   41 1    
    78   40   42 1    
    79   40   96 1    
    80   41   97 1    
    81   41   98 1    
    82   41   99 1    
    83   42   43 2    
    84   42   44 am   BACKBONE|DICT|INTERRES
    85   44   45 1    
    86   44  100 1    
    87   45   46 1    
    88   45   47 1    
    89   45  101 1    
    90   46  102 1    
    91   46  103 1    
    92   46  104 1    
    93   47   48 2    
    94   47   49 am   BACKBONE|DICT|INTERRES
    95   49   50 1    
    96   49  105 1    
    97   50   51 1    
    98   50   52 1    
    99   50  106 1    
   100   51  107 1    
   101   51  108 1    
   102   51  109 1    
   103   52   53 2    
   104   52   54 am   BACKBONE|DICT|INTERRES
   105   54   55 1    
   106   54  110 1    
   107   55   56 1    
   108   55   59 1    
   109   55  111 1    
   110   56   57 am   BACKBONE|DICT|INTERRES
   111   56   58 2    
   112   57  112 1    
   113   57  113 1    
   114   59   60 1    
   115   59  114 1    
   116   59  115 1    
   117   60   61 1    
   118   61  116 1    
   119   61  117 1    
@<TRIPOS>SUBSTRUCTURE
     1 UNK         1 GROUP             0       ****    0 ROOT    
