@<TRIPOS>MOLECULE
3R8
117   119    1
SMALL
USER_CHARGES


@<TRIPOS>ATOM
      1 CA         21.5854  -25.8211  -49.4223 C.3       0 UNK        -0.2013 
      2 C          21.8553  -26.8713  -48.3552 C.2       0 UNK         0.4866 
      3 O          23.0099  -27.0873  -47.9865 O.2       0 UNK        -0.5176 
      4 N          20.7985  -27.5277  -47.8575 N.am      1 UNK        -0.4884 
      5 CA         20.8623  -28.5508  -46.8045 C.3       1 UNK         0.0853 
      6 C6         19.5745  -29.4109  -46.7520 C.3       10 UNK        -0.0849 
      7 S7         18.0275  -28.4379  -46.6730 S.3       10 UNK        -0.2776 
      8 C8         16.8187  -29.7225  -46.2222 C.3       10 UNK         0.0316 
      9 C9         16.7722  -29.9414  -44.7177 C.ar      10 UNK        -0.0863 
     10 C10        17.5722  -30.9168  -44.1166 C.ar      10 UNK        -0.1009 
     11 C11        17.5429  -31.1022  -42.7319 C.ar      10 UNK        -0.0712 
     12 C12        16.6822  -30.3281  -41.9488 C.ar      10 UNK        -0.0894 
     13 C13        15.8714  -29.3544  -42.5395 C.ar      10 UNK        -0.0745 
     14 C14        15.9233  -29.1641  -43.9240 C.ar      10 UNK        -0.0972 
     15 C15        14.9344  -28.5100  -41.6857 C.3       10 UNK         0.0209 
     16 S16        15.8245  -27.4557  -40.4947 S.3       10 UNK        -0.2568 
     17 C17        16.8683  -26.4274  -41.5840 C.3       10 UNK        -0.0983 
     18 CA         18.3768  -26.7299  -41.3957 C.3       3 UNK         0.0876 
     19 N          19.1502  -26.3373  -42.5788 N.am      3 UNK        -0.4424 
     20 C          20.4699  -26.5113  -42.7320 C.2       2 UNK         0.4918 
     21 O          21.1843  -27.1174  -41.9296 O.2       2 UNK        -0.4875 
     22 CA         21.0766  -25.8896  -44.0020 C.3       2 UNK         0.0481 
     23 CB         22.5771  -25.5693  -43.8584 C.3       2 UNK        -0.1831 
     24 N          20.8383  -26.7150  -45.1865 N.am      2 UNK        -0.4498 
     25 C          21.2266  -27.9796  -45.4170 C.2       1 UNK         0.5027 
     26 O          21.8625  -28.6806  -44.6250 O.2       1 UNK        -0.4969 
     27 C          18.9278  -26.0515  -40.1198 C.2       3 UNK         0.5005 
     28 O          19.3629  -24.8980  -40.1833 O.2       3 UNK        -0.5279 
     29 N          18.9296  -26.7869  -38.9988 N.am      4 UNK        -0.4463 
     30 CA         19.4709  -26.4398  -37.6735 C.3       4 UNK         0.0283 
     31 CB         18.8135  -25.1716  -37.0939 C.3       4 UNK        -0.1875 
     32 C          21.0088  -26.3489  -37.6169 C.2       4 UNK         0.4949 
     33 O          21.5947  -26.8024  -36.6337 O.2       4 UNK        -0.5039 
     34 N          21.6405  -25.8044  -38.6658 N.am      5 UNK        -0.4663 
     35 CA         23.0941  -25.7963  -38.8644 C.3       5 UNK         0.0242 
     36 CB         23.4455  -24.8382  -40.0109 C.3       5 UNK        -0.1982 
     37 C          23.6596  -27.2025  -39.1374 C.2       5 UNK         0.5017 
     38 O          24.7799  -27.4910  -38.7156 O.2       5 UNK        -0.5012 
     39 N          22.8550  -28.0470  -39.8007 N.am      6 UNK        -0.4439 
     40 CA         23.0657  -29.4711  -40.0657 C.3       6 UNK         0.0297 
     41 CB         23.1270  -30.2717  -38.7449 C.3       6 UNK        -0.2006 
     42 C          24.2587  -29.7410  -40.9973 C.2       6 UNK         0.4892 
     43 O          25.1188  -30.5604  -40.6690 O.2       6 UNK        -0.5089 
     44 N          24.2890  -29.0524  -42.1488 N.am      7 UNK        -0.4243 
     45 CA         25.3296  -29.2326  -43.1670 C.3       7 UNK         0.0196 
     46 CB         25.3483  -28.0480  -44.1474 C.3       7 UNK        -0.2007 
     47 C          25.1762  -30.5679  -43.9111 C.2       7 UNK         0.5020 
     48 O          26.1307  -31.3439  -43.9619 O.2       7 UNK        -0.5147 
     49 N          23.9783  -30.8218  -44.4567 N.am      8 UNK        -0.4734 
     50 CA         23.6585  -32.0673  -45.1675 C.3       8 UNK         0.0238 
     51 CB         22.7165  -31.7531  -46.3392 C.3       8 UNK        -0.1912 
     52 C          23.0255  -33.1345  -44.2593 C.2       8 UNK         0.5038 
     53 O          22.9401  -34.2919  -44.6726 O.2       8 UNK        -0.5046 
     54 N          22.5661  -32.7338  -43.0668 N.am      9 UNK        -0.4200 
     55 CA         21.8191  -33.5843  -42.1240 C.3       9 UNK         0.0839 
     56 C          22.6625  -34.6861  -41.4179 C.2       9 UNK         0.5513 
     57 N          23.9885  -34.6430  -41.4654 N.am      9 UNK        -0.7519 
     58 O          22.0991  -35.5968  -40.8163 O.2       9 UNK        -0.4960 
     59 C59        21.0259  -32.7532  -41.0796 C.3       10 UNK        -0.0876 
     60 S60        20.0958  -31.3578  -41.7980 S.3       10 UNK        -0.2414 
     61 C61        18.4707  -32.1132  -42.0826 C.3       10 UNK         0.0169 
     62 H62        21.9407  -24.8467  -49.0878 H         1 UNK         0.0903 
     63 H63        22.1105  -26.0777  -50.3421 H         1 UNK         0.0903 
     64 H64        20.5231  -25.7347  -49.6511 H         1 UNK         0.0903 
     65 H65        19.8688  -27.3205  -48.1984 H         1 UNK         0.3096 
     66 H66        21.6858  -29.2134  -47.0726 H         1 UNK         0.1121 
     67 H67        19.6163  -30.1016  -45.9090 H         1 UNK         0.0849 
     68 H68        19.5253  -30.0385  -47.6433 H         1 UNK         0.0849 
     69 H69        15.8337  -29.4177  -46.5792 H         1 UNK         0.0865 
     70 H70        17.0507  -30.6540  -46.7411 H         1 UNK         0.0865 
     71 H71        18.2351  -31.5210  -44.7202 H         1 UNK         0.1346 
     72 H72        16.6564  -30.4680  -40.8767 H         1 UNK         0.1412 
     73 H73        15.3043  -28.4078  -44.3874 H         1 UNK         0.1426 
     74 H74        14.2622  -29.1710  -41.1368 H         1 UNK         0.0716 
     75 H75        14.2996  -27.8790  -42.3096 H         1 UNK         0.0716 
     76 H76        16.5730  -26.6098  -42.6182 H         1 UNK         0.0695 
     77 H77        16.6464  -25.3740  -41.4007 H         1 UNK         0.0695 
     78 H78        18.5112  -27.8104  -41.3006 H         1 UNK         0.0983 
     79 H79        18.6482  -25.8214  -43.2855 H         1 UNK         0.3095 
     80 H80        20.5626  -24.9445  -44.1840 H         1 UNK         0.0454 
     81 H81        22.7286  -24.7423  -43.1659 H         1 UNK         0.0851 
     82 H82        23.1409  -26.4204  -43.4812 H         1 UNK         0.0851 
     83 H83        23.0165  -25.2724  -44.8108 H         1 UNK         0.0851 
     84 H84        20.3078  -26.2719  -45.9232 H         1 UNK         0.2976 
     85 H85        18.5498  -27.7221  -39.0619 H         1 UNK         0.3116 
     86 H86        19.1897  -27.2712  -37.0246 H         1 UNK         0.0646 
     87 H87        19.1280  -25.0109  -36.0619 H         1 UNK         0.0847 
     88 H88        17.7265  -25.2529  -37.0923 H         1 UNK         0.0847 
     89 H89        19.0827  -24.2755  -37.6535 H         1 UNK         0.0847 
     90 H90        21.0613  -25.4195  -39.4072 H         1 UNK         0.3040 
     91 H91        23.5604  -25.4257  -37.9489 H         1 UNK         0.1015 
     92 H92        23.1200  -23.8208  -39.7933 H         1 UNK         0.0786 
     93 H93        22.9750  -25.1499  -40.9416 H         1 UNK         0.0786 
     94 H94        24.5228  -24.8072  -40.1807 H         1 UNK         0.0786 
     95 H95        22.0177  -27.6531  -40.2210 H         1 UNK         0.3172 
     96 H96        22.1816  -29.8016  -40.6083 H         1 UNK         0.0595 
     97 H97        22.2192  -30.1344  -38.1574 H         1 UNK         0.0839 
     98 H98        23.9741  -29.9734  -38.1270 H         1 UNK         0.0839 
     99 H99        23.2357  -31.3400  -38.9314 H         1 UNK         0.0839 
    100 H100       23.5278  -28.4208  -42.3623 H         1 UNK         0.2998 
    101 H101       26.2968  -29.2482  -42.6584 H         1 UNK         0.0822 
    102 H102       26.1638  -28.1548  -44.8648 H         1 UNK         0.0787 
    103 H103       24.4254  -27.9738  -44.7231 H         1 UNK         0.0787 
    104 H104       25.5025  -27.1034  -43.6254 H         1 UNK         0.0787 
    105 H105       23.2475  -30.1165  -44.3967 H         1 UNK         0.3055 
    106 H106       24.5711  -32.5014  -45.5829 H         1 UNK         0.1106 
    107 H107       23.1657  -31.0336  -47.0240 H         1 UNK         0.0828 
    108 H108       22.4979  -32.6522  -46.9177 H         1 UNK         0.0828 
    109 H109       21.7646  -31.3554  -45.9883 H         1 UNK         0.0828 
    110 H110       22.6691  -31.7634  -42.8127 H         1 UNK         0.2931 
    111 H111       21.0782  -34.1204  -42.7211 H         1 UNK         0.0412 
    112 H112       24.5240  -35.3633  -41.0059 H         1 UNK         0.3472 
    113 H113       24.4582  -33.8970  -41.9539 H         1 UNK         0.3472 
    114 H114       21.7066  -32.3415  -40.3353 H         1 UNK         0.0970 
    115 H115       20.3373  -33.3940  -40.5253 H         1 UNK         0.0970 
    116 H116       18.5816  -32.9898  -42.7228 H         1 UNK         0.0612 
    117 H117       18.0559  -32.4622  -41.1358 H         1 UNK         0.0612 
@<TRIPOS>BOND
     1    1    2 1    
     2    1   62 1    
     3    1   63 1    
     4    1   64 1    
     5    2    3 2    
     6    2    4 am   BACKBONE|DICT|INTERRES
     7    4    5 1    
     8    4   65 1    
     9    5    6 1    
    10    5   25 1    
    11    5   66 1    
    12    6    7 1    
    13    6   67 1    
    14    6   68 1    
    15    7    8 1    
    16    8    9 1    
    17    8   69 1    
    18    8   70 1    
    19    9   10 ar   
    20    9   14 ar   
    21   10   11 ar   
    22   10   71 1    
    23   11   12 ar   
    24   11   61 1    
    25   12   13 ar   
    26   12   72 1    
    27   13   14 ar   
    28   13   15 1    
    29   14   73 1    
    30   15   16 1    
    31   15   74 1    
    32   15   75 1    
    33   16   17 1    
    34   17   18 1    
    35   17   76 1    
    36   17   77 1    
    37   18   19 1    
    38   18   27 1    
    39   18   78 1    
    40   19   20 am   BACKBONE|DICT|INTERRES
    41   19   79 1    
    42   20   21 2    
    43   20   22 1    
    44   22   23 1    
    45   22   24 1    
    46   22   80 1    
    47   23   81 1    
    48   23   82 1    
    49   23   83 1    
    50   24   25 am   BACKBONE|DICT|INTERRES
    51   24   84 1    
    52   25   26 2    
    53   27   28 2    
    54   27   29 am   BACKBONE|DICT|INTERRES
    55   29   30 1    
    56   29   85 1    
    57   30   31 1    
    58   30   32 1    
    59   30   86 1    
    60   31   87 1    
    61   31   88 1    
    62   31   89 1    
    63   32   33 2    
    64   32   34 am   BACKBONE|DICT|INTERRES
    65   34   35 1    
    66   34   90 1    
    67   35   36 1    
    68   35   37 1    
    69   35   91 1    
    70   36   92 1    
    71   36   93 1    
    72   36   94 1    
    73   37   38 2    
    74   37   39 am   BACKBONE|DICT|INTERRES
    75   39   40 1    
    76   39   95 1    
    77   40   41 1    
    78   40   42 1    
    79   40   96 1    
    80   41   97 1    
    81   41   98 1    
    82   41   99 1    
    83   42   43 2    
    84   42   44 am   BACKBONE|DICT|INTERRES
    85   44   45 1    
    86   44  100 1    
    87   45   46 1    
    88   45   47 1    
    89   45  101 1    
    90   46  102 1    
    91   46  103 1    
    92   46  104 1    
    93   47   48 2    
    94   47   49 am   BACKBONE|DICT|INTERRES
    95   49   50 1    
    96   49  105 1    
    97   50   51 1    
    98   50   52 1    
    99   50  106 1    
   100   51  107 1    
   101   51  108 1    
   102   51  109 1    
   103   52   53 2    
   104   52   54 am   BACKBONE|DICT|INTERRES
   105   54   55 1    
   106   54  110 1    
   107   55   56 1    
   108   55   59 1    
   109   55  111 1    
   110   56   57 am   BACKBONE|DICT|INTERRES
   111   56   58 2    
   112   57  112 1    
   113   57  113 1    
   114   59   60 1    
   115   59  114 1    
   116   59  115 1    
   117   60   61 1    
   118   61  116 1    
   119   61  117 1    
@<TRIPOS>SUBSTRUCTURE
     1 UNK         1 GROUP             0       ****    0 ROOT    
