@<TRIPOS>MOLECULE
3R8
117   119    1
SMALL
USER_CHARGES


@<TRIPOS>ATOM
      1 CA         14.5794  -24.8314  -46.4229 C.3       0 UNK        -0.2013 
      2 C          16.0834  -25.0416  -46.3290 C.2       0 UNK         0.4866 
      3 O          16.8501  -24.1413  -46.6732 O.2       0 UNK        -0.5176 
      4 N          16.5118  -26.2257  -45.8737 N.am      1 UNK        -0.4884 
      5 CA         17.9183  -26.5719  -45.6481 C.3       1 UNK         0.0853 
      6 C6         18.0986  -28.1058  -45.5628 C.3       10 UNK        -0.0849 
      7 S7         19.8384  -28.6233  -45.7610 S.3       10 UNK        -0.2776 
      8 C8         19.6966  -30.4414  -45.6510 C.3       10 UNK         0.0316 
      9 C9         18.9789  -30.9287  -44.3956 C.ar      10 UNK        -0.0863 
     10 C10        18.0427  -31.9617  -44.4897 C.ar      10 UNK        -0.1009 
     11 C11        17.3654  -32.4226  -43.3548 C.ar      10 UNK        -0.0712 
     12 C12        17.6102  -31.8175  -42.1178 C.ar      10 UNK        -0.0894 
     13 C13        18.5369  -30.7764  -42.0126 C.ar      10 UNK        -0.0745 
     14 C14        19.2342  -30.3543  -43.1472 C.ar      10 UNK        -0.0972 
     15 C15        18.7915  -30.0876  -40.6839 C.3       10 UNK         0.0209 
     16 S16        18.0255  -28.4369  -40.6732 S.3       10 UNK        -0.2568 
     17 C17        19.1446  -27.5508  -39.5436 C.3       10 UNK        -0.0983 
     18 CA         20.4082  -27.0137  -40.2627 C.3       3 UNK         0.0876 
     19 N          20.0776  -26.1239  -41.3892 N.am      3 UNK        -0.4424 
     20 C          20.9520  -25.7046  -42.3123 C.2       2 UNK         0.4918 
     21 O          22.1361  -26.0377  -42.3233 O.2       2 UNK        -0.4875 
     22 CA         20.4245  -24.7251  -43.3732 C.3       2 UNK         0.0481 
     23 CB         21.5560  -23.8790  -43.9868 C.3       2 UNK        -0.1831 
     24 N          19.7289  -25.4345  -44.4439 N.am      2 UNK        -0.4498 
     25 C          18.4583  -25.8526  -44.3911 C.2       1 UNK         0.5027 
     26 O          17.7279  -25.6940  -43.4084 O.2       1 UNK        -0.4969 
     27 C          21.3801  -26.3807  -39.2387 C.2       3 UNK         0.5005 
     28 O          21.9706  -27.1074  -38.4384 O.2       3 UNK        -0.5279 
     29 N          21.5357  -25.0483  -39.2759 N.am      4 UNK        -0.4463 
     30 CA         22.5408  -24.2984  -38.5182 C.3       4 UNK         0.0283 
     31 CB         22.1383  -22.8149  -38.4843 C.3       4 UNK        -0.1875 
     32 C          23.9673  -24.4538  -39.0839 C.2       4 UNK         0.4949 
     33 O          24.9269  -24.1914  -38.3579 O.2       4 UNK        -0.5039 
     34 N          24.0877  -24.8612  -40.3548 N.am      5 UNK        -0.4663 
     35 CA         25.3491  -25.1770  -41.0240 C.3       5 UNK         0.0242 
     36 CB         25.2706  -24.6696  -42.4769 C.3       5 UNK        -0.1982 
     37 C          25.6065  -26.6936  -40.9723 C.2       5 UNK         0.5017 
     38 O          24.8085  -27.4460  -40.4073 O.2       5 UNK        -0.5012 
     39 N          26.7182  -27.1304  -41.5771 N.am      6 UNK        -0.4439 
     40 CA         27.1141  -28.5366  -41.6990 C.3       6 UNK         0.0297 
     41 CB         28.6337  -28.6063  -41.9431 C.3       6 UNK        -0.2006 
     42 C          26.3032  -29.2724  -42.7873 C.2       6 UNK         0.4892 
     43 O          26.8743  -29.7243  -43.7818 O.2       6 UNK        -0.5089 
     44 N          24.9856  -29.3679  -42.5845 N.am      7 UNK        -0.4243 
     45 CA         24.0363  -30.0663  -43.4443 C.3       7 UNK         0.0196 
     46 CB         23.3714  -29.0615  -44.4000 C.3       7 UNK        -0.2007 
     47 C          22.9971  -30.7529  -42.5528 C.2       7 UNK         0.5020 
     48 O          22.5357  -30.1484  -41.5824 O.2       7 UNK        -0.5147 
     49 N          22.6436  -31.9949  -42.8950 N.am      8 UNK        -0.4734 
     50 CA         21.6810  -32.8252  -42.1753 C.3       8 UNK         0.0238 
     51 CB         22.3228  -33.4014  -40.8981 C.3       8 UNK        -0.1912 
     52 C          21.2022  -33.9546  -43.0933 C.2       8 UNK         0.5038 
     53 O          21.9409  -34.3540  -43.9982 O.2       8 UNK        -0.5046 
     54 N          20.0018  -34.4740  -42.8135 N.am      9 UNK        -0.4200 
     55 CA         19.4800  -35.7228  -43.3853 C.3       9 UNK         0.0839 
     56 C          20.2485  -36.9564  -42.8353 C.2       9 UNK         0.5513 
     57 N          20.4380  -37.9828  -43.6527 N.am      9 UNK        -0.7519 
     58 O          20.6324  -37.0078  -41.6682 O.2       9 UNK        -0.4960 
     59 C59        17.9540  -35.8661  -43.1314 C.3       10 UNK        -0.0876 
     60 S60        16.9532  -34.9927  -44.3808 S.3       10 UNK        -0.2414 
     61 C61        16.3334  -33.5379  -43.4726 C.3       10 UNK         0.0169 
     62 H62        14.2950  -24.6086  -47.4510 H         1 UNK         0.0903 
     63 H63        14.0231  -25.7114  -46.1006 H         1 UNK         0.0903 
     64 H64        14.2786  -23.9921  -45.7965 H         1 UNK         0.0903 
     65 H65        15.8366  -26.9129  -45.5699 H         1 UNK         0.3096 
     66 H66        18.4793  -26.2122  -46.5144 H         1 UNK         0.1121 
     67 H67        17.6986  -28.4862  -44.6209 H         1 UNK         0.0849 
     68 H68        17.5257  -28.5936  -46.3534 H         1 UNK         0.0849 
     69 H69        19.1842  -30.7977  -46.5460 H         1 UNK         0.0865 
     70 H70        20.6949  -30.8794  -45.6742 H         1 UNK         0.0865 
     71 H71        17.8373  -32.4133  -45.4507 H         1 UNK         0.1346 
     72 H72        17.0697  -32.1454  -41.2402 H         1 UNK         0.1412 
     73 H73        19.9567  -29.5539  -43.0579 H         1 UNK         0.1426 
     74 H74        19.8683  -30.0089  -40.5274 H         1 UNK         0.0716 
     75 H75        18.3990  -30.6745  -39.8521 H         1 UNK         0.0716 
     76 H76        19.4144  -28.2237  -38.7269 H         1 UNK         0.0695 
     77 H77        18.5866  -26.7297  -39.0897 H         1 UNK         0.0695 
     78 H78        20.9443  -27.8672  -40.6849 H         1 UNK         0.0983 
     79 H79        19.1039  -25.8666  -41.4914 H         1 UNK         0.3095 
     80 H80        19.7298  -24.0386  -42.8845 H         1 UNK         0.0454 
     81 H81        22.1049  -23.3406  -43.2130 H         1 UNK         0.0851 
     82 H82        21.1634  -23.1353  -44.6803 H         1 UNK         0.0851 
     83 H83        22.2772  -24.4933  -44.5277 H         1 UNK         0.0851 
     84 H84        20.2786  -25.6600  -45.2611 H         1 UNK         0.2976 
     85 H85        20.9834  -24.5262  -39.9401 H         1 UNK         0.3116 
     86 H86        22.5510  -24.6729  -37.4923 H         1 UNK         0.0646 
     87 H87        22.8493  -22.2319  -37.8971 H         1 UNK         0.0847 
     88 H88        22.1096  -22.3797  -39.4841 H         1 UNK         0.0847 
     89 H89        21.1575  -22.6786  -38.0284 H         1 UNK         0.0847 
     90 H90        23.2557  -25.1564  -40.8540 H         1 UNK         0.3040 
     91 H91        26.1777  -24.6744  -40.5199 H         1 UNK         0.1015 
     92 H92        26.2344  -24.7499  -42.9802 H         1 UNK         0.0786 
     93 H93        24.9795  -23.6196  -42.5145 H         1 UNK         0.0786 
     94 H94        24.5486  -25.2360  -43.0662 H         1 UNK         0.0786 
     95 H95        27.3101  -26.4581  -42.0438 H         1 UNK         0.3172 
     96 H96        26.9120  -29.0409  -40.7514 H         1 UNK         0.0595 
     97 H97        29.1889  -28.1390  -41.1296 H         1 UNK         0.0839 
     98 H98        28.9189  -28.1119  -42.8726 H         1 UNK         0.0839 
     99 H99        28.9711  -29.6417  -42.0084 H         1 UNK         0.0839 
    100 H100       24.5908  -28.9611  -41.7393 H         1 UNK         0.2998 
    101 H101       24.5582  -30.8274  -44.0287 H         1 UNK         0.0822 
    102 H102       24.1116  -28.5385  -45.0055 H         1 UNK         0.0787 
    103 H103       22.6923  -29.5684  -45.0848 H         1 UNK         0.0787 
    104 H104       22.7926  -28.3118  -43.8579 H         1 UNK         0.0787 
    105 H105       23.0277  -32.4307  -43.7251 H         1 UNK         0.3055 
    106 H106       20.8234  -32.2150  -41.8964 H         1 UNK         0.1106 
    107 H107       22.6178  -32.6118  -40.2068 H         1 UNK         0.0828 
    108 H108       21.6258  -34.0498  -40.3654 H         1 UNK         0.0828 
    109 H109       23.2089  -33.9947  -41.1272 H         1 UNK         0.0828 
    110 H110       19.4675  -34.0836  -42.0527 H         1 UNK         0.2931 
    111 H111       19.6519  -35.6887  -44.4636 H         1 UNK         0.0412 
    112 H112       20.1159  -37.9539  -44.6081 H         1 UNK         0.3472 
    113 H113       20.9201  -38.8002  -43.3114 H         1 UNK         0.3472 
    114 H114       17.6859  -35.5411  -42.1247 H         1 UNK         0.0970 
    115 H115       17.6470  -36.9126  -43.1888 H         1 UNK         0.0970 
    116 H116       15.4668  -33.1444  -44.0052 H         1 UNK         0.0612 
    117 H117       15.9732  -33.8508  -42.4914 H         1 UNK         0.0612 
@<TRIPOS>BOND
     1    1    2 1    
     2    1   62 1    
     3    1   63 1    
     4    1   64 1    
     5    2    3 2    
     6    2    4 am   BACKBONE|DICT|INTERRES
     7    4    5 1    
     8    4   65 1    
     9    5    6 1    
    10    5   25 1    
    11    5   66 1    
    12    6    7 1    
    13    6   67 1    
    14    6   68 1    
    15    7    8 1    
    16    8    9 1    
    17    8   69 1    
    18    8   70 1    
    19    9   10 ar   
    20    9   14 ar   
    21   10   11 ar   
    22   10   71 1    
    23   11   12 ar   
    24   11   61 1    
    25   12   13 ar   
    26   12   72 1    
    27   13   14 ar   
    28   13   15 1    
    29   14   73 1    
    30   15   16 1    
    31   15   74 1    
    32   15   75 1    
    33   16   17 1    
    34   17   18 1    
    35   17   76 1    
    36   17   77 1    
    37   18   19 1    
    38   18   27 1    
    39   18   78 1    
    40   19   20 am   BACKBONE|DICT|INTERRES
    41   19   79 1    
    42   20   21 2    
    43   20   22 1    
    44   22   23 1    
    45   22   24 1    
    46   22   80 1    
    47   23   81 1    
    48   23   82 1    
    49   23   83 1    
    50   24   25 am   BACKBONE|DICT|INTERRES
    51   24   84 1    
    52   25   26 2    
    53   27   28 2    
    54   27   29 am   BACKBONE|DICT|INTERRES
    55   29   30 1    
    56   29   85 1    
    57   30   31 1    
    58   30   32 1    
    59   30   86 1    
    60   31   87 1    
    61   31   88 1    
    62   31   89 1    
    63   32   33 2    
    64   32   34 am   BACKBONE|DICT|INTERRES
    65   34   35 1    
    66   34   90 1    
    67   35   36 1    
    68   35   37 1    
    69   35   91 1    
    70   36   92 1    
    71   36   93 1    
    72   36   94 1    
    73   37   38 2    
    74   37   39 am   BACKBONE|DICT|INTERRES
    75   39   40 1    
    76   39   95 1    
    77   40   41 1    
    78   40   42 1    
    79   40   96 1    
    80   41   97 1    
    81   41   98 1    
    82   41   99 1    
    83   42   43 2    
    84   42   44 am   BACKBONE|DICT|INTERRES
    85   44   45 1    
    86   44  100 1    
    87   45   46 1    
    88   45   47 1    
    89   45  101 1    
    90   46  102 1    
    91   46  103 1    
    92   46  104 1    
    93   47   48 2    
    94   47   49 am   BACKBONE|DICT|INTERRES
    95   49   50 1    
    96   49  105 1    
    97   50   51 1    
    98   50   52 1    
    99   50  106 1    
   100   51  107 1    
   101   51  108 1    
   102   51  109 1    
   103   52   53 2    
   104   52   54 am   BACKBONE|DICT|INTERRES
   105   54   55 1    
   106   54  110 1    
   107   55   56 1    
   108   55   59 1    
   109   55  111 1    
   110   56   57 am   BACKBONE|DICT|INTERRES
   111   56   58 2    
   112   57  112 1    
   113   57  113 1    
   114   59   60 1    
   115   59  114 1    
   116   59  115 1    
   117   60   61 1    
   118   61  116 1    
   119   61  117 1    
@<TRIPOS>SUBSTRUCTURE
     1 UNK         1 GROUP             0       ****    0 ROOT    
