@<TRIPOS>MOLECULE
3R8
117   119    1
SMALL
USER_CHARGES


@<TRIPOS>ATOM
      1 CA         19.1774  -30.0504  -47.4567 C.3       0 UNK        -0.2013 
      2 C          18.8487  -28.6455  -47.9559 C.2       0 UNK         0.4866 
      3 O          18.9737  -28.3871  -49.1514 O.2       0 UNK        -0.5176 
      4 N          18.4135  -27.7111  -47.0999 N.am      1 UNK        -0.4884 
      5 CA         18.2931  -27.8273  -45.6425 C.3       1 UNK         0.0853 
      6 C6         17.2942  -26.7920  -45.0693 C.3       10 UNK        -0.0849 
      7 S7         15.5915  -27.1579  -45.6188 S.3       10 UNK        -0.2776 
      8 C8         14.7495  -27.5998  -44.0593 C.3       10 UNK         0.0316 
      9 C9         15.4859  -28.6529  -43.2357 C.ar      10 UNK        -0.0863 
     10 C10        15.9102  -29.8546  -43.8141 C.ar      10 UNK        -0.1009 
     11 C11        16.6026  -30.8021  -43.0547 C.ar      10 UNK        -0.0712 
     12 C12        16.8332  -30.5623  -41.6977 C.ar      10 UNK        -0.0894 
     13 C13        16.3937  -29.3771  -41.1017 C.ar      10 UNK        -0.0745 
     14 C14        15.7300  -28.4228  -41.8777 C.ar      10 UNK        -0.0972 
     15 C15        16.6050  -29.1473  -39.6122 C.3       10 UNK         0.0209 
     16 S16        18.3599  -28.9362  -39.1833 S.3       10 UNK        -0.2568 
     17 C17        18.7019  -27.2500  -39.7851 C.3       10 UNK        -0.0983 
     18 CA         20.1347  -27.1499  -40.3569 C.3       3 UNK         0.0876 
     19 N          20.2847  -27.9022  -41.6060 N.am      3 UNK        -0.4424 
     20 C          21.4608  -28.1883  -42.1822 C.2       2 UNK         0.4918 
     21 O          22.5484  -27.9992  -41.6332 O.2       2 UNK        -0.4875 
     22 CA         21.4311  -28.7506  -43.6155 C.3       2 UNK         0.0481 
     23 CB         21.9000  -30.2079  -43.6437 C.3       2 UNK        -0.1831 
     24 N          20.1059  -28.6811  -44.2360 N.am      2 UNK        -0.4498 
     25 C          19.6822  -27.6673  -45.0015 C.2       1 UNK         0.5027 
     26 O          20.3398  -26.6500  -45.2297 O.2       1 UNK        -0.4969 
     27 C          20.5566  -25.6815  -40.5723 C.2       3 UNK         0.5005 
     28 O          20.4709  -25.1751  -41.6936 O.2       3 UNK        -0.5279 
     29 N          21.0664  -25.0445  -39.5079 N.am      4 UNK        -0.4463 
     30 CA         21.7340  -23.7300  -39.4646 C.3       4 UNK         0.0283 
     31 CB         20.8508  -22.5964  -40.0231 C.3       4 UNK        -0.1875 
     32 C          23.1350  -23.7272  -40.1097 C.2       4 UNK         0.4949 
     33 O          24.0321  -23.0679  -39.5854 O.2       4 UNK        -0.5039 
     34 N          23.3246  -24.5059  -41.1843 N.am      5 UNK        -0.4663 
     35 CA         24.6283  -24.8317  -41.7751 C.3       5 UNK         0.0242 
     36 CB         24.4172  -25.3706  -43.1998 C.3       5 UNK        -0.1982 
     37 C          25.4429  -25.8305  -40.9255 C.2       5 UNK         0.5017 
     38 O          26.6514  -25.9430  -41.1329 O.2       5 UNK        -0.5012 
     39 N          24.7711  -26.5099  -39.9824 N.am      6 UNK        -0.4439 
     40 CA         25.2966  -27.4581  -38.9950 C.3       6 UNK         0.0297 
     41 CB         26.2880  -26.7662  -38.0341 C.3       6 UNK        -0.2006 
     42 C          25.8614  -28.7380  -39.6370 C.2       6 UNK         0.4892 
     43 O          26.9840  -29.1442  -39.3289 O.2       6 UNK        -0.5089 
     44 N          25.0575  -29.3580  -40.5064 N.am      7 UNK        -0.4243 
     45 CA         25.3304  -30.6479  -41.1374 C.3       7 UNK         0.0196 
     46 CB         25.8534  -30.4020  -42.5664 C.3       7 UNK        -0.2007 
     47 C          24.0593  -31.5130  -41.1092 C.2       7 UNK         0.5020 
     48 O          23.0224  -31.0694  -40.6105 O.2       7 UNK        -0.5147 
     49 N          24.1540  -32.7327  -41.6494 N.am      8 UNK        -0.4734 
     50 CA         23.0222  -33.6412  -41.8511 C.3       8 UNK         0.0238 
     51 CB         23.4415  -35.0621  -41.4383 C.3       8 UNK        -0.1912 
     52 C          22.6019  -33.6177  -43.3281 C.2       8 UNK         0.5038 
     53 O          23.4609  -33.4562  -44.1990 O.2       8 UNK        -0.5046 
     54 N          21.2997  -33.7981  -43.5837 N.am      9 UNK        -0.4200 
     55 CA         20.7134  -33.8383  -44.9368 C.3       9 UNK         0.0839 
     56 C          20.9928  -35.1522  -45.7250 C.2       9 UNK         0.5513 
     57 N          21.5157  -36.2051  -45.1078 N.am      9 UNK        -0.7519 
     58 O          20.7327  -35.2138  -46.9238 O.2       9 UNK        -0.4960 
     59 C59        19.1940  -33.5178  -44.9241 C.3       10 UNK        -0.0876 
     60 S60        18.8309  -31.8645  -44.2484 S.3       10 UNK        -0.2414 
     61 C61        17.1141  -32.0799  -43.6977 C.3       10 UNK         0.0169 
     62 H62        18.3163  -30.5018  -46.9653 H         1 UNK         0.0903 
     63 H63        19.4503  -30.6960  -48.2912 H         1 UNK         0.0903 
     64 H64        20.0184  -30.0385  -46.7649 H         1 UNK         0.0903 
     65 H65        18.2099  -26.7918  -47.4651 H         1 UNK         0.3096 
     66 H66        17.9157  -28.8209  -45.3993 H         1 UNK         0.1121 
     67 H67        17.3297  -26.7744  -43.9783 H         1 UNK         0.0849 
     68 H68        17.5555  -25.7817  -45.3903 H         1 UNK         0.0849 
     69 H69        14.6074  -26.6869  -43.4786 H         1 UNK         0.0865 
     70 H70        13.7506  -27.9711  -44.2918 H         1 UNK         0.0865 
     71 H71        15.7204  -30.0415  -44.8625 H         1 UNK         0.1346 
     72 H72        17.3595  -31.2970  -41.1033 H         1 UNK         0.1412 
     73 H73        15.3909  -27.5040  -41.4183 H         1 UNK         0.1426 
     74 H74        16.2136  -30.0060  -39.0650 H         1 UNK         0.0716 
     75 H75        16.0410  -28.2813  -39.2618 H         1 UNK         0.0716 
     76 H76        18.5669  -26.5714  -38.9406 H         1 UNK         0.0695 
     77 H77        17.9659  -26.9571  -40.5360 H         1 UNK         0.0695 
     78 H78        20.8263  -27.5838  -39.6304 H         1 UNK         0.0983 
     79 H79        19.4390  -28.0779  -42.1246 H         1 UNK         0.3095 
     80 H80        22.1387  -28.1666  -44.2077 H         1 UNK         0.0454 
     81 H81        21.3471  -30.8229  -42.9330 H         1 UNK         0.0851 
     82 H82        22.9532  -30.2739  -43.3846 H         1 UNK         0.0851 
     83 H83        21.7914  -30.6499  -44.6341 H         1 UNK         0.0851 
     84 H84        19.5121  -29.4905  -44.1032 H         1 UNK         0.2976 
     85 H85        21.0852  -25.5475  -38.6302 H         1 UNK         0.3116 
     86 H86        21.8856  -23.5223  -38.4039 H         1 UNK         0.0646 
     87 H87        20.7123  -22.6731  -41.1016 H         1 UNK         0.0847 
     88 H88        21.3053  -21.6240  -39.8293 H         1 UNK         0.0847 
     89 H89        19.8659  -22.5924  -39.5564 H         1 UNK         0.0847 
     90 H90        22.5086  -24.9595  -41.5828 H         1 UNK         0.3040 
     91 H91        25.2147  -23.9123  -41.8409 H         1 UNK         0.1015 
     92 H92        23.8923  -24.6473  -43.8241 H         1 UNK         0.0786 
     93 H93        23.8415  -26.2958  -43.2034 H         1 UNK         0.0786 
     94 H94        25.3725  -25.5813  -43.6824 H         1 UNK         0.0786 
     95 H95        23.7701  -26.3788  -39.9710 H         1 UNK         0.3172 
     96 H96        24.4397  -27.7755  -38.3988 H         1 UNK         0.0595 
     97 H97        27.2010  -26.4570  -38.5438 H         1 UNK         0.0839 
     98 H98        26.5810  -27.4385  -37.2268 H         1 UNK         0.0839 
     99 H99        25.8448  -25.8827  -37.5746 H         1 UNK         0.0839 
    100 H100       24.1327  -28.9782  -40.6914 H         1 UNK         0.2998 
    101 H101       26.0892  -31.1911  -40.5699 H         1 UNK         0.0822 
    102 H102       26.8097  -29.8791  -42.5428 H         1 UNK         0.0787 
    103 H103       26.0134  -31.3341  -43.1092 H         1 UNK         0.0787 
    104 H104       25.1654  -29.7923  -43.1514 H         1 UNK         0.0787 
    105 H105       25.0191  -33.0033  -42.0964 H         1 UNK         0.3055 
    106 H106       22.1725  -33.3361  -41.2356 H         1 UNK         0.1106 
    107 H107       22.6134  -35.7634  -41.5484 H         1 UNK         0.0828 
    108 H108       24.2679  -35.4343  -42.0455 H         1 UNK         0.0828 
    109 H109       23.7532  -35.0942  -40.3942 H         1 UNK         0.0828 
    110 H110       20.6551  -33.9333  -42.8191 H         1 UNK         0.2931 
    111 H111       21.1960  -33.0483  -45.5162 H         1 UNK         0.0412 
    112 H112       21.7350  -36.1675  -44.1259 H         1 UNK         0.3472 
    113 H113       21.6937  -37.0469  -45.6333 H         1 UNK         0.3472 
    114 H114       18.7832  -33.5525  -45.9352 H         1 UNK         0.0970 
    115 H115       18.6547  -34.2733  -44.3498 H         1 UNK         0.0970 
    116 H116       17.0575  -32.9052  -42.9862 H         1 UNK         0.0612 
    117 H117       16.4903  -32.3555  -44.5495 H         1 UNK         0.0612 
@<TRIPOS>BOND
     1    1    2 1    
     2    1   62 1    
     3    1   63 1    
     4    1   64 1    
     5    2    3 2    
     6    2    4 am   BACKBONE|DICT|INTERRES
     7    4    5 1    
     8    4   65 1    
     9    5    6 1    
    10    5   25 1    
    11    5   66 1    
    12    6    7 1    
    13    6   67 1    
    14    6   68 1    
    15    7    8 1    
    16    8    9 1    
    17    8   69 1    
    18    8   70 1    
    19    9   10 ar   
    20    9   14 ar   
    21   10   11 ar   
    22   10   71 1    
    23   11   12 ar   
    24   11   61 1    
    25   12   13 ar   
    26   12   72 1    
    27   13   14 ar   
    28   13   15 1    
    29   14   73 1    
    30   15   16 1    
    31   15   74 1    
    32   15   75 1    
    33   16   17 1    
    34   17   18 1    
    35   17   76 1    
    36   17   77 1    
    37   18   19 1    
    38   18   27 1    
    39   18   78 1    
    40   19   20 am   BACKBONE|DICT|INTERRES
    41   19   79 1    
    42   20   21 2    
    43   20   22 1    
    44   22   23 1    
    45   22   24 1    
    46   22   80 1    
    47   23   81 1    
    48   23   82 1    
    49   23   83 1    
    50   24   25 am   BACKBONE|DICT|INTERRES
    51   24   84 1    
    52   25   26 2    
    53   27   28 2    
    54   27   29 am   BACKBONE|DICT|INTERRES
    55   29   30 1    
    56   29   85 1    
    57   30   31 1    
    58   30   32 1    
    59   30   86 1    
    60   31   87 1    
    61   31   88 1    
    62   31   89 1    
    63   32   33 2    
    64   32   34 am   BACKBONE|DICT|INTERRES
    65   34   35 1    
    66   34   90 1    
    67   35   36 1    
    68   35   37 1    
    69   35   91 1    
    70   36   92 1    
    71   36   93 1    
    72   36   94 1    
    73   37   38 2    
    74   37   39 am   BACKBONE|DICT|INTERRES
    75   39   40 1    
    76   39   95 1    
    77   40   41 1    
    78   40   42 1    
    79   40   96 1    
    80   41   97 1    
    81   41   98 1    
    82   41   99 1    
    83   42   43 2    
    84   42   44 am   BACKBONE|DICT|INTERRES
    85   44   45 1    
    86   44  100 1    
    87   45   46 1    
    88   45   47 1    
    89   45  101 1    
    90   46  102 1    
    91   46  103 1    
    92   46  104 1    
    93   47   48 2    
    94   47   49 am   BACKBONE|DICT|INTERRES
    95   49   50 1    
    96   49  105 1    
    97   50   51 1    
    98   50   52 1    
    99   50  106 1    
   100   51  107 1    
   101   51  108 1    
   102   51  109 1    
   103   52   53 2    
   104   52   54 am   BACKBONE|DICT|INTERRES
   105   54   55 1    
   106   54  110 1    
   107   55   56 1    
   108   55   59 1    
   109   55  111 1    
   110   56   57 am   BACKBONE|DICT|INTERRES
   111   56   58 2    
   112   57  112 1    
   113   57  113 1    
   114   59   60 1    
   115   59  114 1    
   116   59  115 1    
   117   60   61 1    
   118   61  116 1    
   119   61  117 1    
@<TRIPOS>SUBSTRUCTURE
     1 UNK         1 GROUP             0       ****    0 ROOT    
