@<TRIPOS>MOLECULE
3R8
117   119    1
SMALL
USER_CHARGES


@<TRIPOS>ATOM
      1 CA         14.0194  -23.4897  -43.2894 C.3       0 UNK        -0.2013 
      2 C          15.0426  -24.0625  -44.2586 C.2       0 UNK         0.4866 
      3 O          16.0325  -23.3983  -44.5653 O.2       0 UNK        -0.5176 
      4 N          14.8084  -25.2883  -44.7465 N.am      1 UNK        -0.4884 
      5 CA         15.6982  -26.0082  -45.6676 C.3       1 UNK         0.0853 
      6 C6         14.9805  -27.2378  -46.2829 C.3       10 UNK        -0.0849 
      7 S7         15.7645  -27.8414  -47.8170 S.3       10 UNK        -0.2776 
      8 C8         16.1979  -29.5663  -47.3936 C.3       10 UNK         0.0316 
      9 C9         17.5349  -29.7148  -46.6696 C.ar      10 UNK        -0.0863 
     10 C10        17.6234  -30.4664  -45.4918 C.ar      10 UNK        -0.1009 
     11 C11        18.8612  -30.6904  -44.8749 C.ar      10 UNK        -0.0712 
     12 C12        20.0174  -30.1569  -45.4540 C.ar      10 UNK        -0.0894 
     13 C13        19.9411  -29.3688  -46.6057 C.ar      10 UNK        -0.0745 
     14 C14        18.6997  -29.1641  -47.2146 C.ar      10 UNK        -0.0972 
     15 C15        21.1966  -28.7534  -47.2095 C.3       10 UNK         0.0209 
     16 S16        21.5735  -27.1166  -46.4949 S.3       10 UNK        -0.2568 
     17 C17        22.4152  -27.5676  -44.9390 C.3       10 UNK        -0.0983 
     18 CA         21.6964  -27.0872  -43.6463 C.3       3 UNK         0.0876 
     19 N          20.2772  -27.4628  -43.6312 N.am      3 UNK        -0.4424 
     20 C          19.3077  -26.8776  -42.9193 C.2       2 UNK         0.4918 
     21 O          19.4838  -25.8922  -42.2008 O.2       2 UNK        -0.4875 
     22 CA         17.9342  -27.5683  -42.9495 C.3       2 UNK         0.0481 
     23 CB         17.4037  -27.7974  -41.5242 C.3       2 UNK        -0.1831 
     24 N          16.9104  -26.8825  -43.7363 N.am      2 UNK        -0.4498 
     25 C          17.0202  -26.4259  -44.9935 C.2       1 UNK         0.5027 
     26 O          18.0722  -26.3423  -45.6252 O.2       1 UNK        -0.4969 
     27 C          22.4235  -27.6142  -42.3828 C.2       3 UNK         0.5005 
     28 O          23.5353  -28.1370  -42.4884 O.2       3 UNK        -0.5279 
     29 N          21.7768  -27.5217  -41.2112 N.am      4 UNK        -0.4463 
     30 CA         22.1176  -28.2299  -39.9716 C.3       4 UNK         0.0283 
     31 CB         21.0661  -27.9119  -38.8983 C.3       4 UNK        -0.1875 
     32 C          23.5351  -27.9853  -39.4305 C.2       4 UNK         0.4949 
     33 O          24.0784  -28.8661  -38.7661 O.2       4 UNK        -0.5039 
     34 N          24.1216  -26.8259  -39.7517 N.am      5 UNK        -0.4663 
     35 CA         25.5031  -26.4731  -39.4174 C.3       5 UNK         0.0242 
     36 CB         25.7092  -24.9713  -39.6736 C.3       5 UNK        -0.1982 
     37 C          26.5625  -27.2969  -40.1767 C.2       5 UNK         0.5017 
     38 O          27.6989  -27.3672  -39.7069 O.2       5 UNK        -0.5012 
     39 N          26.1909  -27.8828  -41.3243 N.am      6 UNK        -0.4439 
     40 CA         27.0774  -28.6639  -42.1892 C.3       6 UNK         0.0297 
     41 CB         27.2001  -27.9627  -43.5526 C.3       6 UNK        -0.2006 
     42 C          26.5790  -30.1041  -42.3718 C.2       6 UNK         0.4892 
     43 O          27.3816  -31.0336  -42.2821 O.2       6 UNK        -0.5089 
     44 N          25.2779  -30.2683  -42.6429 N.am      7 UNK        -0.4243 
     45 CA         24.6526  -31.5530  -42.9631 C.3       7 UNK         0.0196 
     46 CB         23.4235  -31.2968  -43.8485 C.3       7 UNK        -0.2007 
     47 C          24.2515  -32.3714  -41.7265 C.2       7 UNK         0.5020 
     48 O          24.0431  -33.5768  -41.8655 O.2       7 UNK        -0.5147 
     49 N          24.1363  -31.7170  -40.5589 N.am      8 UNK        -0.4734 
     50 CA         23.7000  -32.2816  -39.2729 C.3       8 UNK         0.0238 
     51 CB         24.7591  -33.2591  -38.7192 C.3       8 UNK        -0.1912 
     52 C          22.2888  -32.8992  -39.3542 C.2       8 UNK         0.5038 
     53 O          22.1034  -34.0698  -39.0155 O.2       8 UNK        -0.5046 
     54 N          21.3294  -32.0937  -39.8320 N.am      9 UNK        -0.4200 
     55 CA         19.9219  -32.4668  -40.0612 C.3       9 UNK         0.0839 
     56 C          19.1407  -32.9504  -38.8035 C.2       9 UNK         0.5513 
     57 N          19.5562  -32.6064  -37.5904 N.am      9 UNK        -0.7519 
     58 O          18.1354  -33.6429  -38.9365 O.2       9 UNK        -0.4960 
     59 C59        19.1272  -31.3276  -40.7546 C.3       10 UNK        -0.0876 
     60 S60        19.9012  -30.6888  -42.2797 S.3       10 UNK        -0.2414 
     61 C61        18.9411  -31.5187  -43.5938 C.3       10 UNK         0.0169 
     62 H62        13.1930  -24.1780  -43.1125 H         1 UNK         0.0903 
     63 H63        14.4909  -23.2731  -42.3311 H         1 UNK         0.0903 
     64 H64        13.6079  -22.5611  -43.6840 H         1 UNK         0.0903 
     65 H65        13.9669  -25.7758  -44.4710 H         1 UNK         0.3096 
     66 H66        15.9513  -25.3176  -46.4759 H         1 UNK         0.1121 
     67 H67        13.9571  -26.9692  -46.5502 H         1 UNK         0.0849 
     68 H68        14.8899  -28.0475  -45.5560 H         1 UNK         0.0849 
     69 H69        15.3861  -30.0159  -46.8197 H         1 UNK         0.0865 
     70 H70        16.2561  -30.1374  -48.3211 H         1 UNK         0.0865 
     71 H71        16.7279  -30.8965  -45.0641 H         1 UNK         0.1346 
     72 H72        20.9766  -30.3448  -44.9953 H         1 UNK         0.1412 
     73 H73        18.6386  -28.5748  -48.1195 H         1 UNK         0.1426 
     74 H74        22.0493  -29.4231  -47.0865 H         1 UNK         0.0716 
     75 H75        21.0647  -28.6356  -48.2861 H         1 UNK         0.0716 
     76 H76        23.4193  -27.1416  -44.9830 H         1 UNK         0.0695 
     77 H77        22.5587  -28.6473  -44.9172 H         1 UNK         0.0695 
     78 H78        21.7591  -25.9975  -43.6162 H         1 UNK         0.0983 
     79 H79        20.0290  -28.2493  -44.2160 H         1 UNK         0.3095 
     80 H80        18.0611  -28.5488  -43.4042 H         1 UNK         0.0454 
     81 H81        17.1518  -26.8577  -41.0310 H         1 UNK         0.0851 
     82 H82        18.1488  -28.2985  -40.9062 H         1 UNK         0.0851 
     83 H83        16.5140  -28.4270  -41.5262 H         1 UNK         0.0851 
     84 H84        15.9935  -26.8396  -43.3172 H         1 UNK         0.2976 
     85 H85        20.8983  -27.0155  -41.2175 H         1 UNK         0.3116 
     86 H86        22.0526  -29.2944  -40.1987 H         1 UNK         0.0646 
     87 H87        20.0673  -28.2076  -39.2181 H         1 UNK         0.0847 
     88 H88        21.2773  -28.4467  -37.9710 H         1 UNK         0.0847 
     89 H89        21.0420  -26.8476  -38.6619 H         1 UNK         0.0847 
     90 H90        23.5987  -26.1654  -40.3084 H         1 UNK         0.3040 
     91 H91        25.6517  -26.6633  -38.3521 H         1 UNK         0.1015 
     92 H92        25.5613  -24.7168  -40.7238 H         1 UNK         0.0786 
     93 H93        26.7207  -24.6641  -39.4036 H         1 UNK         0.0786 
     94 H94        25.0213  -24.3687  -39.0803 H         1 UNK         0.0786 
     95 H95        25.2229  -27.7969  -41.6224 H         1 UNK         0.3172 
     96 H96        28.0779  -28.7252  -41.7562 H         1 UNK         0.0595 
     97 H97        26.2310  -27.8511  -44.0408 H         1 UNK         0.0839 
     98 H98        27.8435  -28.5286  -44.2276 H         1 UNK         0.0839 
     99 H99        27.6365  -26.9695  -43.4468 H         1 UNK         0.0839 
    100 H100       24.6700  -29.4508  -42.6814 H         1 UNK         0.2998 
    101 H101       25.3599  -32.1570  -43.5359 H         1 UNK         0.0822 
    102 H102       22.9233  -32.2302  -44.1106 H         1 UNK         0.0787 
    103 H103       22.6938  -30.6678  -43.3395 H         1 UNK         0.0787 
    104 H104       23.7034  -30.8067  -44.7809 H         1 UNK         0.0787 
    105 H105       24.3519  -30.7293  -40.5534 H         1 UNK         0.3055 
    106 H106       23.6282  -31.4521  -38.5683 H         1 UNK         0.1106 
    107 H107       25.7349  -32.7805  -38.6381 H         1 UNK         0.0828 
    108 H108       24.4852  -33.6064  -37.7222 H         1 UNK         0.0828 
    109 H109       24.8701  -34.1415  -39.3499 H         1 UNK         0.0828 
    110 H110       21.5842  -31.1650  -40.1272 H         1 UNK         0.2931 
    111 H111       19.9437  -33.3138  -40.7494 H         1 UNK         0.0412 
    112 H112       20.3812  -32.0418  -37.4712 H         1 UNK         0.3472 
    113 H113       19.0429  -32.9261  -36.7841 H         1 UNK         0.3472 
    114 H114       18.1087  -31.6516  -40.9757 H         1 UNK         0.0970 
    115 H115       19.0205  -30.4850  -40.0695 H         1 UNK         0.0970 
    116 H116       19.4015  -32.4825  -43.8146 H         1 UNK         0.0612 
    117 H117       17.9349  -31.7306  -43.2307 H         1 UNK         0.0612 
@<TRIPOS>BOND
     1    1    2 1    
     2    1   62 1    
     3    1   63 1    
     4    1   64 1    
     5    2    3 2    
     6    2    4 am   BACKBONE|DICT|INTERRES
     7    4    5 1    
     8    4   65 1    
     9    5    6 1    
    10    5   25 1    
    11    5   66 1    
    12    6    7 1    
    13    6   67 1    
    14    6   68 1    
    15    7    8 1    
    16    8    9 1    
    17    8   69 1    
    18    8   70 1    
    19    9   10 ar   
    20    9   14 ar   
    21   10   11 ar   
    22   10   71 1    
    23   11   12 ar   
    24   11   61 1    
    25   12   13 ar   
    26   12   72 1    
    27   13   14 ar   
    28   13   15 1    
    29   14   73 1    
    30   15   16 1    
    31   15   74 1    
    32   15   75 1    
    33   16   17 1    
    34   17   18 1    
    35   17   76 1    
    36   17   77 1    
    37   18   19 1    
    38   18   27 1    
    39   18   78 1    
    40   19   20 am   BACKBONE|DICT|INTERRES
    41   19   79 1    
    42   20   21 2    
    43   20   22 1    
    44   22   23 1    
    45   22   24 1    
    46   22   80 1    
    47   23   81 1    
    48   23   82 1    
    49   23   83 1    
    50   24   25 am   BACKBONE|DICT|INTERRES
    51   24   84 1    
    52   25   26 2    
    53   27   28 2    
    54   27   29 am   BACKBONE|DICT|INTERRES
    55   29   30 1    
    56   29   85 1    
    57   30   31 1    
    58   30   32 1    
    59   30   86 1    
    60   31   87 1    
    61   31   88 1    
    62   31   89 1    
    63   32   33 2    
    64   32   34 am   BACKBONE|DICT|INTERRES
    65   34   35 1    
    66   34   90 1    
    67   35   36 1    
    68   35   37 1    
    69   35   91 1    
    70   36   92 1    
    71   36   93 1    
    72   36   94 1    
    73   37   38 2    
    74   37   39 am   BACKBONE|DICT|INTERRES
    75   39   40 1    
    76   39   95 1    
    77   40   41 1    
    78   40   42 1    
    79   40   96 1    
    80   41   97 1    
    81   41   98 1    
    82   41   99 1    
    83   42   43 2    
    84   42   44 am   BACKBONE|DICT|INTERRES
    85   44   45 1    
    86   44  100 1    
    87   45   46 1    
    88   45   47 1    
    89   45  101 1    
    90   46  102 1    
    91   46  103 1    
    92   46  104 1    
    93   47   48 2    
    94   47   49 am   BACKBONE|DICT|INTERRES
    95   49   50 1    
    96   49  105 1    
    97   50   51 1    
    98   50   52 1    
    99   50  106 1    
   100   51  107 1    
   101   51  108 1    
   102   51  109 1    
   103   52   53 2    
   104   52   54 am   BACKBONE|DICT|INTERRES
   105   54   55 1    
   106   54  110 1    
   107   55   56 1    
   108   55   59 1    
   109   55  111 1    
   110   56   57 am   BACKBONE|DICT|INTERRES
   111   56   58 2    
   112   57  112 1    
   113   57  113 1    
   114   59   60 1    
   115   59  114 1    
   116   59  115 1    
   117   60   61 1    
   118   61  116 1    
   119   61  117 1    
@<TRIPOS>SUBSTRUCTURE
     1 UNK         1 GROUP             0       ****    0 ROOT    
