@<TRIPOS>MOLECULE
3R8
117   119    1
SMALL
USER_CHARGES


@<TRIPOS>ATOM
      1 CA         12.9609  -24.0940  -41.0829 C.3       0 UNK        -0.2013 
      2 C          13.6628  -24.5337  -42.3591 C.2       0 UNK         0.4866 
      3 O          13.3080  -24.0724  -43.4441 O.2       0 UNK        -0.5176 
      4 N          14.6554  -25.4201  -42.2390 N.am      1 UNK        -0.4884 
      5 CA         15.4701  -25.9390  -43.3355 C.3       1 UNK         0.0853 
      6 C6         14.7642  -27.1067  -44.0693 C.3       10 UNK        -0.0849 
      7 S7         15.4046  -27.3735  -45.7564 S.3       10 UNK        -0.2776 
      8 C8         15.6755  -29.1739  -45.7703 C.3       10 UNK         0.0316 
      9 C9         17.0651  -29.5449  -45.2740 C.ar      10 UNK        -0.0863 
     10 C10        17.3039  -29.7621  -43.9136 C.ar      10 UNK        -0.1009 
     11 C11        18.5761  -30.1319  -43.4677 C.ar      10 UNK        -0.0712 
     12 C12        19.6135  -30.2875  -44.3925 C.ar      10 UNK        -0.0894 
     13 C13        19.3836  -30.0842  -45.7552 C.ar      10 UNK        -0.0745 
     14 C14        18.1103  -29.7045  -46.1885 C.ar      10 UNK        -0.0972 
     15 C15        20.4945  -30.3096  -46.7690 C.3       10 UNK         0.0209 
     16 S16        21.3438  -28.7629  -47.2068 S.3       10 UNK        -0.2568 
     17 C17        22.5535  -28.5876  -45.8550 C.3       10 UNK        -0.0983 
     18 CA         22.4419  -27.2139  -45.1453 C.3       3 UNK         0.0876 
     19 N          21.3404  -27.1618  -44.1894 N.am      3 UNK        -0.4424 
     20 C          20.1604  -26.5661  -44.3735 C.2       2 UNK         0.4918 
     21 O          19.7831  -26.0646  -45.4355 O.2       2 UNK        -0.4875 
     22 CA         19.2801  -26.4600  -43.1237 C.3       2 UNK         0.0481 
     23 CB         19.7886  -25.3347  -42.1997 C.3       2 UNK        -0.1831 
     24 N          17.9009  -26.1972  -43.5217 N.am      2 UNK        -0.4498 
     25 C          16.8285  -26.3418  -42.7379 C.2       1 UNK         0.5027 
     26 O          16.8768  -26.7586  -41.5763 O.2       1 UNK        -0.4969 
     27 C          23.7253  -26.8950  -44.3592 C.2       3 UNK         0.5005 
     28 O          23.7427  -27.0214  -43.1291 O.2       3 UNK        -0.5279 
     29 N          24.7809  -26.5092  -45.0914 N.am      4 UNK        -0.4463 
     30 CA         26.0805  -26.0609  -44.5733 C.3       4 UNK         0.0283 
     31 CB         26.9668  -25.6201  -45.7496 C.3       4 UNK        -0.1875 
     32 C          26.8319  -27.0781  -43.6950 C.2       4 UNK         0.4949 
     33 O          27.6730  -26.6685  -42.8941 O.2       4 UNK        -0.5039 
     34 N          26.5022  -28.3714  -43.8146 N.am      5 UNK        -0.4663 
     35 CA         27.0002  -29.4671  -42.9754 C.3       5 UNK         0.0242 
     36 CB         26.7729  -30.7982  -43.7166 C.3       5 UNK        -0.1982 
     37 C          26.3679  -29.4609  -41.5656 C.2       5 UNK         0.5017 
     38 O          25.7976  -30.4670  -41.1406 O.2       5 UNK        -0.5012 
     39 N          26.4463  -28.3078  -40.8842 N.am      6 UNK        -0.4439 
     40 CA         25.9687  -28.0085  -39.5261 C.3       6 UNK         0.0297 
     41 CB         26.8594  -28.7290  -38.4920 C.3       6 UNK        -0.2006 
     42 C          24.4685  -28.2868  -39.2842 C.2       6 UNK         0.4892 
     43 O          24.0715  -28.4670  -38.1316 O.2       6 UNK        -0.5089 
     44 N          23.6706  -28.3445  -40.3638 N.am      7 UNK        -0.4243 
     45 CA         22.2733  -28.7945  -40.4089 C.3       7 UNK         0.0196 
     46 CB         21.3454  -27.7569  -39.7440 C.3       7 UNK        -0.2007 
     47 C          22.0667  -30.2197  -39.8476 C.2       7 UNK         0.5020 
     48 O          20.9993  -30.5157  -39.3087 O.2       7 UNK        -0.5147 
     49 N          23.0742  -31.0938  -39.9863 N.am      8 UNK        -0.4734 
     50 CA         23.0946  -32.4525  -39.4333 C.3       8 UNK         0.0238 
     51 CB         24.5603  -32.8771  -39.2216 C.3       8 UNK        -0.1912 
     52 C          22.2993  -33.4676  -40.2812 C.2       8 UNK         0.5038 
     53 O          22.8190  -34.5389  -40.6007 O.2       8 UNK        -0.5046 
     54 N          21.0553  -33.1197  -40.6315 N.am      9 UNK        -0.4200 
     55 CA         20.1097  -33.9848  -41.3555 C.3       9 UNK         0.0839 
     56 C          19.3474  -35.0054  -40.4601 C.2       9 UNK         0.5513 
     57 N          19.4688  -34.9562  -39.1384 N.am      9 UNK        -0.7519 
     58 O          18.6471  -35.8721  -40.9773 O.2       9 UNK        -0.4960 
     59 C59        19.1604  -33.1687  -42.2713 C.3       10 UNK        -0.0876 
     60 S60        18.1346  -31.9335  -41.3947 S.3       10 UNK        -0.2414 
     61 C61        18.8309  -30.3578  -41.9855 C.3       10 UNK         0.0169 
     62 H62        13.0618  -23.0170  -40.9509 H         1 UNK         0.0903 
     63 H63        11.8991  -24.3328  -41.1375 H         1 UNK         0.0903 
     64 H64        13.3734  -24.5839  -40.2010 H         1 UNK         0.0903 
     65 H65        14.9520  -25.7496  -41.3273 H         1 UNK         0.3096 
     66 H66        15.6432  -25.1206  -44.0389 H         1 UNK         0.1121 
     67 H67        13.7013  -26.8864  -44.1808 H         1 UNK         0.0849 
     68 H68        14.8080  -28.0231  -43.4790 H         1 UNK         0.0849 
     69 H69        15.5431  -29.5339  -46.7918 H         1 UNK         0.0865 
     70 H70        14.9098  -29.6794  -45.1797 H         1 UNK         0.0865 
     71 H71        16.5022  -29.6505  -43.1972 H         1 UNK         0.1346 
     72 H72        20.5977  -30.5791  -44.0540 H         1 UNK         0.1412 
     73 H73        17.9312  -29.5444  -47.2432 H         1 UNK         0.1426 
     74 H74        20.0715  -30.7403  -47.6778 H         1 UNK         0.0716 
     75 H75        21.2153  -31.0412  -46.4005 H         1 UNK         0.0716 
     76 H76        23.5361  -28.7173  -46.3128 H         1 UNK         0.0695 
     77 H77        22.4509  -29.4024  -45.1369 H         1 UNK         0.0695 
     78 H78        22.3185  -26.4233  -45.8894 H         1 UNK         0.0983 
     79 H79        21.6131  -27.4392  -43.2567 H         1 UNK         0.3095 
     80 H80        19.3233  -27.4138  -42.5949 H         1 UNK         0.0454 
     81 H81        19.6634  -24.3535  -42.6590 H         1 UNK         0.0851 
     82 H82        20.8489  -25.4503  -41.9742 H         1 UNK         0.0851 
     83 H83        19.2577  -25.3286  -41.2478 H         1 UNK         0.0851 
     84 H84        17.7942  -25.9176  -44.4900 H         1 UNK         0.2976 
     85 H85        24.6697  -26.4590  -46.0947 H         1 UNK         0.3116 
     86 H86        25.8897  -25.1868  -43.9472 H         1 UNK         0.0646 
     87 H87        27.1666  -26.4442  -46.4358 H         1 UNK         0.0847 
     88 H88        27.9309  -25.2508  -45.3966 H         1 UNK         0.0847 
     89 H89        26.5044  -24.8125  -46.3174 H         1 UNK         0.0847 
     90 H90        25.7821  -28.6088  -44.4804 H         1 UNK         0.3040 
     91 H91        28.0768  -29.3404  -42.8398 H         1 UNK         0.1015 
     92 H92        25.7122  -30.9936  -43.8802 H         1 UNK         0.0786 
     93 H93        27.1748  -31.6372  -43.1466 H         1 UNK         0.0786 
     94 H94        27.2696  -30.8026  -44.6870 H         1 UNK         0.0786 
     95 H95        26.9092  -27.5409  -41.3670 H         1 UNK         0.3172 
     96 H96        26.1007  -26.9344  -39.3894 H         1 UNK         0.0595 
     97 H97        26.6190  -28.4153  -37.4754 H         1 UNK         0.0839 
     98 H98        27.9146  -28.5087  -38.6534 H         1 UNK         0.0839 
     99 H99        26.7317  -29.8113  -38.5376 H         1 UNK         0.0839 
    100 H100       24.0806  -28.1200  -41.2639 H         1 UNK         0.2998 
    101 H101       22.0101  -28.8467  -41.4657 H         1 UNK         0.0822 
    102 H102       20.2972  -27.9793  -39.9486 H         1 UNK         0.0787 
    103 H103       21.4698  -27.7433  -38.6607 H         1 UNK         0.0787 
    104 H104       21.5442  -26.7514  -40.1120 H         1 UNK         0.0787 
    105 H105       23.9265  -30.7897  -40.4497 H         1 UNK         0.3055 
    106 H106       22.6190  -32.4304  -38.4500 H         1 UNK         0.1106 
    107 H107       24.6219  -33.8467  -38.7257 H         1 UNK         0.0828 
    108 H108       25.0958  -32.9589  -40.1683 H         1 UNK         0.0828 
    109 H109       25.0949  -32.1608  -38.5973 H         1 UNK         0.0828 
    110 H110       20.6942  -32.2327  -40.2956 H         1 UNK         0.2931 
    111 H111       20.7005  -34.6065  -42.0312 H         1 UNK         0.0412 
    112 H112       20.0333  -34.2453  -38.7024 H         1 UNK         0.3472 
    113 H113       18.9750  -35.6279  -38.5716 H         1 UNK         0.3472 
    114 H114       18.4926  -33.8356  -42.8198 H         1 UNK         0.0970 
    115 H115       19.7548  -32.6756  -43.0389 H         1 UNK         0.0970 
    116 H116       19.8996  -30.3377  -41.7786 H         1 UNK         0.0612 
    117 H117       18.3909  -29.5398  -41.4128 H         1 UNK         0.0612 
@<TRIPOS>BOND
     1    1    2 1    
     2    1   62 1    
     3    1   63 1    
     4    1   64 1    
     5    2    3 2    
     6    2    4 am   BACKBONE|DICT|INTERRES
     7    4    5 1    
     8    4   65 1    
     9    5    6 1    
    10    5   25 1    
    11    5   66 1    
    12    6    7 1    
    13    6   67 1    
    14    6   68 1    
    15    7    8 1    
    16    8    9 1    
    17    8   69 1    
    18    8   70 1    
    19    9   10 ar   
    20    9   14 ar   
    21   10   11 ar   
    22   10   71 1    
    23   11   12 ar   
    24   11   61 1    
    25   12   13 ar   
    26   12   72 1    
    27   13   14 ar   
    28   13   15 1    
    29   14   73 1    
    30   15   16 1    
    31   15   74 1    
    32   15   75 1    
    33   16   17 1    
    34   17   18 1    
    35   17   76 1    
    36   17   77 1    
    37   18   19 1    
    38   18   27 1    
    39   18   78 1    
    40   19   20 am   BACKBONE|DICT|INTERRES
    41   19   79 1    
    42   20   21 2    
    43   20   22 1    
    44   22   23 1    
    45   22   24 1    
    46   22   80 1    
    47   23   81 1    
    48   23   82 1    
    49   23   83 1    
    50   24   25 am   BACKBONE|DICT|INTERRES
    51   24   84 1    
    52   25   26 2    
    53   27   28 2    
    54   27   29 am   BACKBONE|DICT|INTERRES
    55   29   30 1    
    56   29   85 1    
    57   30   31 1    
    58   30   32 1    
    59   30   86 1    
    60   31   87 1    
    61   31   88 1    
    62   31   89 1    
    63   32   33 2    
    64   32   34 am   BACKBONE|DICT|INTERRES
    65   34   35 1    
    66   34   90 1    
    67   35   36 1    
    68   35   37 1    
    69   35   91 1    
    70   36   92 1    
    71   36   93 1    
    72   36   94 1    
    73   37   38 2    
    74   37   39 am   BACKBONE|DICT|INTERRES
    75   39   40 1    
    76   39   95 1    
    77   40   41 1    
    78   40   42 1    
    79   40   96 1    
    80   41   97 1    
    81   41   98 1    
    82   41   99 1    
    83   42   43 2    
    84   42   44 am   BACKBONE|DICT|INTERRES
    85   44   45 1    
    86   44  100 1    
    87   45   46 1    
    88   45   47 1    
    89   45  101 1    
    90   46  102 1    
    91   46  103 1    
    92   46  104 1    
    93   47   48 2    
    94   47   49 am   BACKBONE|DICT|INTERRES
    95   49   50 1    
    96   49  105 1    
    97   50   51 1    
    98   50   52 1    
    99   50  106 1    
   100   51  107 1    
   101   51  108 1    
   102   51  109 1    
   103   52   53 2    
   104   52   54 am   BACKBONE|DICT|INTERRES
   105   54   55 1    
   106   54  110 1    
   107   55   56 1    
   108   55   59 1    
   109   55  111 1    
   110   56   57 am   BACKBONE|DICT|INTERRES
   111   56   58 2    
   112   57  112 1    
   113   57  113 1    
   114   59   60 1    
   115   59  114 1    
   116   59  115 1    
   117   60   61 1    
   118   61  116 1    
   119   61  117 1    
@<TRIPOS>SUBSTRUCTURE
     1 UNK         1 GROUP             0       ****    0 ROOT    
