@<TRIPOS>MOLECULE
3R8
117   119    1
SMALL
USER_CHARGES


@<TRIPOS>ATOM
      1 CA         20.1590  -26.6954  -49.8871 C.3       0 UNK        -0.2013 
      2 C          20.9250  -26.7339  -48.5731 C.2       0 UNK         0.4866 
      3 O          22.0148  -26.1672  -48.4825 O.2       0 UNK        -0.5176 
      4 N          20.3682  -27.4054  -47.5582 N.am      1 UNK        -0.4884 
      5 CA         20.9436  -27.5120  -46.2129 C.3       1 UNK         0.0853 
      6 C6         20.2805  -28.6361  -45.3736 C.3       10 UNK        -0.0849 
      7 S7         20.2440  -30.2617  -46.1972 S.3       10 UNK        -0.2776 
      8 C8         18.4486  -30.5653  -46.2764 C.3       10 UNK         0.0316 
      9 C9         17.8621  -30.8489  -44.8994 C.ar      10 UNK        -0.0863 
     10 C10        18.1618  -32.0532  -44.2605 C.ar      10 UNK        -0.1009 
     11 C11        17.6292  -32.3507  -43.0051 C.ar      10 UNK        -0.0712 
     12 C12        16.7495  -31.4435  -42.4041 C.ar      10 UNK        -0.0894 
     13 C13        16.4588  -30.2204  -43.0193 C.ar      10 UNK        -0.0745 
     14 C14        17.0178  -29.9280  -44.2686 C.ar      10 UNK        -0.0972 
     15 C15        15.5175  -29.2350  -42.3398 C.3       10 UNK         0.0209 
     16 S16        16.2703  -28.4520  -40.8744 S.3       10 UNK        -0.2568 
     17 C17        17.2028  -27.0449  -41.5777 C.3       10 UNK        -0.0983 
     18 CA         18.7303  -27.1462  -41.3414 C.3       3 UNK         0.0876 
     19 N          19.4693  -26.1743  -42.1561 N.am      3 UNK        -0.4424 
     20 C          20.8024  -26.0395  -42.1911 C.2       2 UNK         0.4918 
     21 O          21.5833  -26.6940  -41.4977 O.2       2 UNK        -0.4875 
     22 CA         21.3651  -25.1295  -43.2877 C.3       2 UNK         0.0481 
     23 CB         22.6654  -24.4236  -42.8701 C.3       2 UNK        -0.1831 
     24 N          21.6362  -26.0276  -44.4036 N.am      2 UNK        -0.4498 
     25 C          20.8039  -26.1888  -45.4379 C.2       1 UNK         0.5027 
     26 O          19.8883  -25.4066  -45.7107 O.2       1 UNK        -0.4969 
     27 C          19.1141  -27.0540  -39.8461 C.2       3 UNK         0.5005 
     28 O          18.9094  -26.0094  -39.2236 O.2       3 UNK        -0.5279 
     29 N          19.6947  -28.1497  -39.3363 N.am      4 UNK        -0.4463 
     30 CA         20.2439  -28.3483  -37.9901 C.3       4 UNK         0.0283 
     31 CB         19.1605  -28.1600  -36.9064 C.3       4 UNK        -0.1875 
     32 C          21.5281  -27.5412  -37.7011 C.2       4 UNK         0.4949 
     33 O          21.8686  -27.3648  -36.5298 O.2       4 UNK        -0.5039 
     34 N          22.2323  -27.0877  -38.7475 N.am      5 UNK        -0.4663 
     35 CA         23.4952  -26.3541  -38.6522 C.3       5 UNK         0.0242 
     36 CB         23.2624  -24.8713  -38.9840 C.3       5 UNK        -0.1982 
     37 C          24.5923  -26.9614  -39.5409 C.2       5 UNK         0.5017 
     38 O          25.7025  -27.1593  -39.0441 O.2       5 UNK        -0.5012 
     39 N          24.2966  -27.2428  -40.8189 N.am      6 UNK        -0.4439 
     40 CA         25.2569  -27.7910  -41.7817 C.3       6 UNK         0.0297 
     41 CB         26.1658  -26.6720  -42.3268 C.3       6 UNK        -0.2006 
     42 C          24.5449  -28.5136  -42.9323 C.2       6 UNK         0.4892 
     43 O          23.4170  -28.1523  -43.2761 O.2       6 UNK        -0.5089 
     44 N          25.2620  -29.4802  -43.5233 N.am      7 UNK        -0.4243 
     45 CA         24.8443  -30.4620  -44.5328 C.3       7 UNK         0.0196 
     46 CB         23.9918  -29.8558  -45.6685 C.3       7 UNK        -0.2007 
     47 C          24.2469  -31.7124  -43.8610 C.2       7 UNK         0.5020 
     48 O          24.7558  -32.1220  -42.8160 O.2       7 UNK        -0.5147 
     49 N          23.2312  -32.3342  -44.4810 N.am      8 UNK        -0.4734 
     50 CA         22.6255  -33.6042  -44.0461 C.3       8 UNK         0.0238 
     51 CB         21.6239  -34.0840  -45.1083 C.3       8 UNK        -0.1912 
     52 C          21.9779  -33.5479  -42.6496 C.2       8 UNK         0.5038 
     53 O          22.0808  -34.5145  -41.8933 O.2       8 UNK        -0.5046 
     54 N          21.3830  -32.3966  -42.3312 N.am      9 UNK        -0.4200 
     55 CA         21.0999  -31.9367  -40.9676 C.3       9 UNK         0.0839 
     56 C          21.7350  -30.5361  -40.8193 C.2       9 UNK         0.5513 
     57 N          21.3617  -29.5998  -41.6861 N.am      9 UNK        -0.7519 
     58 O          22.5397  -30.2956  -39.9259 O.2       9 UNK        -0.4960 
     59 C59        19.5890  -31.8595  -40.6269 C.3       10 UNK        -0.0876 
     60 S60        18.6995  -33.4554  -40.6212 S.3       10 UNK        -0.2414 
     61 C61        18.0285  -33.6503  -42.3132 C.3       10 UNK         0.0169 
     62 H62        19.2229  -27.2507  -49.8304 H         1 UNK         0.0903 
     63 H63        19.9263  -25.6652  -50.1552 H         1 UNK         0.0903 
     64 H64        20.7614  -27.1279  -50.6855 H         1 UNK         0.0903 
     65 H65        19.4685  -27.8449  -47.6833 H         1 UNK         0.3096 
     66 H66        22.0082  -27.7290  -46.3210 H         1 UNK         0.1121 
     67 H67        20.8163  -28.7657  -44.4318 H         1 UNK         0.0849 
     68 H68        19.2643  -28.3508  -45.0959 H         1 UNK         0.0849 
     69 H69        17.9508  -29.7167  -46.7481 H         1 UNK         0.0865 
     70 H70        18.2655  -31.4227  -46.9258 H         1 UNK         0.0865 
     71 H71        18.8185  -32.7599  -44.7451 H         1 UNK         0.1346 
     72 H72        16.3231  -31.6724  -41.4368 H         1 UNK         0.1412 
     73 H73        16.7840  -28.9906  -44.7547 H         1 UNK         0.1426 
     74 H74        14.6224  -29.7711  -42.0211 H         1 UNK         0.0716 
     75 H75        15.1742  -28.4693  -43.0371 H         1 UNK         0.0716 
     76 H76        16.8080  -26.1196  -41.1539 H         1 UNK         0.0695 
     77 H77        16.9992  -26.9938  -42.6483 H         1 UNK         0.0695 
     78 H78        19.0349  -28.1260  -41.7127 H         1 UNK         0.0983 
     79 H79        18.9145  -25.6020  -42.7754 H         1 UNK         0.3095 
     80 H80        20.6278  -24.3667  -43.5463 H         1 UNK         0.0454 
     81 H81        23.4237  -25.1261  -42.5282 H         1 UNK         0.0851 
     82 H82        22.4792  -23.7167  -42.0617 H         1 UNK         0.0851 
     83 H83        23.0892  -23.8584  -43.7000 H         1 UNK         0.0851 
     84 H84        22.3156  -26.7581  -44.2000 H         1 UNK         0.2976 
     85 H85        19.8659  -28.9135  -39.9745 H         1 UNK         0.3116 
     86 H86        20.5501  -29.3947  -37.9547 H         1 UNK         0.0646 
     87 H87        18.8638  -27.1157  -36.8065 H         1 UNK         0.0847 
     88 H88        19.5219  -28.4865  -35.9306 H         1 UNK         0.0847 
     89 H89        18.2677  -28.7436  -37.1305 H         1 UNK         0.0847 
     90 H90        21.8772  -27.2461  -39.6847 H         1 UNK         0.3040 
     91 H91        23.8756  -26.4038  -37.6293 H         1 UNK         0.1015 
     92 H92        22.5957  -24.4070  -38.2572 H         1 UNK         0.0786 
     93 H93        22.8171  -24.7449  -39.9690 H         1 UNK         0.0786 
     94 H94        24.1992  -24.3125  -38.9704 H         1 UNK         0.0786 
     95 H95        23.3585  -27.0773  -41.1792 H         1 UNK         0.3172 
     96 H96        25.8747  -28.5291  -41.2652 H         1 UNK         0.0595 
     97 H97        25.5970  -25.9160  -42.8678 H         1 UNK         0.0839 
     98 H98        26.9087  -27.0719  -43.0180 H         1 UNK         0.0839 
     99 H99        26.7113  -26.1716  -41.5268 H         1 UNK         0.0839 
    100 H100       26.1741  -29.6690  -43.1312 H         1 UNK         0.2998 
    101 H101       25.7725  -30.8034  -44.9933 H         1 UNK         0.0822 
    102 H102       24.4323  -28.9330  -46.0462 H         1 UNK         0.0787 
    103 H103       23.9096  -30.5402  -46.5134 H         1 UNK         0.0787 
    104 H104       22.9835  -29.6311  -45.3290 H         1 UNK         0.0787 
    105 H105       22.8748  -31.9307  -45.3361 H         1 UNK         0.3055 
    106 H106       23.4279  -34.3430  -43.9843 H         1 UNK         0.1106 
    107 H107       21.0801  -34.9676  -44.7705 H         1 UNK         0.0828 
    108 H108       20.8911  -33.3152  -45.3476 H         1 UNK         0.0828 
    109 H109       22.1326  -34.3539  -46.0339 H         1 UNK         0.0828 
    110 H110       21.4035  -31.6698  -43.0305 H         1 UNK         0.2931 
    111 H111       21.5847  -32.5954  -40.2440 H         1 UNK         0.0412 
    112 H112       20.7111  -29.8092  -42.4236 H         1 UNK         0.3472 
    113 H113       21.8130  -28.6931  -41.6743 H         1 UNK         0.3472 
    114 H114       19.4717  -31.4577  -39.6186 H         1 UNK         0.0970 
    115 H115       19.0892  -31.1387  -41.2698 H         1 UNK         0.0970 
    116 H116       17.1597  -34.3080  -42.2700 H         1 UNK         0.0612 
    117 H117       18.7789  -34.1784  -42.9037 H         1 UNK         0.0612 
@<TRIPOS>BOND
     1    1    2 1    
     2    1   62 1    
     3    1   63 1    
     4    1   64 1    
     5    2    3 2    
     6    2    4 am   BACKBONE|DICT|INTERRES
     7    4    5 1    
     8    4   65 1    
     9    5    6 1    
    10    5   25 1    
    11    5   66 1    
    12    6    7 1    
    13    6   67 1    
    14    6   68 1    
    15    7    8 1    
    16    8    9 1    
    17    8   69 1    
    18    8   70 1    
    19    9   10 ar   
    20    9   14 ar   
    21   10   11 ar   
    22   10   71 1    
    23   11   12 ar   
    24   11   61 1    
    25   12   13 ar   
    26   12   72 1    
    27   13   14 ar   
    28   13   15 1    
    29   14   73 1    
    30   15   16 1    
    31   15   74 1    
    32   15   75 1    
    33   16   17 1    
    34   17   18 1    
    35   17   76 1    
    36   17   77 1    
    37   18   19 1    
    38   18   27 1    
    39   18   78 1    
    40   19   20 am   BACKBONE|DICT|INTERRES
    41   19   79 1    
    42   20   21 2    
    43   20   22 1    
    44   22   23 1    
    45   22   24 1    
    46   22   80 1    
    47   23   81 1    
    48   23   82 1    
    49   23   83 1    
    50   24   25 am   BACKBONE|DICT|INTERRES
    51   24   84 1    
    52   25   26 2    
    53   27   28 2    
    54   27   29 am   BACKBONE|DICT|INTERRES
    55   29   30 1    
    56   29   85 1    
    57   30   31 1    
    58   30   32 1    
    59   30   86 1    
    60   31   87 1    
    61   31   88 1    
    62   31   89 1    
    63   32   33 2    
    64   32   34 am   BACKBONE|DICT|INTERRES
    65   34   35 1    
    66   34   90 1    
    67   35   36 1    
    68   35   37 1    
    69   35   91 1    
    70   36   92 1    
    71   36   93 1    
    72   36   94 1    
    73   37   38 2    
    74   37   39 am   BACKBONE|DICT|INTERRES
    75   39   40 1    
    76   39   95 1    
    77   40   41 1    
    78   40   42 1    
    79   40   96 1    
    80   41   97 1    
    81   41   98 1    
    82   41   99 1    
    83   42   43 2    
    84   42   44 am   BACKBONE|DICT|INTERRES
    85   44   45 1    
    86   44  100 1    
    87   45   46 1    
    88   45   47 1    
    89   45  101 1    
    90   46  102 1    
    91   46  103 1    
    92   46  104 1    
    93   47   48 2    
    94   47   49 am   BACKBONE|DICT|INTERRES
    95   49   50 1    
    96   49  105 1    
    97   50   51 1    
    98   50   52 1    
    99   50  106 1    
   100   51  107 1    
   101   51  108 1    
   102   51  109 1    
   103   52   53 2    
   104   52   54 am   BACKBONE|DICT|INTERRES
   105   54   55 1    
   106   54  110 1    
   107   55   56 1    
   108   55   59 1    
   109   55  111 1    
   110   56   57 am   BACKBONE|DICT|INTERRES
   111   56   58 2    
   112   57  112 1    
   113   57  113 1    
   114   59   60 1    
   115   59  114 1    
   116   59  115 1    
   117   60   61 1    
   118   61  116 1    
   119   61  117 1    
@<TRIPOS>SUBSTRUCTURE
     1 UNK         1 GROUP             0       ****    0 ROOT    
