@<TRIPOS>MOLECULE
3R8
117   119    1
SMALL
USER_CHARGES


@<TRIPOS>ATOM
      1 CA         16.3430  -21.6524  -43.2440 C.3       0 UNK        -0.2013 
      2 C          16.3902  -22.6285  -44.4103 C.2       0 UNK         0.4866 
      3 O          16.3029  -22.2062  -45.5635 O.2       0 UNK        -0.5176 
      4 N          16.5278  -23.9283  -44.1164 N.am      1 UNK        -0.4884 
      5 CA         16.6054  -25.0032  -45.1113 C.3       1 UNK         0.0853 
      6 C6         16.2033  -26.3863  -44.5323 C.3       10 UNK        -0.0849 
      7 S7         15.1882  -27.3271  -45.7191 S.3       10 UNK        -0.2776 
      8 C8         15.0237  -28.9332  -44.8696 C.3       10 UNK         0.0316 
      9 C9         16.3064  -29.7620  -44.8166 C.ar      10 UNK        -0.0863 
     10 C10        16.5160  -30.6186  -43.7298 C.ar      10 UNK        -0.1009 
     11 C11        17.6543  -31.4268  -43.6691 C.ar      10 UNK        -0.0712 
     12 C12        18.5863  -31.3804  -44.7073 C.ar      10 UNK        -0.0894 
     13 C13        18.4131  -30.5030  -45.7805 C.ar      10 UNK        -0.0745 
     14 C14        17.2625  -29.7130  -45.8409 C.ar      10 UNK        -0.0972 
     15 C15        19.4750  -30.4014  -46.8675 C.3       10 UNK         0.0209 
     16 S16        20.5578  -28.9486  -46.6413 S.3       10 UNK        -0.2568 
     17 C17        21.4078  -29.3466  -45.0714 C.3       10 UNK        -0.0983 
     18 CA         21.6627  -28.1374  -44.1345 C.3       3 UNK         0.0876 
     19 N          20.5752  -27.1421  -44.1555 N.am      3 UNK        -0.4424 
     20 C          20.6173  -25.9401  -43.5605 C.2       2 UNK         0.4918 
     21 O          21.5351  -25.5928  -42.8159 O.2       2 UNK        -0.4875 
     22 CA         19.4607  -24.9666  -43.8496 C.3       2 UNK         0.0481 
     23 CB         19.8319  -23.5274  -43.4324 C.3       2 UNK        -0.1831 
     24 N          19.1344  -24.9942  -45.2780 N.am      2 UNK        -0.4498 
     25 C          17.9418  -25.0488  -45.8976 C.2       1 UNK         0.5027 
     26 O          17.8868  -25.1236  -47.1242 O.2       1 UNK        -0.4969 
     27 C          22.0441  -28.6294  -42.7164 C.2       3 UNK         0.5005 
     28 O          23.1629  -29.1075  -42.5150 O.2       3 UNK        -0.5279 
     29 N          21.1341  -28.4585  -41.7453 N.am      4 UNK        -0.4463 
     30 CA         21.3543  -28.6704  -40.3122 C.3       4 UNK         0.0283 
     31 CB         20.0522  -28.3793  -39.5495 C.3       4 UNK        -0.1875 
     32 C          22.5040  -27.8274  -39.7290 C.2       4 UNK         0.4949 
     33 O          23.1423  -28.2731  -38.7770 O.2       4 UNK        -0.5039 
     34 N          22.7945  -26.6624  -40.3304 N.am      5 UNK        -0.4663 
     35 CA         23.9408  -25.8136  -39.9842 C.3       5 UNK         0.0242 
     36 CB         23.8007  -24.4556  -40.6902 C.3       5 UNK        -0.1982 
     37 C          25.3005  -26.4568  -40.3197 C.2       5 UNK         0.5017 
     38 O          26.2979  -26.1144  -39.6846 O.2       5 UNK        -0.5012 
     39 N          25.3117  -27.3889  -41.2833 N.am      6 UNK        -0.4439 
     40 CA         26.4605  -28.2238  -41.6413 C.3       6 UNK         0.0297 
     41 CB         26.5023  -28.3719  -43.1730 C.3       6 UNK        -0.2006 
     42 C          26.4048  -29.6054  -40.9581 C.2       6 UNK         0.4892 
     43 O          27.2640  -30.4413  -41.2401 O.2       6 UNK        -0.5089 
     44 N          25.3966  -29.8309  -40.0981 N.am      7 UNK        -0.4243 
     45 CA         25.0703  -31.0776  -39.3952 C.3       7 UNK         0.0196 
     46 CB         26.1816  -31.4550  -38.3926 C.3       7 UNK        -0.2007 
     47 C          24.6956  -32.2397  -40.3368 C.2       7 UNK         0.5020 
     48 O          24.8439  -33.4025  -39.9567 O.2       7 UNK        -0.5147 
     49 N          24.1937  -31.9225  -41.5407 N.am      8 UNK        -0.4734 
     50 CA         23.8484  -32.9056  -42.5753 C.3       8 UNK         0.0238 
     51 CB         23.5958  -32.1740  -43.9003 C.3       8 UNK        -0.1912 
     52 C          22.6370  -33.7852  -42.2198 C.2       8 UNK         0.5038 
     53 O          22.5154  -34.8864  -42.7576 O.2       8 UNK        -0.5046 
     54 N          21.7711  -33.2853  -41.3300 N.am      9 UNK        -0.4200 
     55 CA         20.5781  -33.9816  -40.8261 C.3       9 UNK         0.0839 
     56 C          20.8808  -35.1174  -39.8050 C.2       9 UNK         0.5513 
     57 N          22.1091  -35.2781  -39.3245 N.am      9 UNK        -0.7519 
     58 O          19.9803  -35.8710  -39.4447 O.2       9 UNK        -0.4960 
     59 C59        19.5198  -32.9941  -40.2619 C.3       10 UNK        -0.0876 
     60 S60        19.1572  -31.6030  -41.3846 S.3       10 UNK        -0.2414 
     61 C61        17.9036  -32.3353  -42.4768 C.3       10 UNK         0.0169 
     62 H62        15.3855  -21.1324  -43.2290 H         1 UNK         0.0903 
     63 H63        16.4718  -22.1543  -42.2852 H         1 UNK         0.0903 
     64 H64        17.1328  -20.9085  -43.3449 H         1 UNK         0.0903 
     65 H65        16.5959  -24.2118  -43.1496 H         1 UNK         0.3096 
     66 H66        15.8493  -24.7381  -45.8551 H         1 UNK         0.1121 
     67 H67        15.6021  -26.2651  -43.6297 H         1 UNK         0.0849 
     68 H68        17.0718  -26.9775  -44.2355 H         1 UNK         0.0849 
     69 H69        14.2622  -29.5191  -45.3858 H         1 UNK         0.0865 
     70 H70        14.6428  -28.7551  -43.8626 H         1 UNK         0.0865 
     71 H71        15.7903  -30.6601  -42.9288 H         1 UNK         0.1346 
     72 H72        19.4689  -32.0036  -44.6555 H         1 UNK         0.1412 
     73 H73        17.1228  -29.0545  -46.6870 H         1 UNK         0.1426 
     74 H74        18.9915  -30.3321  -47.8431 H         1 UNK         0.0716 
     75 H75        20.0869  -31.3046  -46.8947 H         1 UNK         0.0716 
     76 H76        22.3599  -29.8121  -45.3305 H         1 UNK         0.0695 
     77 H77        20.8425  -30.1092  -44.5415 H         1 UNK         0.0695 
     78 H78        22.5448  -27.6181  -44.5155 H         1 UNK         0.0983 
     79 H79        19.8035  -27.3600  -44.7701 H         1 UNK         0.3095 
     80 H80        18.6158  -25.3089  -43.2530 H         1 UNK         0.0454 
     81 H81        19.9654  -23.4558  -42.3522 H         1 UNK         0.0851 
     82 H82        19.0728  -22.8021  -43.7111 H         1 UNK         0.0851 
     83 H83        20.7654  -23.2051  -43.8957 H         1 UNK         0.0851 
     84 H84        19.9482  -25.0249  -45.8766 H         1 UNK         0.2976 
     85 H85        20.2374  -28.0795  -42.0111 H         1 UNK         0.3116 
     86 H86        21.6109  -29.7224  -40.1721 H         1 UNK         0.0646 
     87 H87        19.2329  -29.0078  -39.8975 H         1 UNK         0.0847 
     88 H88        19.7449  -27.3383  -39.6574 H         1 UNK         0.0847 
     89 H89        20.1743  -28.5736  -38.4830 H         1 UNK         0.0847 
     90 H90        22.2364  -26.3629  -41.1254 H         1 UNK         0.3040 
     91 H91        23.9188  -25.6435  -38.9054 H         1 UNK         0.1015 
     92 H92        24.6047  -23.7789  -40.3977 H         1 UNK         0.0786 
     93 H93        22.8587  -23.9697  -40.4352 H         1 UNK         0.0786 
     94 H94        23.8408  -24.5592  -41.7753 H         1 UNK         0.0786 
     95 H95        24.4352  -27.6366  -41.7303 H         1 UNK         0.3172 
     96 H96        27.3866  -27.7413  -41.3229 H         1 UNK         0.0595 
     97 H97        25.6305  -28.9053  -43.5534 H         1 UNK         0.0839 
     98 H98        27.3856  -28.9286  -43.4888 H         1 UNK         0.0839 
     99 H99        26.5423  -27.4001  -43.6650 H         1 UNK         0.0839 
    100 H100       24.7567  -29.0673  -39.9150 H         1 UNK         0.2998 
    101 H101       24.1698  -30.8667  -38.8167 H         1 UNK         0.0822 
    102 H102       26.4198  -30.6209  -37.7325 H         1 UNK         0.0787 
    103 H103       25.8724  -32.2879  -37.7599 H         1 UNK         0.0787 
    104 H104       27.0993  -31.7564  -38.8985 H         1 UNK         0.0787 
    105 H105       24.0719  -30.9442  -41.7814 H         1 UNK         0.3055 
    106 H106       24.7062  -33.5693  -42.7057 H         1 UNK         0.1106 
    107 H107       23.4452  -32.8819  -44.7165 H         1 UNK         0.0828 
    108 H108       24.4337  -31.5324  -44.1738 H         1 UNK         0.0828 
    109 H109       22.7015  -31.5569  -43.8364 H         1 UNK         0.0828 
    110 H110       21.9487  -32.3681  -40.9510 H         1 UNK         0.2931 
    111 H111       20.1198  -34.4774  -41.6839 H         1 UNK         0.0412 
    112 H112       22.8641  -34.6743  -39.6186 H         1 UNK         0.3472 
    113 H113       22.2873  -36.0207  -38.6665 H         1 UNK         0.3472 
    114 H114       18.5882  -33.5160  -40.0345 H         1 UNK         0.0970 
    115 H115       19.8655  -32.5718  -39.3166 H         1 UNK         0.0970 
    116 H116       16.9842  -32.5045  -41.9143 H         1 UNK         0.0612 
    117 H117       18.2438  -33.3108  -42.8270 H         1 UNK         0.0612 
@<TRIPOS>BOND
     1    1    2 1    
     2    1   62 1    
     3    1   63 1    
     4    1   64 1    
     5    2    3 2    
     6    2    4 am   BACKBONE|DICT|INTERRES
     7    4    5 1    
     8    4   65 1    
     9    5    6 1    
    10    5   25 1    
    11    5   66 1    
    12    6    7 1    
    13    6   67 1    
    14    6   68 1    
    15    7    8 1    
    16    8    9 1    
    17    8   69 1    
    18    8   70 1    
    19    9   10 ar   
    20    9   14 ar   
    21   10   11 ar   
    22   10   71 1    
    23   11   12 ar   
    24   11   61 1    
    25   12   13 ar   
    26   12   72 1    
    27   13   14 ar   
    28   13   15 1    
    29   14   73 1    
    30   15   16 1    
    31   15   74 1    
    32   15   75 1    
    33   16   17 1    
    34   17   18 1    
    35   17   76 1    
    36   17   77 1    
    37   18   19 1    
    38   18   27 1    
    39   18   78 1    
    40   19   20 am   BACKBONE|DICT|INTERRES
    41   19   79 1    
    42   20   21 2    
    43   20   22 1    
    44   22   23 1    
    45   22   24 1    
    46   22   80 1    
    47   23   81 1    
    48   23   82 1    
    49   23   83 1    
    50   24   25 am   BACKBONE|DICT|INTERRES
    51   24   84 1    
    52   25   26 2    
    53   27   28 2    
    54   27   29 am   BACKBONE|DICT|INTERRES
    55   29   30 1    
    56   29   85 1    
    57   30   31 1    
    58   30   32 1    
    59   30   86 1    
    60   31   87 1    
    61   31   88 1    
    62   31   89 1    
    63   32   33 2    
    64   32   34 am   BACKBONE|DICT|INTERRES
    65   34   35 1    
    66   34   90 1    
    67   35   36 1    
    68   35   37 1    
    69   35   91 1    
    70   36   92 1    
    71   36   93 1    
    72   36   94 1    
    73   37   38 2    
    74   37   39 am   BACKBONE|DICT|INTERRES
    75   39   40 1    
    76   39   95 1    
    77   40   41 1    
    78   40   42 1    
    79   40   96 1    
    80   41   97 1    
    81   41   98 1    
    82   41   99 1    
    83   42   43 2    
    84   42   44 am   BACKBONE|DICT|INTERRES
    85   44   45 1    
    86   44  100 1    
    87   45   46 1    
    88   45   47 1    
    89   45  101 1    
    90   46  102 1    
    91   46  103 1    
    92   46  104 1    
    93   47   48 2    
    94   47   49 am   BACKBONE|DICT|INTERRES
    95   49   50 1    
    96   49  105 1    
    97   50   51 1    
    98   50   52 1    
    99   50  106 1    
   100   51  107 1    
   101   51  108 1    
   102   51  109 1    
   103   52   53 2    
   104   52   54 am   BACKBONE|DICT|INTERRES
   105   54   55 1    
   106   54  110 1    
   107   55   56 1    
   108   55   59 1    
   109   55  111 1    
   110   56   57 am   BACKBONE|DICT|INTERRES
   111   56   58 2    
   112   57  112 1    
   113   57  113 1    
   114   59   60 1    
   115   59  114 1    
   116   59  115 1    
   117   60   61 1    
   118   61  116 1    
   119   61  117 1    
@<TRIPOS>SUBSTRUCTURE
     1 UNK         1 GROUP             0       ****    0 ROOT    
