@<TRIPOS>MOLECULE
3R8
117   119    1
SMALL
USER_CHARGES


@<TRIPOS>ATOM
      1 CA         19.9633  -25.6490  -49.7166 C.3       0 UNK        -0.2013 
      2 C          20.5620  -26.2265  -48.4428 C.2       0 UNK         0.4866 
      3 O          21.7339  -25.9844  -48.1539 O.2       0 UNK        -0.5176 
      4 N          19.7675  -26.9922  -47.6832 N.am      1 UNK        -0.4884 
      5 CA         20.1686  -27.6343  -46.4248 C.3       1 UNK         0.0853 
      6 C6         19.0842  -28.6112  -45.9107 C.3       10 UNK        -0.0849 
      7 S7         18.7806  -30.0339  -47.0005 S.3       10 UNK        -0.2776 
      8 C8         17.0537  -30.4333  -46.5624 C.3       10 UNK         0.0316 
      9 C9         16.8297  -30.5715  -45.0577 C.ar      10 UNK        -0.0863 
     10 C10        17.4437  -31.6053  -44.3423 C.ar      10 UNK        -0.1009 
     11 C11        17.2084  -31.7580  -42.9723 C.ar      10 UNK        -0.0712 
     12 C12        16.3453  -30.8729  -42.3200 C.ar      10 UNK        -0.0894 
     13 C13        15.7268  -29.8316  -43.0190 C.ar      10 UNK        -0.0745 
     14 C14        15.9796  -29.6830  -44.3872 C.ar      10 UNK        -0.0972 
     15 C15        14.7361  -28.9118  -42.3110 C.3       10 UNK         0.0209 
     16 S16        15.4377  -28.0885  -40.8416 S.3       10 UNK        -0.2568 
     17 C17        16.4814  -26.7936  -41.5891 C.3       10 UNK        -0.0983 
     18 CA         17.9589  -27.2406  -41.7359 C.3       3 UNK         0.0876 
     19 N          18.6791  -26.4815  -42.7599 N.am      3 UNK        -0.4424 
     20 C          18.9190  -25.1627  -42.8110 C.2       2 UNK         0.4918 
     21 O          18.6281  -24.3747  -41.9119 O.2       2 UNK        -0.4875 
     22 CA         19.5072  -24.5959  -44.1264 C.3       2 UNK         0.0481 
     23 CB         20.8177  -23.8143  -43.9051 C.3       2 UNK        -0.1831 
     24 N          19.6289  -25.5742  -45.2194 N.am      2 UNK        -0.4498 
     25 C          20.4664  -26.6197  -45.3038 C.2       1 UNK         0.5027 
     26 O          21.3709  -26.8474  -44.5010 O.2       1 UNK        -0.4969 
     27 C          18.7314  -27.3016  -40.4006 C.2       3 UNK         0.5005 
     28 O          18.5710  -26.4345  -39.5390 O.2       3 UNK        -0.5279 
     29 N          19.5605  -28.3470  -40.2717 N.am      4 UNK        -0.4463 
     30 CA         20.4122  -28.6982  -39.1279 C.3       4 UNK         0.0283 
     31 CB         19.5671  -28.9872  -37.8695 C.3       4 UNK        -0.1875 
     32 C          21.5457  -27.6854  -38.8759 C.2       4 UNK         0.4949 
     33 O          21.9913  -27.5288  -37.7385 O.2       4 UNK        -0.5039 
     34 N          22.0066  -27.0253  -39.9465 N.am      5 UNK        -0.4663 
     35 CA         23.0776  -26.0252  -39.9132 C.3       5 UNK         0.0242 
     36 CB         22.9334  -25.1181  -41.1441 C.3       5 UNK        -0.1982 
     37 C          24.4908  -26.6345  -39.8602 C.2       5 UNK         0.5017 
     38 O          25.4407  -25.9180  -39.5418 O.2       5 UNK        -0.5012 
     39 N          24.6125  -27.9257  -40.1843 N.am      6 UNK        -0.4439 
     40 CA         25.8508  -28.6963  -40.2307 C.3       6 UNK         0.0297 
     41 CB         26.5984  -28.3968  -41.5460 C.3       6 UNK        -0.2006 
     42 C          25.5002  -30.1848  -40.1154 C.2       6 UNK         0.4892 
     43 O          24.3180  -30.5382  -40.1439 O.2       6 UNK        -0.5089 
     44 N          26.5315  -31.0382  -40.0394 N.am      7 UNK        -0.4243 
     45 CA         26.4191  -32.5040  -39.9910 C.3       7 UNK         0.0196 
     46 CB         27.8150  -33.1104  -39.7742 C.3       7 UNK        -0.2007 
     47 C          25.7473  -33.1318  -41.2294 C.2       7 UNK         0.5020 
     48 O          25.1860  -34.2219  -41.1256 O.2       7 UNK        -0.5147 
     49 N          25.7805  -32.4201  -42.3648 N.am      8 UNK        -0.4734 
     50 CA         25.0553  -32.7493  -43.5973 C.3       8 UNK         0.0238 
     51 CB         25.7358  -32.0259  -44.7729 C.3       8 UNK        -0.1912 
     52 C          23.5494  -32.4074  -43.5428 C.2       8 UNK         0.5038 
     53 O          22.8502  -32.6470  -44.5275 O.2       8 UNK        -0.5046 
     54 N          23.0819  -31.8465  -42.4189 N.am      9 UNK        -0.4200 
     55 CA         21.7205  -31.3576  -42.1611 C.3       9 UNK         0.0839 
     56 C          21.4130  -29.9610  -42.7694 C.2       9 UNK         0.5513 
     57 N          22.3808  -29.2432  -43.3233 N.am      9 UNK        -0.7519 
     58 O          20.2850  -29.4880  -42.6842 O.2       9 UNK        -0.4960 
     59 C59        20.6119  -32.4157  -42.4349 C.3       10 UNK        -0.0876 
     60 S60        19.2663  -32.3551  -41.2038 S.3       10 UNK        -0.2414 
     61 C61        17.8428  -32.9030  -42.1961 C.3       10 UNK         0.0169 
     62 H62        20.5286  -25.9887  -50.5841 H         1 UNK         0.0903 
     63 H63        18.9239  -25.9475  -49.8517 H         1 UNK         0.0903 
     64 H64        20.0026  -24.5603  -49.6894 H         1 UNK         0.0903 
     65 H65        18.8258  -27.1886  -47.9929 H         1 UNK         0.3096 
     66 H66        21.0885  -28.1951  -46.6066 H         1 UNK         0.1121 
     67 H67        19.3629  -29.0274  -44.9438 H         1 UNK         0.0849 
     68 H68        18.1430  -28.0809  -45.7517 H         1 UNK         0.0849 
     69 H69        16.4004  -29.6659  -46.9806 H         1 UNK         0.0865 
     70 H70        16.7731  -31.3671  -47.0516 H         1 UNK         0.0865 
     71 H71        18.0980  -32.2950  -44.8577 H         1 UNK         0.1346 
     72 H72        16.1472  -31.0009  -41.2645 H         1 UNK         0.1412 
     73 H73        15.4923  -28.8892  -44.9369 H         1 UNK         0.1426 
     74 H74        13.8818  -29.5108  -41.9930 H         1 UNK         0.0716 
     75 H75        14.3390  -28.1585  -42.9931 H         1 UNK         0.0716 
     76 H76        16.4011  -25.8834  -40.9922 H         1 UNK         0.0695 
     77 H77        16.0665  -26.5419  -42.5662 H         1 UNK         0.0695 
     78 H78        17.9352  -28.2574  -42.1322 H         1 UNK         0.0983 
     79 H79        19.0310  -27.0378  -43.5235 H         1 UNK         0.3095 
     80 H80        18.7682  -23.8737  -44.4765 H         1 UNK         0.0454 
     81 H81        21.6364  -24.4601  -43.5952 H         1 UNK         0.0851 
     82 H82        20.6961  -23.0531  -43.1336 H         1 UNK         0.0851 
     83 H83        21.1277  -23.3027  -44.8160 H         1 UNK         0.0851 
     84 H84        18.9294  -25.4919  -45.9446 H         1 UNK         0.2976 
     85 H85        19.6679  -28.9472  -41.0898 H         1 UNK         0.3116 
     86 H86        20.9067  -29.6306  -39.4022 H         1 UNK         0.0646 
     87 H87        19.0929  -28.0848  -37.4829 H         1 UNK         0.0847 
     88 H88        20.1847  -29.3962  -37.0691 H         1 UNK         0.0847 
     89 H89        18.7841  -29.7165  -38.0770 H         1 UNK         0.0847 
     90 H90        21.5812  -27.2103  -40.8439 H         1 UNK         0.3040 
     91 H91        22.9562  -25.4104  -39.0184 H         1 UNK         0.1015 
     92 H92        23.0400  -25.6823  -42.0719 H         1 UNK         0.0786 
     93 H93        23.6938  -24.3359  -41.1477 H         1 UNK         0.0786 
     94 H94        21.9618  -24.6237  -41.1556 H         1 UNK         0.0786 
     95 H95        23.7788  -28.4711  -40.3642 H         1 UNK         0.3172 
     96 H96        26.4759  -28.4271  -39.3768 H         1 UNK         0.0595 
     97 H97        27.5415  -28.9410  -41.6051 H         1 UNK         0.0839 
     98 H98        26.8404  -27.3374  -41.6326 H         1 UNK         0.0839 
     99 H99        26.0042  -28.6722  -42.4183 H         1 UNK         0.0839 
    100 H100       27.4685  -30.6609  -40.0201 H         1 UNK         0.2998 
    101 H101       25.7981  -32.7561  -39.1286 H         1 UNK         0.0822 
    102 H102       27.7620  -34.1980  -39.7046 H         1 UNK         0.0787 
    103 H103       28.4921  -32.8693  -40.5947 H         1 UNK         0.0787 
    104 H104       28.2654  -32.7513  -38.8486 H         1 UNK         0.0787 
    105 H105       26.2837  -31.5449  -42.3567 H         1 UNK         0.3055 
    106 H106       25.1291  -33.8258  -43.7678 H         1 UNK         0.1106 
    107 H107       25.2618  -32.2845  -45.7209 H         1 UNK         0.0828 
    108 H108       25.6817  -30.9417  -44.6677 H         1 UNK         0.0828 
    109 H109       26.7867  -32.3041  -44.8556 H         1 UNK         0.0828 
    110 H110       23.7362  -31.6511  -41.6687 H         1 UNK         0.2931 
    111 H111       21.7374  -31.1786  -41.0860 H         1 UNK         0.0412 
    112 H112       23.3156  -29.6048  -43.4022 H         1 UNK         0.3472 
    113 H113       22.1459  -28.3340  -43.7118 H         1 UNK         0.3472 
    114 H114       21.0264  -33.4236  -42.3883 H         1 UNK         0.0970 
    115 H115       20.2134  -32.3063  -43.4450 H         1 UNK         0.0970 
    116 H116       18.1477  -33.7080  -42.8666 H         1 UNK         0.0612 
    117 H117       17.0992  -33.3352  -41.5249 H         1 UNK         0.0612 
@<TRIPOS>BOND
     1    1    2 1    
     2    1   62 1    
     3    1   63 1    
     4    1   64 1    
     5    2    3 2    
     6    2    4 am   BACKBONE|DICT|INTERRES
     7    4    5 1    
     8    4   65 1    
     9    5    6 1    
    10    5   25 1    
    11    5   66 1    
    12    6    7 1    
    13    6   67 1    
    14    6   68 1    
    15    7    8 1    
    16    8    9 1    
    17    8   69 1    
    18    8   70 1    
    19    9   10 ar   
    20    9   14 ar   
    21   10   11 ar   
    22   10   71 1    
    23   11   12 ar   
    24   11   61 1    
    25   12   13 ar   
    26   12   72 1    
    27   13   14 ar   
    28   13   15 1    
    29   14   73 1    
    30   15   16 1    
    31   15   74 1    
    32   15   75 1    
    33   16   17 1    
    34   17   18 1    
    35   17   76 1    
    36   17   77 1    
    37   18   19 1    
    38   18   27 1    
    39   18   78 1    
    40   19   20 am   BACKBONE|DICT|INTERRES
    41   19   79 1    
    42   20   21 2    
    43   20   22 1    
    44   22   23 1    
    45   22   24 1    
    46   22   80 1    
    47   23   81 1    
    48   23   82 1    
    49   23   83 1    
    50   24   25 am   BACKBONE|DICT|INTERRES
    51   24   84 1    
    52   25   26 2    
    53   27   28 2    
    54   27   29 am   BACKBONE|DICT|INTERRES
    55   29   30 1    
    56   29   85 1    
    57   30   31 1    
    58   30   32 1    
    59   30   86 1    
    60   31   87 1    
    61   31   88 1    
    62   31   89 1    
    63   32   33 2    
    64   32   34 am   BACKBONE|DICT|INTERRES
    65   34   35 1    
    66   34   90 1    
    67   35   36 1    
    68   35   37 1    
    69   35   91 1    
    70   36   92 1    
    71   36   93 1    
    72   36   94 1    
    73   37   38 2    
    74   37   39 am   BACKBONE|DICT|INTERRES
    75   39   40 1    
    76   39   95 1    
    77   40   41 1    
    78   40   42 1    
    79   40   96 1    
    80   41   97 1    
    81   41   98 1    
    82   41   99 1    
    83   42   43 2    
    84   42   44 am   BACKBONE|DICT|INTERRES
    85   44   45 1    
    86   44  100 1    
    87   45   46 1    
    88   45   47 1    
    89   45  101 1    
    90   46  102 1    
    91   46  103 1    
    92   46  104 1    
    93   47   48 2    
    94   47   49 am   BACKBONE|DICT|INTERRES
    95   49   50 1    
    96   49  105 1    
    97   50   51 1    
    98   50   52 1    
    99   50  106 1    
   100   51  107 1    
   101   51  108 1    
   102   51  109 1    
   103   52   53 2    
   104   52   54 am   BACKBONE|DICT|INTERRES
   105   54   55 1    
   106   54  110 1    
   107   55   56 1    
   108   55   59 1    
   109   55  111 1    
   110   56   57 am   BACKBONE|DICT|INTERRES
   111   56   58 2    
   112   57  112 1    
   113   57  113 1    
   114   59   60 1    
   115   59  114 1    
   116   59  115 1    
   117   60   61 1    
   118   61  116 1    
   119   61  117 1    
@<TRIPOS>SUBSTRUCTURE
     1 UNK         1 GROUP             0       ****    0 ROOT    
