@<TRIPOS>MOLECULE
3R8
117   119    1
SMALL
USER_CHARGES


@<TRIPOS>ATOM
      1 CA         16.2519  -22.2660  -45.6019 C.3       0 UNK        -0.2013 
      2 C          17.0440  -23.5640  -45.5674 C.2       0 UNK         0.4866 
      3 O          17.9499  -23.7530  -46.3810 O.2       0 UNK        -0.5176 
      4 N          16.7191  -24.4617  -44.6284 N.am      1 UNK        -0.4884 
      5 CA         17.3595  -25.7699  -44.4419 C.3       1 UNK         0.0853 
      6 C6         16.4137  -26.7793  -43.7423 C.3       10 UNK        -0.0849 
      7 S7         15.0235  -27.2232  -44.8403 S.3       10 UNK        -0.2776 
      8 C8         14.6814  -28.9576  -44.3764 C.3       10 UNK         0.0316 
      9 C9         15.8492  -29.9292  -44.5567 C.ar      10 UNK        -0.0863 
     10 C10        15.9826  -30.9927  -43.6575 C.ar      10 UNK        -0.1009 
     11 C11        17.0323  -31.9067  -43.7793 C.ar      10 UNK        -0.0712 
     12 C12        17.9529  -31.7596  -44.8183 C.ar      10 UNK        -0.0894 
     13 C13        17.8411  -30.6991  -45.7211 C.ar      10 UNK        -0.0745 
     14 C14        16.7789  -29.7968  -45.5980 C.ar      10 UNK        -0.0972 
     15 C15        18.8956  -30.5197  -46.8051 C.3       10 UNK         0.0209 
     16 S16        20.0979  -29.2076  -46.3989 S.3       10 UNK        -0.2568 
     17 C17        20.5756  -29.6265  -44.6841 C.3       10 UNK        -0.0983 
     18 CA         21.6133  -28.6588  -44.0607 C.3       3 UNK         0.0876 
     19 N          21.2508  -27.2631  -44.3081 N.am      3 UNK        -0.4424 
     20 C          21.8397  -26.1605  -43.8305 C.2       2 UNK         0.4918 
     21 O          22.8938  -26.1691  -43.1974 O.2       2 UNK        -0.4875 
     22 CA         21.0873  -24.8306  -44.0345 C.3       2 UNK         0.0481 
     23 CB         21.8064  -23.9646  -45.0794 C.3       2 UNK        -0.1831 
     24 N          19.6782  -24.9894  -44.4237 N.am      2 UNK        -0.4498 
     25 C          18.7214  -25.6259  -43.7300 C.2       1 UNK         0.5027 
     26 O          18.9040  -26.1181  -42.6134 O.2       1 UNK        -0.4969 
     27 C          21.7586  -28.9790  -42.5562 C.2       3 UNK         0.5005 
     28 O          22.6159  -29.7834  -42.1925 O.2       3 UNK        -0.5279 
     29 N          20.9253  -28.3536  -41.7091 N.am      4 UNK        -0.4463 
     30 CA         20.9779  -28.4874  -40.2517 C.3       4 UNK         0.0283 
     31 CB         19.6522  -28.0042  -39.6443 C.3       4 UNK        -0.1875 
     32 C          22.1698  -27.7426  -39.6313 C.2       4 UNK         0.4949 
     33 O          22.7895  -28.2669  -38.7073 O.2       4 UNK        -0.5039 
     34 N          22.4968  -26.5571  -40.1657 N.am      5 UNK        -0.4663 
     35 CA         23.6634  -25.7633  -39.7619 C.3       5 UNK         0.0242 
     36 CB         23.5304  -24.3305  -40.3034 C.3       5 UNK        -0.1982 
     37 C          24.9845  -26.4053  -40.2181 C.2       5 UNK         0.5017 
     38 O          25.9667  -26.3707  -39.4771 O.2       5 UNK        -0.5012 
     39 N          24.9643  -27.0187  -41.4095 N.am      6 UNK        -0.4439 
     40 CA         26.0485  -27.8290  -41.9706 C.3       6 UNK         0.0297 
     41 CB         25.7832  -28.0332  -43.4715 C.3       6 UNK        -0.2006 
     42 C          26.2321  -29.1932  -41.2739 C.2       6 UNK         0.4892 
     43 O          27.2492  -29.8455  -41.5111 O.2       6 UNK        -0.5089 
     44 N          25.2501  -29.6039  -40.4555 N.am      7 UNK        -0.4243 
     45 CA         25.1490  -30.8801  -39.7365 C.3       7 UNK         0.0196 
     46 CB         26.2859  -31.0325  -38.7036 C.3       7 UNK        -0.2007 
     47 C          25.0111  -32.1007  -40.6689 C.2       7 UNK         0.5020 
     48 O          25.3980  -33.2087  -40.2938 O.2       7 UNK        -0.5147 
     49 N          24.4372  -31.8844  -41.8592 N.am      8 UNK        -0.4734 
     50 CA         24.0361  -32.9337  -42.7961 C.3       8 UNK         0.0238 
     51 CB         23.9951  -32.3600  -44.2221 C.3       8 UNK        -0.1912 
     52 C          22.6719  -33.5185  -42.3996 C.2       8 UNK         0.5038 
     53 O          22.4852  -34.7324  -42.4875 O.2       8 UNK        -0.5046 
     54 N          21.7614  -32.6467  -41.9459 N.am      9 UNK        -0.4200 
     55 CA         20.5002  -33.0197  -41.2981 C.3       9 UNK         0.0839 
     56 C          20.7531  -33.3331  -39.7997 C.2       9 UNK         0.5513 
     57 N          20.2352  -34.4443  -39.2956 N.am      9 UNK        -0.7519 
     58 O          21.3944  -32.5611  -39.0897 O.2       9 UNK        -0.4960 
     59 C59        19.4340  -31.9123  -41.4940 C.3       10 UNK        -0.0876 
     60 S60        17.7346  -32.4833  -41.1502 S.3       10 UNK        -0.2414 
     61 C61        17.1740  -33.0520  -42.7872 C.3       10 UNK         0.0169 
     62 H62        15.7651  -22.1502  -46.5699 H         1 UNK         0.0903 
     63 H63        15.4830  -22.2364  -44.8302 H         1 UNK         0.0903 
     64 H64        16.9174  -21.4165  -45.4511 H         1 UNK         0.0903 
     65 H65        15.9742  -24.2491  -43.9797 H         1 UNK         0.3096 
     66 H66        17.5868  -26.1820  -45.4286 H         1 UNK         0.1121 
     67 H67        16.0242  -26.3728  -42.8073 H         1 UNK         0.0849 
     68 H68        16.9550  -27.6891  -43.4761 H         1 UNK         0.0849 
     69 H69        13.8421  -29.3160  -44.9736 H         1 UNK         0.0865 
     70 H70        14.3431  -28.9654  -43.3389 H         1 UNK         0.0865 
     71 H71        15.2720  -31.1102  -42.8504 H         1 UNK         0.1346 
     72 H72        18.7734  -32.4582  -44.9101 H         1 UNK         0.1412 
     73 H73        16.6930  -28.9810  -46.3024 H         1 UNK         0.1426 
     74 H74        18.4106  -30.2762  -47.7514 H         1 UNK         0.0716 
     75 H75        19.4359  -31.4529  -46.9717 H         1 UNK         0.0716 
     76 H76        20.9477  -30.6527  -44.6660 H         1 UNK         0.0695 
     77 H77        19.6636  -29.6153  -44.0843 H         1 UNK         0.0695 
     78 H78        22.5819  -28.8293  -44.5336 H         1 UNK         0.0983 
     79 H79        20.4178  -27.1390  -44.8634 H         1 UNK         0.3095 
     80 H80        21.1056  -24.3023  -43.0794 H         1 UNK         0.0454 
     81 H81        21.8013  -24.4329  -46.0644 H         1 UNK         0.0851 
     82 H82        22.8487  -23.8007  -44.8015 H         1 UNK         0.0851 
     83 H83        21.3401  -22.9836  -45.1714 H         1 UNK         0.0851 
     84 H84        19.3983  -24.5742  -45.3085 H         1 UNK         0.2976 
     85 H85        20.2427  -27.7020  -42.0829 H         1 UNK         0.3116 
     86 H86        21.1004  -29.5433  -40.0034 H         1 UNK         0.0646 
     87 H87        18.8095  -28.5852  -40.0194 H         1 UNK         0.0847 
     88 H88        19.4612  -26.9543  -39.8708 H         1 UNK         0.0847 
     89 H89        19.6594  -28.1087  -38.5585 H         1 UNK         0.0847 
     90 H90        21.9616  -26.2143  -40.9504 H         1 UNK         0.3040 
     91 H91        23.6811  -25.7143  -38.6705 H         1 UNK         0.1015 
     92 H92        24.3679  -23.7132  -39.9755 H         1 UNK         0.0786 
     93 H93        22.6182  -23.8538  -39.9444 H         1 UNK         0.0786 
     94 H94        23.5165  -24.3041  -41.3933 H         1 UNK         0.0786 
     95 H95        24.1324  -26.9061  -41.9846 H         1 UNK         0.3172 
     96 H96        26.9818  -27.2736  -41.8580 H         1 UNK         0.0595 
     97 H97        24.8737  -28.6092  -43.6434 H         1 UNK         0.0839 
     98 H98        26.6043  -28.5739  -43.9441 H         1 UNK         0.0839 
     99 H99        25.6807  -27.0806  -43.9918 H         1 UNK         0.0839 
    100 H100       24.4535  -28.9904  -40.3481 H         1 UNK         0.2998 
    101 H101       24.2104  -30.8302  -39.1817 H         1 UNK         0.0822 
    102 H102       26.3518  -30.1583  -38.0558 H         1 UNK         0.0787 
    103 H103       26.1170  -31.8979  -38.0617 H         1 UNK         0.0787 
    104 H104       27.2552  -31.1699  -39.1836 H         1 UNK         0.0787 
    105 H105       24.0776  -30.9515  -42.0464 H         1 UNK         0.3055 
    106 H106       24.7712  -33.7415  -42.7700 H         1 UNK         0.1106 
    107 H107       23.7048  -33.1264  -44.9420 H         1 UNK         0.0828 
    108 H108       24.9731  -31.9854  -44.5244 H         1 UNK         0.0828 
    109 H109       23.2820  -31.5405  -44.3123 H         1 UNK         0.0828 
    110 H110       22.0332  -31.6726  -41.8735 H         1 UNK         0.2931 
    111 H111       20.1299  -33.9227  -41.7886 H         1 UNK         0.0412 
    112 H112       19.6937  -35.0717  -39.8700 H         1 UNK         0.3472 
    113 H113       20.3814  -34.6565  -38.3209 H         1 UNK         0.3472 
    114 H114       19.6380  -31.0559  -40.8525 H         1 UNK         0.0970 
    115 H115       19.4758  -31.5276  -42.5117 H         1 UNK         0.0970 
    116 H116       17.8658  -33.8090  -43.1602 H         1 UNK         0.0612 
    117 H117       16.2095  -33.5488  -42.6742 H         1 UNK         0.0612 
@<TRIPOS>BOND
     1    1    2 1    
     2    1   62 1    
     3    1   63 1    
     4    1   64 1    
     5    2    3 2    
     6    2    4 am   BACKBONE|DICT|INTERRES
     7    4    5 1    
     8    4   65 1    
     9    5    6 1    
    10    5   25 1    
    11    5   66 1    
    12    6    7 1    
    13    6   67 1    
    14    6   68 1    
    15    7    8 1    
    16    8    9 1    
    17    8   69 1    
    18    8   70 1    
    19    9   10 ar   
    20    9   14 ar   
    21   10   11 ar   
    22   10   71 1    
    23   11   12 ar   
    24   11   61 1    
    25   12   13 ar   
    26   12   72 1    
    27   13   14 ar   
    28   13   15 1    
    29   14   73 1    
    30   15   16 1    
    31   15   74 1    
    32   15   75 1    
    33   16   17 1    
    34   17   18 1    
    35   17   76 1    
    36   17   77 1    
    37   18   19 1    
    38   18   27 1    
    39   18   78 1    
    40   19   20 am   BACKBONE|DICT|INTERRES
    41   19   79 1    
    42   20   21 2    
    43   20   22 1    
    44   22   23 1    
    45   22   24 1    
    46   22   80 1    
    47   23   81 1    
    48   23   82 1    
    49   23   83 1    
    50   24   25 am   BACKBONE|DICT|INTERRES
    51   24   84 1    
    52   25   26 2    
    53   27   28 2    
    54   27   29 am   BACKBONE|DICT|INTERRES
    55   29   30 1    
    56   29   85 1    
    57   30   31 1    
    58   30   32 1    
    59   30   86 1    
    60   31   87 1    
    61   31   88 1    
    62   31   89 1    
    63   32   33 2    
    64   32   34 am   BACKBONE|DICT|INTERRES
    65   34   35 1    
    66   34   90 1    
    67   35   36 1    
    68   35   37 1    
    69   35   91 1    
    70   36   92 1    
    71   36   93 1    
    72   36   94 1    
    73   37   38 2    
    74   37   39 am   BACKBONE|DICT|INTERRES
    75   39   40 1    
    76   39   95 1    
    77   40   41 1    
    78   40   42 1    
    79   40   96 1    
    80   41   97 1    
    81   41   98 1    
    82   41   99 1    
    83   42   43 2    
    84   42   44 am   BACKBONE|DICT|INTERRES
    85   44   45 1    
    86   44  100 1    
    87   45   46 1    
    88   45   47 1    
    89   45  101 1    
    90   46  102 1    
    91   46  103 1    
    92   46  104 1    
    93   47   48 2    
    94   47   49 am   BACKBONE|DICT|INTERRES
    95   49   50 1    
    96   49  105 1    
    97   50   51 1    
    98   50   52 1    
    99   50  106 1    
   100   51  107 1    
   101   51  108 1    
   102   51  109 1    
   103   52   53 2    
   104   52   54 am   BACKBONE|DICT|INTERRES
   105   54   55 1    
   106   54  110 1    
   107   55   56 1    
   108   55   59 1    
   109   55  111 1    
   110   56   57 am   BACKBONE|DICT|INTERRES
   111   56   58 2    
   112   57  112 1    
   113   57  113 1    
   114   59   60 1    
   115   59  114 1    
   116   59  115 1    
   117   60   61 1    
   118   61  116 1    
   119   61  117 1    
@<TRIPOS>SUBSTRUCTURE
     1 UNK         1 GROUP             0       ****    0 ROOT    
