@<TRIPOS>MOLECULE
3R8
117   119    1
SMALL
USER_CHARGES


@<TRIPOS>ATOM
      1 CA         17.0987  -24.2567  -44.8295 C.3       0 UNK        -0.2013 
      2 C          15.9444  -24.4400  -43.8478 C.2       0 UNK         0.4866 
      3 O          15.4256  -23.4480  -43.3392 O.2       0 UNK        -0.5176 
      4 N          15.5076  -25.6670  -43.5390 N.am      1 UNK        -0.4884 
      5 CA         16.0417  -26.9564  -43.9921 C.3       1 UNK         0.0853 
      6 C6         15.0671  -27.6796  -44.9550 C.3       10 UNK        -0.0849 
      7 S7         15.1695  -26.9425  -46.6181 S.3       10 UNK        -0.2776 
      8 C8         16.1589  -28.1741  -47.5303 C.3       10 UNK         0.0316 
      9 C9         17.4648  -28.5600  -46.8376 C.ar      10 UNK        -0.0863 
     10 C10        17.6800  -29.8869  -46.4582 C.ar      10 UNK        -0.1009 
     11 C11        18.9005  -30.2961  -45.9141 C.ar      10 UNK        -0.0712 
     12 C12        19.9068  -29.3385  -45.7138 C.ar      10 UNK        -0.0894 
     13 C13        19.7030  -27.9973  -46.0691 C.ar      10 UNK        -0.0745 
     14 C14        18.4816  -27.6209  -46.6400 C.ar      10 UNK        -0.0972 
     15 C15        20.8251  -26.9637  -45.9625 C.3       10 UNK         0.0209 
     16 S16        21.8757  -27.1121  -44.4762 S.3       10 UNK        -0.2568 
     17 C17        20.9599  -26.1553  -43.2160 C.3       10 UNK        -0.0983 
     18 CA         20.6088  -26.9539  -41.9340 C.3       3 UNK         0.0876 
     19 N          19.7454  -28.0869  -42.2506 N.am      3 UNK        -0.4424 
     20 C          18.9944  -28.7652  -41.3742 C.2       2 UNK         0.4918 
     21 O          19.0594  -28.6272  -40.1521 O.2       2 UNK        -0.4875 
     22 CA         17.9156  -29.6629  -42.0133 C.3       2 UNK         0.0481 
     23 CB         17.0019  -30.3634  -40.9860 C.3       2 UNK        -0.1831 
     24 N          17.1490  -28.8948  -43.0058 N.am      2 UNK        -0.4498 
     25 C          16.3878  -27.8143  -42.7641 C.2       1 UNK         0.5027 
     26 O          16.0139  -27.4623  -41.6419 O.2       1 UNK        -0.4969 
     27 C          21.8664  -27.3497  -41.1342 C.2       3 UNK         0.5005 
     28 O          22.4291  -28.4287  -41.3422 O.2       3 UNK        -0.5279 
     29 N          22.3319  -26.4280  -40.2782 N.am      4 UNK        -0.4463 
     30 CA         23.5738  -26.5503  -39.5052 C.3       4 UNK         0.0283 
     31 CB         23.6773  -25.3841  -38.5103 C.3       4 UNK        -0.1875 
     32 C          24.8350  -26.6186  -40.3849 C.2       4 UNK         0.4949 
     33 O          25.8120  -27.2516  -39.9876 O.2       4 UNK        -0.5039 
     34 N          24.7733  -26.0236  -41.5855 N.am      5 UNK        -0.4663 
     35 CA         25.8102  -26.0980  -42.6205 C.3       5 UNK         0.0242 
     36 CB         25.4447  -25.1431  -43.7681 C.3       5 UNK        -0.1982 
     37 C          26.0432  -27.5229  -43.1592 C.2       5 UNK         0.5017 
     38 O          27.1481  -27.8169  -43.6155 O.2       5 UNK        -0.5012 
     39 N          25.0189  -28.3819  -43.0670 N.am      6 UNK        -0.4439 
     40 CA         25.0733  -29.8064  -43.3943 C.3       6 UNK         0.0297 
     41 CB         23.8084  -30.1745  -44.1910 C.3       6 UNK        -0.2006 
     42 C          25.2118  -30.6763  -42.1295 C.2       6 UNK         0.4892 
     43 O          24.9422  -31.8750  -42.2023 O.2       6 UNK        -0.5089 
     44 N          25.5868  -30.0739  -40.9876 N.am      7 UNK        -0.4243 
     45 CA         25.6919  -30.6858  -39.6551 C.3       7 UNK         0.0196 
     46 CB         26.8503  -31.7052  -39.6071 C.3       7 UNK        -0.2007 
     47 C          24.3486  -31.2698  -39.1755 C.2       7 UNK         0.5020 
     48 O          24.2996  -32.4033  -38.6971 O.2       7 UNK        -0.5147 
     49 N          23.2768  -30.4867  -39.3685 N.am      8 UNK        -0.4734 
     50 CA         21.8595  -30.8146  -39.1587 C.3       8 UNK         0.0238 
     51 CB         21.5753  -31.3203  -37.7285 C.3       8 UNK        -0.1912 
     52 C          21.2731  -31.7399  -40.2421 C.2       8 UNK         0.5038 
     53 O          20.1061  -32.1173  -40.1344 O.2       8 UNK        -0.5046 
     54 N          22.0599  -32.0568  -41.2810 N.am      9 UNK        -0.4200 
     55 CA         21.6653  -32.8386  -42.4605 C.3       9 UNK         0.0839 
     56 C          21.3619  -34.3410  -42.1702 C.2       9 UNK         0.5513 
     57 N          21.8605  -34.9075  -41.0772 N.am      9 UNK        -0.7519 
     58 O          20.6885  -35.0128  -42.9471 O.2       9 UNK        -0.4960 
     59 C59        20.5631  -32.1072  -43.2776 C.3       10 UNK        -0.0876 
     60 S60        20.7283  -32.3342  -45.0753 S.3       10 UNK        -0.2414 
     61 C61        19.0772  -31.7929  -45.6353 C.3       10 UNK         0.0169 
     62 H62        16.8826  -24.7308  -45.7854 H         1 UNK         0.0903 
     63 H63        17.2711  -23.1979  -45.0215 H         1 UNK         0.0903 
     64 H64        18.0204  -24.6732  -44.4264 H         1 UNK         0.0903 
     65 H65        14.7972  -25.7538  -42.8243 H         1 UNK         0.3096 
     66 H66        16.9949  -26.8077  -44.4973 H         1 UNK         0.1121 
     67 H67        14.0392  -27.6056  -44.5952 H         1 UNK         0.0849 
     68 H68        15.2759  -28.7481  -45.0327 H         1 UNK         0.0849 
     69 H69        15.5381  -29.0549  -47.7026 H         1 UNK         0.0865 
     70 H70        16.3897  -27.7738  -48.5186 H         1 UNK         0.0865 
     71 H71        16.9061  -30.6231  -46.6321 H         1 UNK         0.1346 
     72 H72        20.8696  -29.6342  -45.3233 H         1 UNK         0.1412 
     73 H73        18.3275  -26.5992  -46.9605 H         1 UNK         0.1426 
     74 H74        20.4276  -25.9491  -46.0173 H         1 UNK         0.0716 
     75 H75        21.4663  -27.0826  -46.8367 H         1 UNK         0.0716 
     76 H76        21.5501  -25.2716  -42.9670 H         1 UNK         0.0695 
     77 H77        20.0416  -25.7708  -43.6604 H         1 UNK         0.0695 
     78 H78        20.0200  -26.2938  -41.2926 H         1 UNK         0.0983 
     79 H79        19.6642  -28.2986  -43.2333 H         1 UNK         0.3095 
     80 H80        18.4331  -30.4405  -42.5700 H         1 UNK         0.0454 
     81 H81        17.5833  -31.0263  -40.3445 H         1 UNK         0.0851 
     82 H82        16.2439  -30.9716  -41.4787 H         1 UNK         0.0851 
     83 H83        16.4928  -29.6543  -40.3334 H         1 UNK         0.0851 
     84 H84        17.3643  -29.1121  -43.9701 H         1 UNK         0.2976 
     85 H85        21.8178  -25.5656  -40.1630 H         1 UNK         0.3116 
     86 H86        23.5210  -27.4797  -38.9345 H         1 UNK         0.0646 
     87 H87        23.7141  -24.4192  -39.0177 H         1 UNK         0.0847 
     88 H88        24.5814  -25.4675  -37.9053 H         1 UNK         0.0847 
     89 H89        22.8317  -25.3713  -37.8224 H         1 UNK         0.0847 
     90 H90        23.9310  -25.5217  -41.8250 H         1 UNK         0.3040 
     91 H91        26.7500  -25.7620  -42.1765 H         1 UNK         0.1015 
     92 H92        24.5011  -25.4202  -44.2400 H         1 UNK         0.0786 
     93 H93        26.2116  -25.1542  -44.5440 H         1 UNK         0.0786 
     94 H94        25.3568  -24.1146  -43.4174 H         1 UNK         0.0786 
     95 H95        24.1477  -28.0608  -42.6591 H         1 UNK         0.3172 
     96 H96        25.9401  -30.0165  -44.0236 H         1 UNK         0.0595 
     97 H97        22.9046  -30.0323  -43.5975 H         1 UNK         0.0839 
     98 H98        23.8298  -31.2165  -44.5122 H         1 UNK         0.0839 
     99 H99        23.7158  -29.5662  -45.0906 H         1 UNK         0.0839 
    100 H100       25.7735  -29.0774  -41.0126 H         1 UNK         0.2998 
    101 H101       25.9367  -29.8785  -38.9631 H         1 UNK         0.0822 
    102 H102       27.0018  -32.0754  -38.5924 H         1 UNK         0.0787 
    103 H103       26.6577  -32.5705  -40.2422 H         1 UNK         0.0787 
    104 H104       27.7884  -31.2541  -39.9303 H         1 UNK         0.0787 
    105 H105       23.4187  -29.6110  -39.8605 H         1 UNK         0.3055 
    106 H106       21.3258  -29.8700  -39.2713 H         1 UNK         0.1106 
    107 H107       22.0073  -30.6581  -36.9785 H         1 UNK         0.0828 
    108 H108       20.5018  -31.3637  -37.5408 H         1 UNK         0.0828 
    109 H109       21.9684  -32.3233  -37.5623 H         1 UNK         0.0828 
    110 H110       23.0249  -31.7511  -41.2743 H         1 UNK         0.2931 
    111 H111       22.5669  -32.8599  -43.0724 H         1 UNK         0.0412 
    112 H112       22.4244  -34.3701  -40.4370 H         1 UNK         0.3472 
    113 H113       21.6705  -35.8800  -40.8924 H         1 UNK         0.3472 
    114 H114       20.6176  -31.0322  -43.1028 H         1 UNK         0.0970 
    115 H115       19.5729  -32.4240  -42.9463 H         1 UNK         0.0970 
    116 H116       18.3233  -32.1180  -44.9172 H         1 UNK         0.0612 
    117 H117       18.8638  -32.3326  -46.5591 H         1 UNK         0.0612 
@<TRIPOS>BOND
     1    1    2 1    
     2    1   62 1    
     3    1   63 1    
     4    1   64 1    
     5    2    3 2    
     6    2    4 am   BACKBONE|DICT|INTERRES
     7    4    5 1    
     8    4   65 1    
     9    5    6 1    
    10    5   25 1    
    11    5   66 1    
    12    6    7 1    
    13    6   67 1    
    14    6   68 1    
    15    7    8 1    
    16    8    9 1    
    17    8   69 1    
    18    8   70 1    
    19    9   10 ar   
    20    9   14 ar   
    21   10   11 ar   
    22   10   71 1    
    23   11   12 ar   
    24   11   61 1    
    25   12   13 ar   
    26   12   72 1    
    27   13   14 ar   
    28   13   15 1    
    29   14   73 1    
    30   15   16 1    
    31   15   74 1    
    32   15   75 1    
    33   16   17 1    
    34   17   18 1    
    35   17   76 1    
    36   17   77 1    
    37   18   19 1    
    38   18   27 1    
    39   18   78 1    
    40   19   20 am   BACKBONE|DICT|INTERRES
    41   19   79 1    
    42   20   21 2    
    43   20   22 1    
    44   22   23 1    
    45   22   24 1    
    46   22   80 1    
    47   23   81 1    
    48   23   82 1    
    49   23   83 1    
    50   24   25 am   BACKBONE|DICT|INTERRES
    51   24   84 1    
    52   25   26 2    
    53   27   28 2    
    54   27   29 am   BACKBONE|DICT|INTERRES
    55   29   30 1    
    56   29   85 1    
    57   30   31 1    
    58   30   32 1    
    59   30   86 1    
    60   31   87 1    
    61   31   88 1    
    62   31   89 1    
    63   32   33 2    
    64   32   34 am   BACKBONE|DICT|INTERRES
    65   34   35 1    
    66   34   90 1    
    67   35   36 1    
    68   35   37 1    
    69   35   91 1    
    70   36   92 1    
    71   36   93 1    
    72   36   94 1    
    73   37   38 2    
    74   37   39 am   BACKBONE|DICT|INTERRES
    75   39   40 1    
    76   39   95 1    
    77   40   41 1    
    78   40   42 1    
    79   40   96 1    
    80   41   97 1    
    81   41   98 1    
    82   41   99 1    
    83   42   43 2    
    84   42   44 am   BACKBONE|DICT|INTERRES
    85   44   45 1    
    86   44  100 1    
    87   45   46 1    
    88   45   47 1    
    89   45  101 1    
    90   46  102 1    
    91   46  103 1    
    92   46  104 1    
    93   47   48 2    
    94   47   49 am   BACKBONE|DICT|INTERRES
    95   49   50 1    
    96   49  105 1    
    97   50   51 1    
    98   50   52 1    
    99   50  106 1    
   100   51  107 1    
   101   51  108 1    
   102   51  109 1    
   103   52   53 2    
   104   52   54 am   BACKBONE|DICT|INTERRES
   105   54   55 1    
   106   54  110 1    
   107   55   56 1    
   108   55   59 1    
   109   55  111 1    
   110   56   57 am   BACKBONE|DICT|INTERRES
   111   56   58 2    
   112   57  112 1    
   113   57  113 1    
   114   59   60 1    
   115   59  114 1    
   116   59  115 1    
   117   60   61 1    
   118   61  116 1    
   119   61  117 1    
@<TRIPOS>SUBSTRUCTURE
     1 UNK         1 GROUP             0       ****    0 ROOT    
