@<TRIPOS>MOLECULE
3R8
117   119    1
SMALL
USER_CHARGES


@<TRIPOS>ATOM
      1 CA         11.9784  -25.9642  -45.6258 C.3       0 UNK        -0.2013 
      2 C          13.4512  -26.2811  -45.8384 C.2       0 UNK         0.4866 
      3 O          13.8090  -26.8838  -46.8511 O.2       0 UNK        -0.5176 
      4 N          14.3072  -25.8772  -44.8961 N.am      1 UNK        -0.4884 
      5 CA         15.7545  -26.0840  -44.9175 C.3       1 UNK         0.0853 
      6 C6         16.1676  -27.5294  -44.5179 C.3       10 UNK        -0.0849 
      7 S7         15.5042  -28.0908  -42.9083 S.3       10 UNK        -0.2776 
      8 C8         16.1285  -29.8016  -42.8322 C.3       10 UNK         0.0316 
      9 C9         17.6435  -29.8482  -42.6922 C.ar      10 UNK        -0.0863 
     10 C10        18.4368  -30.3628  -43.7213 C.ar      10 UNK        -0.1009 
     11 C11        19.8300  -30.3865  -43.6002 C.ar      10 UNK        -0.0712 
     12 C12        20.4281  -29.8900  -42.4380 C.ar      10 UNK        -0.0894 
     13 C13        19.6448  -29.3523  -41.4112 C.ar      10 UNK        -0.0745 
     14 C14        18.2534  -29.3569  -41.5356 C.ar      10 UNK        -0.0972 
     15 C15        20.2863  -28.7321  -40.1782 C.3       10 UNK         0.0209 
     16 S16        20.0968  -26.9182  -40.1743 S.3       10 UNK        -0.2568 
     17 C17        21.4712  -26.3819  -41.2463 C.3       10 UNK        -0.0983 
     18 CA         21.1249  -26.3970  -42.7638 C.3       3 UNK         0.0876 
     19 N          19.9456  -25.6077  -43.1242 N.am      3 UNK        -0.4424 
     20 C          19.8272  -24.2739  -43.1140 C.2       2 UNK         0.4918 
     21 O          20.7177  -23.5100  -42.7387 O.2       2 UNK        -0.4875 
     22 CA         18.4906  -23.6911  -43.6140 C.3       2 UNK         0.0481 
     23 CB         18.7121  -22.4763  -44.5343 C.3       2 UNK        -0.1831 
     24 N          17.6817  -24.6900  -44.3268 N.am      2 UNK        -0.4498 
     25 C          16.4119  -25.0044  -44.0372 C.2       1 UNK         0.5027 
     26 O          15.7600  -24.4786  -43.1295 O.2       1 UNK        -0.4969 
     27 C          22.3207  -26.0859  -43.6901 C.2       3 UNK         0.5005 
     28 O          22.2206  -26.3467  -44.8898 O.2       3 UNK        -0.5279 
     29 N          23.4321  -25.5919  -43.1196 N.am      4 UNK        -0.4463 
     30 CA         24.7383  -25.3266  -43.7467 C.3       4 UNK         0.0283 
     31 CB         24.6167  -24.3428  -44.9298 C.3       4 UNK        -0.1875 
     32 C          25.5351  -26.5953  -44.1222 C.2       4 UNK         0.4949 
     33 O          26.6075  -26.4794  -44.7156 O.2       4 UNK        -0.5039 
     34 N          25.0312  -27.7764  -43.7388 N.am      5 UNK        -0.4663 
     35 CA         25.6673  -29.0815  -43.9483 C.3       5 UNK         0.0242 
     36 CB         24.5627  -30.1310  -44.1635 C.3       5 UNK        -0.1982 
     37 C          26.5903  -29.4982  -42.7862 C.2       5 UNK         0.5017 
     38 O          27.2421  -30.5375  -42.8879 O.2       5 UNK        -0.5012 
     39 N          26.6081  -28.7053  -41.7016 N.am      6 UNK        -0.4439 
     40 CA         27.3319  -28.9150  -40.4364 C.3       6 UNK         0.0297 
     41 CB         28.8584  -28.9627  -40.6621 C.3       6 UNK        -0.2006 
     42 C          26.8202  -30.1112  -39.6032 C.2       6 UNK         0.4892 
     43 O          27.5056  -30.5445  -38.6755 O.2       6 UNK        -0.5089 
     44 N          25.6172  -30.5990  -39.9213 N.am      7 UNK        -0.4243 
     45 CA         24.8911  -31.6779  -39.2617 C.3       7 UNK         0.0196 
     46 CB         25.5210  -33.0405  -39.6101 C.3       7 UNK        -0.2007 
     47 C          23.4382  -31.6105  -39.7458 C.2       7 UNK         0.5020 
     48 O          23.1723  -30.9899  -40.7783 O.2       7 UNK        -0.5147 
     49 N          22.5252  -32.2536  -39.0098 N.am      8 UNK        -0.4734 
     50 CA         21.1291  -32.4188  -39.4177 C.3       8 UNK         0.0238 
     51 CB         20.2553  -32.6728  -38.1787 C.3       8 UNK        -0.1912 
     52 C          21.0137  -33.5745  -40.4218 C.2       8 UNK         0.5038 
     53 O          21.4966  -34.6714  -40.1296 O.2       8 UNK        -0.5046 
     54 N          20.3829  -33.3132  -41.5720 N.am      9 UNK        -0.4200 
     55 CA         20.2220  -34.2872  -42.6657 C.3       9 UNK         0.0839 
     56 C          19.0556  -35.2974  -42.4640 C.2       9 UNK         0.5513 
     57 N          18.2126  -35.1515  -41.4485 N.am      9 UNK        -0.7519 
     58 O          18.9180  -36.2381  -43.2416 O.2       9 UNK        -0.4960 
     59 C59        20.1343  -33.5989  -44.0535 C.3       10 UNK        -0.0876 
     60 S60        21.5347  -32.4656  -44.3616 S.3       10 UNK        -0.2414 
     61 C61        20.6878  -30.9009  -44.7489 C.3       10 UNK         0.0169 
     62 H62        11.6056  -25.3454  -46.4416 H         1 UNK         0.0903 
     63 H63        11.3965  -26.8852  -45.6025 H         1 UNK         0.0903 
     64 H64        11.8072  -25.4318  -44.6903 H         1 UNK         0.0903 
     65 H65        13.9882  -25.3572  -44.0870 H         1 UNK         0.3096 
     66 H66        16.0968  -25.9022  -45.9392 H         1 UNK         0.1121 
     67 H67        15.8214  -28.2257  -45.2833 H         1 UNK         0.0849 
     68 H68        17.2545  -27.6267  -44.5061 H         1 UNK         0.0849 
     69 H69        15.6768  -30.3052  -41.9764 H         1 UNK         0.0865 
     70 H70        15.7973  -30.3474  -43.7172 H         1 UNK         0.0865 
     71 H71        17.9701  -30.7328  -44.6242 H         1 UNK         0.1346 
     72 H72        21.5058  -29.8905  -42.3533 H         1 UNK         0.1412 
     73 H73        17.6438  -28.9384  -40.7459 H         1 UNK         0.1426 
     74 H74        21.3416  -28.9981  -40.1029 H         1 UNK         0.0716 
     75 H75        19.8054  -29.1359  -39.2861 H         1 UNK         0.0716 
     76 H76        22.3296  -27.0230  -41.0369 H         1 UNK         0.0695 
     77 H77        21.7517  -25.3766  -40.9276 H         1 UNK         0.0695 
     78 H78        20.8555  -27.4160  -43.0251 H         1 UNK         0.0983 
     79 H79        19.1460  -26.1458  -43.4202 H         1 UNK         0.3095 
     80 H80        17.9649  -23.3458  -42.7218 H         1 UNK         0.0454 
     81 H81        19.2827  -22.7437  -45.4243 H         1 UNK         0.0851 
     82 H82        19.2601  -21.6857  -44.0202 H         1 UNK         0.0851 
     83 H83        17.7639  -22.0483  -44.8595 H         1 UNK         0.0851 
     84 H84        18.1336  -25.1471  -45.1077 H         1 UNK         0.2976 
     85 H85        23.3890  -25.3876  -42.1302 H         1 UNK         0.3116 
     86 H86        25.3314  -24.8286  -42.9782 H         1 UNK         0.0646 
     87 H87        24.0529  -23.4526  -44.6507 H         1 UNK         0.0847 
     88 H88        25.6006  -24.0104  -45.2629 H         1 UNK         0.0847 
     89 H89        24.1248  -24.7968  -45.7902 H         1 UNK         0.0847 
     90 H90        24.1350  -27.7790  -43.2761 H         1 UNK         0.3040 
     91 H91        26.2833  -29.0459  -44.8498 H         1 UNK         0.1015 
     92 H92        23.9092  -30.2200  -43.2951 H         1 UNK         0.0786 
     93 H93        24.9870  -31.1184  -44.3507 H         1 UNK         0.0786 
     94 H94        23.9432  -29.8814  -45.0250 H         1 UNK         0.0786 
     95 H95        26.0338  -27.8753  -41.7388 H         1 UNK         0.3172 
     96 H96        27.1246  -28.0307  -39.8321 H         1 UNK         0.0595 
     97 H97        29.1643  -29.8694  -41.1846 H         1 UNK         0.0839 
     98 H98        29.3949  -28.9428  -39.7127 H         1 UNK         0.0839 
     99 H99        29.2018  -28.1071  -41.2434 H         1 UNK         0.0839 
    100 H100       25.0958  -30.1784  -40.6811 H         1 UNK         0.2998 
    101 H101       24.9134  -31.5166  -38.1819 H         1 UNK         0.0822 
    102 H102       24.9670  -33.8604  -39.1512 H         1 UNK         0.0787 
    103 H103       25.5280  -33.2133  -40.6873 H         1 UNK         0.0787 
    104 H104       26.5492  -33.1093  -39.2547 H         1 UNK         0.0787 
    105 H105       22.8260  -32.7797  -38.2016 H         1 UNK         0.3055 
    106 H106       20.7845  -31.4996  -39.8920 H         1 UNK         0.1106 
    107 H107       20.3207  -31.8458  -37.4715 H         1 UNK         0.0828 
    108 H108       19.2058  -32.7772  -38.4569 H         1 UNK         0.0828 
    109 H109       20.5464  -33.5853  -37.6565 H         1 UNK         0.0828 
    110 H110       20.0275  -32.3852  -41.7529 H         1 UNK         0.2931 
    111 H111       21.1270  -34.8981  -42.6868 H         1 UNK         0.0412 
    112 H112       18.3169  -34.3856  -40.8031 H         1 UNK         0.3472 
    113 H113       17.4645  -35.8164  -41.3279 H         1 UNK         0.3472 
    114 H114       20.1394  -34.3479  -44.8476 H         1 UNK         0.0970 
    115 H115       19.1878  -33.0670  -44.1553 H         1 UNK         0.0970 
    116 H116       21.4376  -30.1482  -44.9957 H         1 UNK         0.0612 
    117 H117       20.0885  -31.0389  -45.6501 H         1 UNK         0.0612 
@<TRIPOS>BOND
     1    1    2 1    
     2    1   62 1    
     3    1   63 1    
     4    1   64 1    
     5    2    3 2    
     6    2    4 am   BACKBONE|DICT|INTERRES
     7    4    5 1    
     8    4   65 1    
     9    5    6 1    
    10    5   25 1    
    11    5   66 1    
    12    6    7 1    
    13    6   67 1    
    14    6   68 1    
    15    7    8 1    
    16    8    9 1    
    17    8   69 1    
    18    8   70 1    
    19    9   10 ar   
    20    9   14 ar   
    21   10   11 ar   
    22   10   71 1    
    23   11   12 ar   
    24   11   61 1    
    25   12   13 ar   
    26   12   72 1    
    27   13   14 ar   
    28   13   15 1    
    29   14   73 1    
    30   15   16 1    
    31   15   74 1    
    32   15   75 1    
    33   16   17 1    
    34   17   18 1    
    35   17   76 1    
    36   17   77 1    
    37   18   19 1    
    38   18   27 1    
    39   18   78 1    
    40   19   20 am   BACKBONE|DICT|INTERRES
    41   19   79 1    
    42   20   21 2    
    43   20   22 1    
    44   22   23 1    
    45   22   24 1    
    46   22   80 1    
    47   23   81 1    
    48   23   82 1    
    49   23   83 1    
    50   24   25 am   BACKBONE|DICT|INTERRES
    51   24   84 1    
    52   25   26 2    
    53   27   28 2    
    54   27   29 am   BACKBONE|DICT|INTERRES
    55   29   30 1    
    56   29   85 1    
    57   30   31 1    
    58   30   32 1    
    59   30   86 1    
    60   31   87 1    
    61   31   88 1    
    62   31   89 1    
    63   32   33 2    
    64   32   34 am   BACKBONE|DICT|INTERRES
    65   34   35 1    
    66   34   90 1    
    67   35   36 1    
    68   35   37 1    
    69   35   91 1    
    70   36   92 1    
    71   36   93 1    
    72   36   94 1    
    73   37   38 2    
    74   37   39 am   BACKBONE|DICT|INTERRES
    75   39   40 1    
    76   39   95 1    
    77   40   41 1    
    78   40   42 1    
    79   40   96 1    
    80   41   97 1    
    81   41   98 1    
    82   41   99 1    
    83   42   43 2    
    84   42   44 am   BACKBONE|DICT|INTERRES
    85   44   45 1    
    86   44  100 1    
    87   45   46 1    
    88   45   47 1    
    89   45  101 1    
    90   46  102 1    
    91   46  103 1    
    92   46  104 1    
    93   47   48 2    
    94   47   49 am   BACKBONE|DICT|INTERRES
    95   49   50 1    
    96   49  105 1    
    97   50   51 1    
    98   50   52 1    
    99   50  106 1    
   100   51  107 1    
   101   51  108 1    
   102   51  109 1    
   103   52   53 2    
   104   52   54 am   BACKBONE|DICT|INTERRES
   105   54   55 1    
   106   54  110 1    
   107   55   56 1    
   108   55   59 1    
   109   55  111 1    
   110   56   57 am   BACKBONE|DICT|INTERRES
   111   56   58 2    
   112   57  112 1    
   113   57  113 1    
   114   59   60 1    
   115   59  114 1    
   116   59  115 1    
   117   60   61 1    
   118   61  116 1    
   119   61  117 1    
@<TRIPOS>SUBSTRUCTURE
     1 UNK         1 GROUP             0       ****    0 ROOT    
