@<TRIPOS>MOLECULE
3R8
117   119    1
SMALL
USER_CHARGES


@<TRIPOS>ATOM
      1 CA         16.0453  -21.8416  -46.3122 C.3       0 UNK        -0.2013 
      2 C          17.3286  -22.6538  -46.2205 C.2       0 UNK         0.4866 
      3 O          18.4186  -22.0810  -46.2422 O.2       0 UNK        -0.5176 
      4 N          17.2097  -23.9843  -46.1264 N.am      1 UNK        -0.4884 
      5 CA         18.3336  -24.9102  -45.9584 C.3       1 UNK         0.0853 
      6 C6         17.9114  -26.3601  -46.2976 C.3       10 UNK        -0.0849 
      7 S7         19.3358  -27.4647  -46.5961 S.3       10 UNK        -0.2776 
      8 C8         18.5003  -28.9770  -47.1751 C.3       10 UNK         0.0316 
      9 C9         18.3382  -30.0159  -46.0715 C.ar      10 UNK        -0.0863 
     10 C10        19.0294  -31.2303  -46.1453 C.ar      10 UNK        -0.1009 
     11 C11        18.8403  -32.2192  -45.1744 C.ar      10 UNK        -0.0712 
     12 C12        17.9657  -31.9775  -44.1115 C.ar      10 UNK        -0.0894 
     13 C13        17.2919  -30.7580  -44.0087 C.ar      10 UNK        -0.0745 
     14 C14        17.4688  -29.7889  -44.9998 C.ar      10 UNK        -0.0972 
     15 C15        16.3558  -30.5034  -42.8373 C.3       10 UNK         0.0209 
     16 S16        17.2682  -30.0480  -41.3279 S.3       10 UNK        -0.2568 
     17 C17        17.7586  -28.3217  -41.6687 C.3       10 UNK        -0.0983 
     18 CA         19.2930  -28.1081  -41.6316 C.3       3 UNK         0.0876 
     19 N          19.6535  -26.8286  -42.2441 N.am      3 UNK        -0.4424 
     20 C          20.8886  -26.3545  -42.4517 C.2       2 UNK         0.4918 
     21 O          21.9210  -26.9608  -42.1507 O.2       2 UNK        -0.4875 
     22 CA         20.9735  -24.9767  -43.1424 C.3       2 UNK         0.0481 
     23 CB         22.4204  -24.5477  -43.4372 C.3       2 UNK        -0.1831 
     24 N          20.2275  -24.9527  -44.4026 N.am      2 UNK        -0.4498 
     25 C          18.9020  -24.8171  -44.5277 C.2       1 UNK         0.5027 
     26 O          18.1367  -24.6860  -43.5678 O.2       1 UNK        -0.4969 
     27 C          19.8472  -28.1997  -40.1955 C.2       3 UNK         0.5005 
     28 O          19.5675  -27.3163  -39.3810 O.2       3 UNK        -0.5279 
     29 N          20.6336  -29.2524  -39.9327 N.am      4 UNK        -0.4463 
     30 CA         21.3384  -29.5607  -38.6821 C.3       4 UNK         0.0283 
     31 CB         20.3619  -29.6997  -37.4951 C.3       4 UNK        -0.1875 
     32 C          22.5158  -28.6129  -38.3726 C.2       4 UNK         0.4949 
     33 O          23.0679  -28.6859  -37.2741 O.2       4 UNK        -0.5039 
     34 N          22.9033  -27.7721  -39.3398 N.am      5 UNK        -0.4663 
     35 CA         24.0771  -26.9072  -39.2917 C.3       5 UNK         0.0242 
     36 CB         23.6400  -25.4378  -39.4558 C.3       5 UNK        -0.1982 
     37 C          25.0520  -27.4061  -40.3655 C.2       5 UNK         0.5017 
     38 O          25.7313  -28.4049  -40.1273 O.2       5 UNK        -0.5012 
     39 N          25.0976  -26.7369  -41.5267 N.am      6 UNK        -0.4439 
     40 CA         25.9079  -27.1508  -42.6772 C.3       6 UNK         0.0297 
     41 CB         26.0517  -25.9906  -43.6741 C.3       6 UNK        -0.2006 
     42 C          25.3536  -28.4099  -43.3677 C.2       6 UNK         0.4892 
     43 O          26.1432  -29.2389  -43.8217 O.2       6 UNK        -0.5089 
     44 N          24.0210  -28.5601  -43.3948 N.am      7 UNK        -0.4243 
     45 CA         23.3391  -29.7929  -43.7829 C.3       7 UNK         0.0196 
     46 CB         22.0417  -29.4604  -44.5425 C.3       7 UNK        -0.2007 
     47 C          23.0907  -30.6040  -42.5052 C.2       7 UNK         0.5020 
     48 O          21.9736  -30.6231  -41.9823 O.2       7 UNK        -0.5147 
     49 N          24.1608  -31.2229  -41.9899 N.am      8 UNK        -0.4734 
     50 CA         24.2031  -32.0036  -40.7475 C.3       8 UNK         0.0238 
     51 CB         25.6676  -32.1174  -40.2850 C.3       8 UNK        -0.1912 
     52 C          23.5147  -33.3792  -40.8764 C.2       8 UNK         0.5038 
     53 O          24.1200  -34.4099  -40.5764 O.2       8 UNK        -0.5046 
     54 N          22.2645  -33.3635  -41.3437 N.am      9 UNK        -0.4200 
     55 CA         21.4206  -34.5341  -41.6138 C.3       9 UNK         0.0839 
     56 C          20.7969  -35.1903  -40.3479 C.2       9 UNK         0.5513 
     57 N          20.9096  -34.6017  -39.1630 N.am      9 UNK        -0.7519 
     58 O          20.2034  -36.2613  -40.4438 O.2       9 UNK        -0.4960 
     59 C59        20.3312  -34.1881  -42.6601 C.3       10 UNK        -0.0876 
     60 S60        21.0409  -33.6424  -44.2528 S.3       10 UNK        -0.2414 
     61 C61        19.5535  -33.5586  -45.2970 C.3       10 UNK         0.0169 
     62 H62        15.1587  -22.4753  -46.2958 H         1 UNK         0.0903 
     63 H63        15.9809  -21.1470  -45.4750 H         1 UNK         0.0903 
     64 H64        16.0318  -21.2641  -47.2361 H         1 UNK         0.0903 
     65 H65        16.2884  -24.3961  -46.0776 H         1 UNK         0.3096 
     66 H66        19.1123  -24.6040  -46.6616 H         1 UNK         0.1121 
     67 H67        17.2743  -26.7700  -45.5137 H         1 UNK         0.0849 
     68 H68        17.3082  -26.3587  -47.2072 H         1 UNK         0.0849 
     69 H69        17.5229  -28.7369  -47.5958 H         1 UNK         0.0865 
     70 H70        19.0837  -29.3901  -47.9993 H         1 UNK         0.0865 
     71 H71        19.7010  -31.4173  -46.9721 H         1 UNK         0.1346 
     72 H72        17.8035  -32.7383  -43.3616 H         1 UNK         0.1412 
     73 H73        16.9214  -28.8612  -44.9371 H         1 UNK         0.1426 
     74 H74        15.7763  -31.4057  -42.6361 H         1 UNK         0.0716 
     75 H75        15.6292  -29.7256  -43.0776 H         1 UNK         0.0716 
     76 H76        17.2546  -27.6672  -40.9547 H         1 UNK         0.0695 
     77 H77        17.3724  -28.0368  -42.6480 H         1 UNK         0.0695 
     78 H78        19.7566  -28.8875  -42.2399 H         1 UNK         0.0983 
     79 H79        18.8832  -26.2268  -42.5134 H         1 UNK         0.3095 
     80 H80        20.5404  -24.2440  -42.4584 H         1 UNK         0.0454 
     81 H81        22.9017  -25.2416  -44.1254 H         1 UNK         0.0851 
     82 H82        23.0191  -24.5055  -42.5287 H         1 UNK         0.0851 
     83 H83        22.4550  -23.5549  -43.8861 H         1 UNK         0.0851 
     84 H84        20.7688  -25.1238  -45.2384 H         1 UNK         0.2976 
     85 H85        20.8794  -29.8620  -40.7128 H         1 UNK         0.3116 
     86 H86        21.7852  -30.5421  -38.8408 H         1 UNK         0.0646 
     87 H87        20.8678  -30.1085  -36.6196 H         1 UNK         0.0847 
     88 H88        19.5381  -30.3720  -37.7345 H         1 UNK         0.0847 
     89 H89        19.9384  -28.7393  -37.2007 H         1 UNK         0.0847 
     90 H90        22.4055  -27.7890  -40.2229 H         1 UNK         0.3040 
     91 H91        24.5938  -26.9994  -38.3337 H         1 UNK         0.1015 
     92 H92        23.0692  -25.1099  -38.5867 H         1 UNK         0.0786 
     93 H93        23.0072  -25.2861  -40.3284 H         1 UNK         0.0786 
     94 H94        24.5012  -24.7733  -39.5398 H         1 UNK         0.0786 
     95 H95        24.4915  -25.9395  -41.6467 H         1 UNK         0.3172 
     96 H96        26.9077  -27.3927  -42.3096 H         1 UNK         0.0595 
     97 H97        25.1026  -25.7273  -44.1367 H         1 UNK         0.0839 
     98 H98        26.7361  -26.2593  -44.4800 H         1 UNK         0.0839 
     99 H99        26.4544  -25.0984  -43.1942 H         1 UNK         0.0839 
    100 H100       23.4351  -27.8587  -42.9506 H         1 UNK         0.2998 
    101 H101       23.9663  -30.3891  -44.4493 H         1 UNK         0.0822 
    102 H102       22.2490  -28.9145  -45.4627 H         1 UNK         0.0787 
    103 H103       21.5116  -30.3728  -44.8179 H         1 UNK         0.0787 
    104 H104       21.3558  -28.8592  -43.9497 H         1 UNK         0.0787 
    105 H105       25.0374  -31.1311  -42.4859 H         1 UNK         0.3055 
    106 H106       23.6612  -31.4486  -39.9801 H         1 UNK         0.1106 
    107 H107       25.7383  -32.6409  -39.3306 H         1 UNK         0.0828 
    108 H108       26.2772  -32.6652  -41.0046 H         1 UNK         0.0828 
    109 H109       26.1170  -31.1342  -40.1440 H         1 UNK         0.0828 
    110 H110       21.8729  -32.4606  -41.5953 H         1 UNK         0.2931 
    111 H111       22.0623  -35.3001  -42.0538 H         1 UNK         0.0412 
    112 H112       21.3975  -33.7259  -39.0721 H         1 UNK         0.3472 
    113 H113       20.5037  -35.0419  -38.3521 H         1 UNK         0.3472 
    114 H114       19.6936  -35.0537  -42.8505 H         1 UNK         0.0970 
    115 H115       19.6837  -33.4016  -42.2712 H         1 UNK         0.0970 
    116 H116       18.8721  -34.3728  -45.0461 H         1 UNK         0.0612 
    117 H117       19.8524  -33.7267  -46.3328 H         1 UNK         0.0612 
@<TRIPOS>BOND
     1    1    2 1    
     2    1   62 1    
     3    1   63 1    
     4    1   64 1    
     5    2    3 2    
     6    2    4 am   BACKBONE|DICT|INTERRES
     7    4    5 1    
     8    4   65 1    
     9    5    6 1    
    10    5   25 1    
    11    5   66 1    
    12    6    7 1    
    13    6   67 1    
    14    6   68 1    
    15    7    8 1    
    16    8    9 1    
    17    8   69 1    
    18    8   70 1    
    19    9   10 ar   
    20    9   14 ar   
    21   10   11 ar   
    22   10   71 1    
    23   11   12 ar   
    24   11   61 1    
    25   12   13 ar   
    26   12   72 1    
    27   13   14 ar   
    28   13   15 1    
    29   14   73 1    
    30   15   16 1    
    31   15   74 1    
    32   15   75 1    
    33   16   17 1    
    34   17   18 1    
    35   17   76 1    
    36   17   77 1    
    37   18   19 1    
    38   18   27 1    
    39   18   78 1    
    40   19   20 am   BACKBONE|DICT|INTERRES
    41   19   79 1    
    42   20   21 2    
    43   20   22 1    
    44   22   23 1    
    45   22   24 1    
    46   22   80 1    
    47   23   81 1    
    48   23   82 1    
    49   23   83 1    
    50   24   25 am   BACKBONE|DICT|INTERRES
    51   24   84 1    
    52   25   26 2    
    53   27   28 2    
    54   27   29 am   BACKBONE|DICT|INTERRES
    55   29   30 1    
    56   29   85 1    
    57   30   31 1    
    58   30   32 1    
    59   30   86 1    
    60   31   87 1    
    61   31   88 1    
    62   31   89 1    
    63   32   33 2    
    64   32   34 am   BACKBONE|DICT|INTERRES
    65   34   35 1    
    66   34   90 1    
    67   35   36 1    
    68   35   37 1    
    69   35   91 1    
    70   36   92 1    
    71   36   93 1    
    72   36   94 1    
    73   37   38 2    
    74   37   39 am   BACKBONE|DICT|INTERRES
    75   39   40 1    
    76   39   95 1    
    77   40   41 1    
    78   40   42 1    
    79   40   96 1    
    80   41   97 1    
    81   41   98 1    
    82   41   99 1    
    83   42   43 2    
    84   42   44 am   BACKBONE|DICT|INTERRES
    85   44   45 1    
    86   44  100 1    
    87   45   46 1    
    88   45   47 1    
    89   45  101 1    
    90   46  102 1    
    91   46  103 1    
    92   46  104 1    
    93   47   48 2    
    94   47   49 am   BACKBONE|DICT|INTERRES
    95   49   50 1    
    96   49  105 1    
    97   50   51 1    
    98   50   52 1    
    99   50  106 1    
   100   51  107 1    
   101   51  108 1    
   102   51  109 1    
   103   52   53 2    
   104   52   54 am   BACKBONE|DICT|INTERRES
   105   54   55 1    
   106   54  110 1    
   107   55   56 1    
   108   55   59 1    
   109   55  111 1    
   110   56   57 am   BACKBONE|DICT|INTERRES
   111   56   58 2    
   112   57  112 1    
   113   57  113 1    
   114   59   60 1    
   115   59  114 1    
   116   59  115 1    
   117   60   61 1    
   118   61  116 1    
   119   61  117 1    
@<TRIPOS>SUBSTRUCTURE
     1 UNK         1 GROUP             0       ****    0 ROOT    
