@<TRIPOS>MOLECULE
3R8
117   119    1
SMALL
USER_CHARGES


@<TRIPOS>ATOM
      1 CA         13.7935  -26.3936  -48.6765 C.3       0 UNK        -0.2013 
      2 C          13.6125  -25.2200  -47.7174 C.2       0 UNK         0.4866 
      3 O          12.5876  -24.5436  -47.7852 O.2       0 UNK        -0.5176 
      4 N          14.5592  -24.9280  -46.8189 N.am      1 UNK        -0.4884 
      5 CA         15.8380  -25.6009  -46.5826 C.3       1 UNK         0.0853 
      6 C6         15.6962  -27.0153  -45.9434 C.3       10 UNK        -0.0849 
      7 S7         14.7225  -27.0509  -44.3967 S.3       10 UNK        -0.2776 
      8 C8         14.9416  -28.7796  -43.8659 C.3       10 UNK         0.0316 
      9 C9         16.3196  -29.0325  -43.2678 C.ar      10 UNK        -0.0863 
     10 C10        17.2659  -29.7966  -43.9582 C.ar      10 UNK        -0.1009 
     11 C11        18.5222  -30.0613  -43.4014 C.ar      10 UNK        -0.0712 
     12 C12        18.8173  -29.5531  -42.1281 C.ar      10 UNK        -0.0894 
     13 C13        17.8931  -28.7637  -41.4401 C.ar      10 UNK        -0.0745 
     14 C14        16.6415  -28.5164  -42.0096 C.ar      10 UNK        -0.0972 
     15 C15        18.2479  -28.1672  -40.0860 C.3       10 UNK         0.0209 
     16 S16        18.8058  -26.4397  -40.2448 S.3       10 UNK        -0.2568 
     17 C17        20.5595  -26.6245  -40.7231 C.3       10 UNK        -0.0983 
     18 CA         20.7995  -26.6348  -42.2545 C.3       3 UNK         0.0876 
     19 N          20.1470  -25.5168  -42.9430 N.am      3 UNK        -0.4424 
     20 C          19.8575  -25.5274  -44.2484 C.2       2 UNK         0.4918 
     21 O          20.2169  -26.4103  -45.0317 O.2       2 UNK        -0.4875 
     22 CA         18.9939  -24.3776  -44.7718 C.3       2 UNK         0.0481 
     23 CB         19.8412  -23.3388  -45.5245 C.3       2 UNK        -0.1831 
     24 N          18.0155  -24.9760  -45.6721 N.am      2 UNK        -0.4498 
     25 C          16.7175  -24.6658  -45.7309 C.2       1 UNK         0.5027 
     26 O          16.2100  -23.7059  -45.1413 O.2       1 UNK        -0.4969 
     27 C          22.3028  -26.7439  -42.5704 C.2       3 UNK         0.5005 
     28 O          22.8336  -27.8560  -42.5736 O.2       3 UNK        -0.5279 
     29 N          22.9604  -25.6001  -42.8233 N.am      4 UNK        -0.4463 
     30 CA         24.3948  -25.4506  -43.0974 C.3       4 UNK         0.0283 
     31 CB         24.7442  -26.0189  -44.4922 C.3       4 UNK        -0.1875 
     32 C          25.2462  -26.0291  -41.9495 C.2       4 UNK         0.4949 
     33 O          25.3089  -25.4146  -40.8843 O.2       4 UNK        -0.5039 
     34 N          25.8542  -27.2028  -42.1687 N.am      5 UNK        -0.4663 
     35 CA         26.6037  -27.9594  -41.1618 C.3       5 UNK         0.0242 
     36 CB         27.4563  -29.0247  -41.8713 C.3       5 UNK        -0.1982 
     37 C          25.7124  -28.6199  -40.0928 C.2       5 UNK         0.5017 
     38 O          26.2232  -28.9577  -39.0242 O.2       5 UNK        -0.5012 
     39 N          24.4203  -28.8189  -40.3998 N.am      6 UNK        -0.4439 
     40 CA         23.3546  -29.4333  -39.5951 C.3       6 UNK         0.0297 
     41 CB         23.0909  -28.6435  -38.2992 C.3       6 UNK        -0.2006 
     42 C          23.5464  -30.9328  -39.3133 C.2       6 UNK         0.4892 
     43 O          22.6307  -31.7118  -39.5743 O.2       6 UNK        -0.5089 
     44 N          24.7296  -31.3234  -38.8226 N.am      7 UNK        -0.4243 
     45 CA         25.1160  -32.7085  -38.5315 C.3       7 UNK         0.0196 
     46 CB         26.4899  -32.7172  -37.8432 C.3       7 UNK        -0.2007 
     47 C          25.1308  -33.6112  -39.7773 C.2       7 UNK         0.5020 
     48 O          24.8323  -34.8008  -39.6705 O.2       7 UNK        -0.5147 
     49 N          25.4314  -33.0203  -40.9425 N.am      8 UNK        -0.4734 
     50 CA         25.3965  -33.6715  -42.2558 C.3       8 UNK         0.0238 
     51 CB         26.0059  -32.7208  -43.2994 C.3       8 UNK        -0.1912 
     52 C          23.9874  -34.1158  -42.6941 C.2       8 UNK         0.5038 
     53 O          23.8785  -35.0211  -43.5221 O.2       8 UNK        -0.5046 
     54 N          22.9470  -33.4841  -42.1354 N.am      9 UNK        -0.4200 
     55 CA         21.5338  -33.8195  -42.3609 C.3       9 UNK         0.0839 
     56 C          21.0184  -34.9782  -41.4576 C.2       9 UNK         0.5513 
     57 N          21.8106  -35.5227  -40.5398 N.am      9 UNK        -0.7519 
     58 O          19.8756  -35.4041  -41.6030 O.2       9 UNK        -0.4960 
     59 C59        20.6288  -32.5641  -42.2481 C.3       10 UNK        -0.0876 
     60 S60        21.1167  -31.2527  -43.4238 S.3       10 UNK        -0.2414 
     61 C61        19.5237  -30.8697  -44.2324 C.3       10 UNK         0.0169 
     62 H62        14.8273  -26.5230  -48.9911 H         1 UNK         0.0903 
     63 H63        13.4490  -27.3165  -48.2113 H         1 UNK         0.0903 
     64 H64        13.2011  -26.2357  -49.5775 H         1 UNK         0.0903 
     65 H65        14.4327  -24.1323  -46.2037 H         1 UNK         0.3096 
     66 H66        16.3514  -25.6967  -47.5411 H         1 UNK         0.1121 
     67 H67        16.6804  -27.4436  -45.7451 H         1 UNK         0.0849 
     68 H68        15.2279  -27.7001  -46.6499 H         1 UNK         0.0849 
     69 H69        14.1831  -29.0139  -43.1176 H         1 UNK         0.0865 
     70 H70        14.7500  -29.4472  -44.7076 H         1 UNK         0.0865 
     71 H71        17.0249  -30.1875  -44.9376 H         1 UNK         0.1346 
     72 H72        19.7801  -29.7312  -41.6723 H         1 UNK         0.1412 
     73 H73        15.9197  -27.9107  -41.4782 H         1 UNK         0.1426 
     74 H74        19.0097  -28.7640  -39.5819 H         1 UNK         0.0716 
     75 H75        17.3694  -28.1917  -39.4396 H         1 UNK         0.0716 
     76 H76        20.9507  -27.5359  -40.2700 H         1 UNK         0.0695 
     77 H77        21.1089  -25.8021  -40.2609 H         1 UNK         0.0695 
     78 H78        20.3574  -27.5459  -42.6541 H         1 UNK         0.0983 
     79 H79        19.7919  -24.7741  -42.3580 H         1 UNK         0.3095 
     80 H80        18.4916  -23.8967  -43.9295 H         1 UNK         0.0454 
     81 H81        20.3767  -23.7850  -46.3636 H         1 UNK         0.0851 
     82 H82        20.5835  -22.8881  -44.8649 H         1 UNK         0.0851 
     83 H83        19.2210  -22.5318  -45.9148 H         1 UNK         0.0851 
     84 H84        18.3558  -25.8006  -46.1514 H         1 UNK         0.2976 
     85 H85        22.4338  -24.7395  -42.7683 H         1 UNK         0.3116 
     86 H86        24.5995  -24.3790  -43.1200 H         1 UNK         0.0646 
     87 H87        24.4980  -27.0768  -44.5882 H         1 UNK         0.0847 
     88 H88        25.8067  -25.9026  -44.7101 H         1 UNK         0.0847 
     89 H89        24.1998  -25.4884  -45.2735 H         1 UNK         0.0847 
     90 H90        25.7233  -27.6447  -43.0675 H         1 UNK         0.3040 
     91 H91        27.2739  -27.2705  -40.6424 H         1 UNK         0.1015 
     92 H92        28.1565  -28.5697  -42.5721 H         1 UNK         0.0786 
     93 H93        26.8399  -29.7339  -42.4249 H         1 UNK         0.0786 
     94 H94        28.0466  -29.5963  -41.1534 H         1 UNK         0.0786 
     95 H95        24.1050  -28.4995  -41.3145 H         1 UNK         0.3172 
     96 H96        22.4566  -29.3562  -40.2095 H         1 UNK         0.0595 
     97 H97        23.9389  -28.6823  -37.6149 H         1 UNK         0.0839 
     98 H98        22.2278  -29.0468  -37.7680 H         1 UNK         0.0839 
     99 H99        22.8807  -27.5951  -38.5107 H         1 UNK         0.0839 
    100 H100       25.4265  -30.5981  -38.6673 H         1 UNK         0.2998 
    101 H101       24.3789  -33.1195  -37.8385 H         1 UNK         0.0822 
    102 H102       26.4696  -32.1521  -36.9111 H         1 UNK         0.0787 
    103 H103       26.7977  -33.7347  -37.5978 H         1 UNK         0.0787 
    104 H104       27.2632  -32.2856  -38.4802 H         1 UNK         0.0787 
    105 H105       25.6610  -32.0376  -40.9265 H         1 UNK         0.3055 
    106 H106       26.0151  -34.5702  -42.2008 H         1 UNK         0.1106 
    107 H107       26.0306  -33.1884  -44.2849 H         1 UNK         0.0828 
    108 H108       27.0318  -32.4538  -43.0451 H         1 UNK         0.0828 
    109 H109       25.4292  -31.7995  -43.3919 H         1 UNK         0.0828 
    110 H110       23.1185  -32.7783  -41.4309 H         1 UNK         0.2931 
    111 H111       21.4364  -34.1861  -43.3847 H         1 UNK         0.0412 
    112 H112       22.7572  -35.1926  -40.4058 H         1 UNK         0.3472 
    113 H113       21.4575  -36.2757  -39.9705 H         1 UNK         0.3472 
    114 H114       19.5857  -32.8319  -42.4268 H         1 UNK         0.0970 
    115 H115       20.6605  -32.1550  -41.2376 H         1 UNK         0.0970 
    116 H116       19.7441  -30.3026  -45.1379 H         1 UNK         0.0612 
    117 H117       19.0596  -31.8013  -44.5594 H         1 UNK         0.0612 
@<TRIPOS>BOND
     1    1    2 1    
     2    1   62 1    
     3    1   63 1    
     4    1   64 1    
     5    2    3 2    
     6    2    4 am   BACKBONE|DICT|INTERRES
     7    4    5 1    
     8    4   65 1    
     9    5    6 1    
    10    5   25 1    
    11    5   66 1    
    12    6    7 1    
    13    6   67 1    
    14    6   68 1    
    15    7    8 1    
    16    8    9 1    
    17    8   69 1    
    18    8   70 1    
    19    9   10 ar   
    20    9   14 ar   
    21   10   11 ar   
    22   10   71 1    
    23   11   12 ar   
    24   11   61 1    
    25   12   13 ar   
    26   12   72 1    
    27   13   14 ar   
    28   13   15 1    
    29   14   73 1    
    30   15   16 1    
    31   15   74 1    
    32   15   75 1    
    33   16   17 1    
    34   17   18 1    
    35   17   76 1    
    36   17   77 1    
    37   18   19 1    
    38   18   27 1    
    39   18   78 1    
    40   19   20 am   BACKBONE|DICT|INTERRES
    41   19   79 1    
    42   20   21 2    
    43   20   22 1    
    44   22   23 1    
    45   22   24 1    
    46   22   80 1    
    47   23   81 1    
    48   23   82 1    
    49   23   83 1    
    50   24   25 am   BACKBONE|DICT|INTERRES
    51   24   84 1    
    52   25   26 2    
    53   27   28 2    
    54   27   29 am   BACKBONE|DICT|INTERRES
    55   29   30 1    
    56   29   85 1    
    57   30   31 1    
    58   30   32 1    
    59   30   86 1    
    60   31   87 1    
    61   31   88 1    
    62   31   89 1    
    63   32   33 2    
    64   32   34 am   BACKBONE|DICT|INTERRES
    65   34   35 1    
    66   34   90 1    
    67   35   36 1    
    68   35   37 1    
    69   35   91 1    
    70   36   92 1    
    71   36   93 1    
    72   36   94 1    
    73   37   38 2    
    74   37   39 am   BACKBONE|DICT|INTERRES
    75   39   40 1    
    76   39   95 1    
    77   40   41 1    
    78   40   42 1    
    79   40   96 1    
    80   41   97 1    
    81   41   98 1    
    82   41   99 1    
    83   42   43 2    
    84   42   44 am   BACKBONE|DICT|INTERRES
    85   44   45 1    
    86   44  100 1    
    87   45   46 1    
    88   45   47 1    
    89   45  101 1    
    90   46  102 1    
    91   46  103 1    
    92   46  104 1    
    93   47   48 2    
    94   47   49 am   BACKBONE|DICT|INTERRES
    95   49   50 1    
    96   49  105 1    
    97   50   51 1    
    98   50   52 1    
    99   50  106 1    
   100   51  107 1    
   101   51  108 1    
   102   51  109 1    
   103   52   53 2    
   104   52   54 am   BACKBONE|DICT|INTERRES
   105   54   55 1    
   106   54  110 1    
   107   55   56 1    
   108   55   59 1    
   109   55  111 1    
   110   56   57 am   BACKBONE|DICT|INTERRES
   111   56   58 2    
   112   57  112 1    
   113   57  113 1    
   114   59   60 1    
   115   59  114 1    
   116   59  115 1    
   117   60   61 1    
   118   61  116 1    
   119   61  117 1    
@<TRIPOS>SUBSTRUCTURE
     1 UNK         1 GROUP             0       ****    0 ROOT    
