@<TRIPOS>MOLECULE
3R8
117   119    1
SMALL
USER_CHARGES


@<TRIPOS>ATOM
      1 CA         16.8093  -24.7792  -47.4803 C.3       0 UNK        -0.2013 
      2 C          15.9362  -24.0796  -46.4438 C.2       0 UNK         0.4866 
      3 O          15.3996  -23.0123  -46.7338 O.2       0 UNK        -0.5176 
      4 N          15.7596  -24.6160  -45.2290 N.am      1 UNK        -0.4884 
      5 CA         16.3302  -25.8645  -44.6967 C.3       1 UNK         0.0853 
      6 C6         15.2289  -26.9353  -44.4670 C.3       10 UNK        -0.0849 
      7 S7         14.6556  -27.6231  -46.0646 S.3       10 UNK        -0.2776 
      8 C8         15.3146  -29.3308  -46.0934 C.3       10 UNK         0.0316 
      9 C9         16.7165  -29.4495  -45.5087 C.ar      10 UNK        -0.0863 
     10 C10        16.9029  -30.1102  -44.2902 C.ar      10 UNK        -0.1009 
     11 C11        18.1632  -30.1563  -43.6909 C.ar      10 UNK        -0.0712 
     12 C12        19.2422  -29.5405  -44.3299 C.ar      10 UNK        -0.0894 
     13 C13        19.0772  -28.8828  -45.5508 C.ar      10 UNK        -0.0745 
     14 C14        17.8126  -28.8614  -46.1495 C.ar      10 UNK        -0.0972 
     15 C15        20.2522  -28.1593  -46.1958 C.3       10 UNK         0.0209 
     16 S16        20.0167  -26.3564  -46.0994 S.3       10 UNK        -0.2568 
     17 C17        21.6036  -25.7081  -45.4494 C.3       10 UNK        -0.0983 
     18 CA         21.5864  -25.2996  -43.9445 C.3       3 UNK         0.0876 
     19 N          20.2796  -24.7763  -43.5326 N.am      3 UNK        -0.4424 
     20 C          19.9399  -24.2490  -42.3492 C.2       2 UNK         0.4918 
     21 O          20.7343  -24.0700  -41.4262 O.2       2 UNK        -0.4875 
     22 CA         18.4604  -23.8490  -42.1609 C.3       2 UNK         0.0481 
     23 CB         18.3291  -22.3224  -42.0335 C.3       2 UNK        -0.1831 
     24 N          17.5721  -24.3134  -43.2360 N.am      2 UNK        -0.4498 
     25 C          17.1863  -25.5840  -43.4398 C.2       1 UNK         0.5027 
     26 O          17.5265  -26.5114  -42.7049 O.2       1 UNK        -0.4969 
     27 C          22.1197  -26.4334  -43.0446 C.2       3 UNK         0.5005 
     28 O          23.3374  -26.5531  -42.8942 O.2       3 UNK        -0.5279 
     29 N          21.2176  -27.2562  -42.4836 N.am      4 UNK        -0.4463 
     30 CA         21.4732  -28.3542  -41.5333 C.3       4 UNK         0.0283 
     31 CB         21.9811  -27.7929  -40.1897 C.3       4 UNK        -0.1875 
     32 C          22.3901  -29.4857  -42.0480 C.2       4 UNK         0.4949 
     33 O          22.7586  -30.3610  -41.2636 O.2       4 UNK        -0.5039 
     34 N          22.7473  -29.4490  -43.3413 N.am      5 UNK        -0.4663 
     35 CA         23.6484  -30.3615  -44.0528 C.3       5 UNK         0.0242 
     36 CB         22.9935  -31.7507  -44.2014 C.3       5 UNK        -0.1982 
     37 C          25.0524  -30.4054  -43.4187 C.2       5 UNK         0.5017 
     38 O          25.6381  -31.4801  -43.2976 O.2       5 UNK        -0.5012 
     39 N          25.5399  -29.2317  -42.9819 N.am      6 UNK        -0.4439 
     40 CA         26.7643  -29.0268  -42.1942 C.3       6 UNK         0.0297 
     41 CB         28.0243  -29.3835  -43.0123 C.3       6 UNK        -0.2006 
     42 C          26.7044  -29.7399  -40.8261 C.2       6 UNK         0.4892 
     43 O          27.6893  -30.3411  -40.3948 O.2       6 UNK        -0.5089 
     44 N          25.5283  -29.6550  -40.1860 N.am      7 UNK        -0.4243 
     45 CA         25.1392  -30.2720  -38.9125 C.3       7 UNK         0.0196 
     46 CB         26.0277  -29.7790  -37.7499 C.3       7 UNK        -0.2007 
     47 C          25.0185  -31.8085  -38.9719 C.2       7 UNK         0.5020 
     48 O          25.1042  -32.4610  -37.9303 O.2       7 UNK        -0.5147 
     49 N          24.7942  -32.3675  -40.1700 N.am      8 UNK        -0.4734 
     50 CA         24.5122  -33.7922  -40.3665 C.3       8 UNK         0.0238 
     51 CB         24.9678  -34.2329  -41.7657 C.3       8 UNK        -0.1912 
     52 C          23.0299  -34.1369  -40.1412 C.2       8 UNK         0.5038 
     53 O          22.7370  -35.2952  -39.8402 O.2       8 UNK        -0.5046 
     54 N          22.1258  -33.1538  -40.2774 N.am      9 UNK        -0.4200 
     55 CA         20.7033  -33.2906  -39.9249 C.3       9 UNK         0.0839 
     56 C          20.5062  -33.5102  -38.3994 C.2       9 UNK         0.5513 
     57 N          19.5915  -34.3882  -38.0114 N.am      9 UNK        -0.7519 
     58 O          21.1380  -32.8579  -37.5709 O.2       9 UNK        -0.4960 
     59 C59        19.8676  -32.0741  -40.3959 C.3       10 UNK        -0.0876 
     60 S60        19.7239  -31.9550  -42.2092 S.3       10 UNK        -0.2414 
     61 C61        18.3288  -30.7872  -42.3135 C.3       10 UNK         0.0169 
     62 H62        17.8595  -24.7097  -47.2028 H         1 UNK         0.0903 
     63 H63        16.5374  -25.8279  -47.5923 H         1 UNK         0.0903 
     64 H64        16.6930  -24.3077  -48.4558 H         1 UNK         0.0903 
     65 H65        15.1535  -24.1262  -44.5845 H         1 UNK         0.3096 
     66 H66        17.0530  -26.2822  -45.3962 H         1 UNK         0.1121 
     67 H67        15.5709  -27.7452  -43.8230 H         1 UNK         0.0849 
     68 H68        14.3744  -26.4981  -43.9479 H         1 UNK         0.0849 
     69 H69        14.6198  -29.9774  -45.5552 H         1 UNK         0.0865 
     70 H70        15.3222  -29.6901  -47.1234 H         1 UNK         0.0865 
     71 H71        16.0556  -30.5545  -43.7857 H         1 UNK         0.1346 
     72 H72        20.2099  -29.5633  -43.8612 H         1 UNK         0.1412 
     73 H73        17.6706  -28.3397  -47.0863 H         1 UNK         0.1426 
     74 H74        20.3345  -28.4542  -47.2428 H         1 UNK         0.0716 
     75 H75        21.1905  -28.4461  -45.7206 H         1 UNK         0.0716 
     76 H76        21.8231  -24.8170  -46.0395 H         1 UNK         0.0695 
     77 H77        22.4169  -26.3984  -45.6825 H         1 UNK         0.0695 
     78 H78        22.2953  -24.4781  -43.8193 H         1 UNK         0.0983 
     79 H79        19.5548  -24.8734  -44.2279 H         1 UNK         0.3095 
     80 H80        18.1226  -24.2979  -41.2245 H         1 UNK         0.0454 
     81 H81        18.9419  -21.9433  -41.2143 H         1 UNK         0.0851 
     82 H82        17.3004  -22.0275  -41.8261 H         1 UNK         0.0851 
     83 H83        18.6497  -21.8114  -42.9422 H         1 UNK         0.0851 
     84 H84        17.2596  -23.6155  -43.8968 H         1 UNK         0.2976 
     85 H85        20.2423  -27.0806  -42.6910 H         1 UNK         0.3116 
     86 H86        20.5053  -28.8182  -41.3468 H         1 UNK         0.0646 
     87 H87        22.9775  -27.3597  -40.2806 H         1 UNK         0.0847 
     88 H88        21.3152  -27.0189  -39.8079 H         1 UNK         0.0847 
     89 H89        22.0326  -28.5741  -39.4303 H         1 UNK         0.0847 
     90 H90        22.4350  -28.6473  -43.8683 H         1 UNK         0.3040 
     91 H91        23.7869  -29.9543  -45.0556 H         1 UNK         0.1015 
     92 H92        23.6308  -32.4318  -44.7664 H         1 UNK         0.0786 
     93 H93        22.0439  -31.6818  -44.7322 H         1 UNK         0.0786 
     94 H94        22.7942  -32.2106  -43.2338 H         1 UNK         0.0786 
     95 H95        24.9647  -28.4085  -43.1180 H         1 UNK         0.3172 
     96 H96        26.8091  -27.9587  -41.9760 H         1 UNK         0.0595 
     97 H97        28.0895  -30.4528  -43.2155 H         1 UNK         0.0839 
     98 H98        28.9301  -29.1023  -42.4738 H         1 UNK         0.0839 
     99 H99        28.0401  -28.8584  -43.9672 H         1 UNK         0.0839 
    100 H100       24.7762  -29.1853  -40.6702 H         1 UNK         0.2998 
    101 H101       24.1273  -29.9153  -38.7152 H         1 UNK         0.0822 
    102 H102       25.6259  -30.0994  -36.7879 H         1 UNK         0.0787 
    103 H103       26.0857  -28.6908  -37.7278 H         1 UNK         0.0787 
    104 H104       27.0432  -30.1693  -37.8210 H         1 UNK         0.0787 
    105 H105       24.7188  -31.7656  -40.9804 H         1 UNK         0.3055 
    106 H106       25.0893  -34.3675  -39.6387 H         1 UNK         0.1106 
    107 H107       26.0186  -33.9968  -41.9345 H         1 UNK         0.0828 
    108 H108       24.8531  -35.3104  -41.8898 H         1 UNK         0.0828 
    109 H109       24.3870  -33.7547  -42.5526 H         1 UNK         0.0828 
    110 H110       22.4379  -32.2236  -40.5361 H         1 UNK         0.2931 
    111 H111       20.3270  -34.1756  -40.4427 H         1 UNK         0.0412 
    112 H112       19.4364  -34.5323  -37.0255 H         1 UNK         0.3472 
    113 H113       19.0621  -34.9211  -38.6845 H         1 UNK         0.3472 
    114 H114       18.8549  -32.1351  -39.9914 H         1 UNK         0.0970 
    115 H115       20.2925  -31.1450  -40.0110 H         1 UNK         0.0970 
    116 H116       17.4197  -31.3135  -42.0186 H         1 UNK         0.0612 
    117 H117       18.4683  -29.9854  -41.5878 H         1 UNK         0.0612 
@<TRIPOS>BOND
     1    1    2 1    
     2    1   62 1    
     3    1   63 1    
     4    1   64 1    
     5    2    3 2    
     6    2    4 am   BACKBONE|DICT|INTERRES
     7    4    5 1    
     8    4   65 1    
     9    5    6 1    
    10    5   25 1    
    11    5   66 1    
    12    6    7 1    
    13    6   67 1    
    14    6   68 1    
    15    7    8 1    
    16    8    9 1    
    17    8   69 1    
    18    8   70 1    
    19    9   10 ar   
    20    9   14 ar   
    21   10   11 ar   
    22   10   71 1    
    23   11   12 ar   
    24   11   61 1    
    25   12   13 ar   
    26   12   72 1    
    27   13   14 ar   
    28   13   15 1    
    29   14   73 1    
    30   15   16 1    
    31   15   74 1    
    32   15   75 1    
    33   16   17 1    
    34   17   18 1    
    35   17   76 1    
    36   17   77 1    
    37   18   19 1    
    38   18   27 1    
    39   18   78 1    
    40   19   20 am   BACKBONE|DICT|INTERRES
    41   19   79 1    
    42   20   21 2    
    43   20   22 1    
    44   22   23 1    
    45   22   24 1    
    46   22   80 1    
    47   23   81 1    
    48   23   82 1    
    49   23   83 1    
    50   24   25 am   BACKBONE|DICT|INTERRES
    51   24   84 1    
    52   25   26 2    
    53   27   28 2    
    54   27   29 am   BACKBONE|DICT|INTERRES
    55   29   30 1    
    56   29   85 1    
    57   30   31 1    
    58   30   32 1    
    59   30   86 1    
    60   31   87 1    
    61   31   88 1    
    62   31   89 1    
    63   32   33 2    
    64   32   34 am   BACKBONE|DICT|INTERRES
    65   34   35 1    
    66   34   90 1    
    67   35   36 1    
    68   35   37 1    
    69   35   91 1    
    70   36   92 1    
    71   36   93 1    
    72   36   94 1    
    73   37   38 2    
    74   37   39 am   BACKBONE|DICT|INTERRES
    75   39   40 1    
    76   39   95 1    
    77   40   41 1    
    78   40   42 1    
    79   40   96 1    
    80   41   97 1    
    81   41   98 1    
    82   41   99 1    
    83   42   43 2    
    84   42   44 am   BACKBONE|DICT|INTERRES
    85   44   45 1    
    86   44  100 1    
    87   45   46 1    
    88   45   47 1    
    89   45  101 1    
    90   46  102 1    
    91   46  103 1    
    92   46  104 1    
    93   47   48 2    
    94   47   49 am   BACKBONE|DICT|INTERRES
    95   49   50 1    
    96   49  105 1    
    97   50   51 1    
    98   50   52 1    
    99   50  106 1    
   100   51  107 1    
   101   51  108 1    
   102   51  109 1    
   103   52   53 2    
   104   52   54 am   BACKBONE|DICT|INTERRES
   105   54   55 1    
   106   54  110 1    
   107   55   56 1    
   108   55   59 1    
   109   55  111 1    
   110   56   57 am   BACKBONE|DICT|INTERRES
   111   56   58 2    
   112   57  112 1    
   113   57  113 1    
   114   59   60 1    
   115   59  114 1    
   116   59  115 1    
   117   60   61 1    
   118   61  116 1    
   119   61  117 1    
@<TRIPOS>SUBSTRUCTURE
     1 UNK         1 GROUP             0       ****    0 ROOT    
