@<TRIPOS>MOLECULE
3R8
117   119    1
SMALL
USER_CHARGES


@<TRIPOS>ATOM
      1 CA         19.7232  -23.7352  -39.8831 C.3       0 UNK        -0.2013 
      2 C          19.0217  -24.0853  -41.1873 C.2       0 UNK         0.4866 
      3 O          18.0711  -23.3980  -41.5623 O.2       0 UNK        -0.5176 
      4 N          19.4821  -25.1340  -41.8793 N.am      1 UNK        -0.4884 
      5 CA         18.9668  -25.5649  -43.1814 C.3       1 UNK         0.0853 
      6 C6         18.4551  -27.0255  -43.1526 C.3       10 UNK        -0.0849 
      7 S7         16.7955  -27.1579  -42.4106 S.3       10 UNK        -0.2776 
      8 C8         16.7291  -28.9108  -41.8943 C.3       10 UNK         0.0316 
      9 C9         17.2320  -29.9002  -42.9438 C.ar      10 UNK        -0.0863 
     10 C10        18.0859  -30.9367  -42.5533 C.ar      10 UNK        -0.1009 
     11 C11        18.5840  -31.8448  -43.4908 C.ar      10 UNK        -0.0712 
     12 C12        18.2193  -31.7116  -44.8342 C.ar      10 UNK        -0.0894 
     13 C13        17.3858  -30.6647  -45.2455 C.ar      10 UNK        -0.0745 
     14 C14        16.8680  -29.7844  -44.2912 C.ar      10 UNK        -0.0972 
     15 C15        17.1042  -30.4449  -46.7289 C.3       10 UNK         0.0209 
     16 S16        18.0859  -29.0660  -47.4317 S.3       10 UNK        -0.2568 
     17 C17        19.7760  -29.5457  -46.9376 C.3       10 UNK        -0.0983 
     18 CA         20.9111  -28.5217  -47.2225 C.3       3 UNK         0.0876 
     19 N          20.5120  -27.1538  -46.8831 N.am      3 UNK        -0.4424 
     20 C          21.2330  -26.0478  -47.1070 C.2       2 UNK         0.4918 
     21 O          22.3052  -26.0383  -47.7115 O.2       2 UNK        -0.4875 
     22 CA         20.6710  -24.7285  -46.5418 C.3       2 UNK         0.0481 
     23 CB         19.9600  -23.9340  -47.6488 C.3       2 UNK        -0.1831 
     24 N          19.7545  -24.9037  -45.4060 N.am      2 UNK        -0.4498 
     25 C          20.0926  -25.4240  -44.2161 C.2       1 UNK         0.5027 
     26 O          21.2207  -25.8412  -43.9502 O.2       1 UNK        -0.4969 
     27 C          22.1392  -29.0027  -46.4168 C.2       3 UNK         0.5005 
     28 O          22.8563  -29.8948  -46.8737 O.2       3 UNK        -0.5279 
     29 N          22.2589  -28.5067  -45.1787 N.am      4 UNK        -0.4463 
     30 CA         22.7768  -29.2741  -44.0536 C.3       4 UNK         0.0283 
     31 CB         21.6721  -29.2860  -42.9785 C.3       4 UNK        -0.1875 
     32 C          24.0438  -28.6755  -43.4454 C.2       4 UNK         0.4949 
     33 O          24.3270  -27.4866  -43.6026 O.2       4 UNK        -0.5039 
     34 N          24.7197  -29.5165  -42.6538 N.am      5 UNK        -0.4663 
     35 CA         25.5332  -29.0839  -41.5224 C.3       5 UNK         0.0242 
     36 CB         26.4738  -30.2247  -41.1009 C.3       5 UNK        -0.1982 
     37 C          24.5615  -28.7165  -40.3900 C.2       5 UNK         0.5017 
     38 O          23.8015  -29.5891  -39.9502 O.2       5 UNK        -0.5012 
     39 N          24.5535  -27.4320  -40.0037 N.am      6 UNK        -0.4439 
     40 CA         23.5873  -26.7955  -39.1007 C.3       6 UNK         0.0297 
     41 CB         23.7986  -27.2810  -37.6471 C.3       6 UNK        -0.2006 
     42 C          22.1524  -26.9793  -39.6346 C.2       6 UNK         0.4892 
     43 O          21.8309  -26.4429  -40.6949 O.2       6 UNK        -0.5089 
     44 N          21.3384  -27.7610  -38.9219 N.am      7 UNK        -0.4243 
     45 CA         20.0492  -28.2772  -39.3786 C.3       7 UNK         0.0196 
     46 CB         18.9167  -27.4952  -38.6865 C.3       7 UNK        -0.2007 
     47 C          19.9665  -29.7931  -39.1198 C.2       7 UNK         0.5020 
     48 O          18.8627  -30.3247  -39.0001 O.2       7 UNK        -0.5147 
     49 N          21.1251  -30.4593  -38.9980 N.am      8 UNK        -0.4734 
     50 CA         21.2348  -31.8573  -38.5736 C.3       8 UNK         0.0238 
     51 CB         22.2068  -31.9336  -37.3837 C.3       8 UNK        -0.1912 
     52 C          21.7079  -32.7929  -39.6938 C.2       8 UNK         0.5038 
     53 O          21.3498  -33.9705  -39.6640 O.2       8 UNK        -0.5046 
     54 N          22.5159  -32.2760  -40.6319 N.am      9 UNK        -0.4200 
     55 CA         23.2037  -33.0480  -41.6878 C.3       9 UNK         0.0839 
     56 C          24.3270  -33.9908  -41.1523 C.2       9 UNK         0.5513 
     57 N          24.8339  -33.7925  -39.9409 N.am      9 UNK        -0.7519 
     58 O          24.7750  -34.8942  -41.8536 O.2       9 UNK        -0.4960 
     59 C59        22.2396  -33.7661  -42.6838 C.3       10 UNK        -0.0876 
     60 S60        21.2291  -32.5962  -43.6465 S.3       10 UNK        -0.2414 
     61 C61        19.5449  -32.9433  -43.0557 C.3       10 UNK         0.0169 
     62 H62        20.5699  -24.3885  -39.6819 H         1 UNK         0.0903 
     63 H63        20.0912  -22.7102  -39.9195 H         1 UNK         0.0903 
     64 H64        19.0265  -23.8171  -39.0493 H         1 UNK         0.0903 
     65 H65        20.3192  -25.6221  -41.5620 H         1 UNK         0.3096 
     66 H66        18.1458  -24.9186  -43.5003 H         1 UNK         0.1121 
     67 H67        19.1503  -27.6717  -42.6166 H         1 UNK         0.0849 
     68 H68        18.3814  -27.4330  -44.1629 H         1 UNK         0.0849 
     69 H69        15.6995  -29.1633  -41.6385 H         1 UNK         0.0865 
     70 H70        17.3048  -29.0142  -40.9745 H         1 UNK         0.0865 
     71 H71        18.3754  -31.0327  -41.5161 H         1 UNK         0.1346 
     72 H72        18.6301  -32.3938  -45.5659 H         1 UNK         0.1412 
     73 H73        16.2225  -28.9763  -44.6074 H         1 UNK         0.1426 
     74 H74        16.0434  -30.2346  -46.8718 H         1 UNK         0.0716 
     75 H75        17.3142  -31.3534  -47.2954 H         1 UNK         0.0716 
     76 H76        20.0076  -30.5046  -47.4057 H         1 UNK         0.0695 
     77 H77        19.7367  -29.7361  -45.8641 H         1 UNK         0.0695 
     78 H78        21.1629  -28.5490  -48.2847 H         1 UNK         0.0983 
     79 H79        19.6158  -27.0606  -46.4299 H         1 UNK         0.3095 
     80 H80        21.5204  -24.1384  -46.1914 H         1 UNK         0.0454 
     81 H81        19.6360  -22.9561  -47.2921 H         1 UNK         0.0851 
     82 H82        19.0843  -24.4623  -48.0278 H         1 UNK         0.0851 
     83 H83        20.6267  -23.7615  -48.4950 H         1 UNK         0.0851 
     84 H84        18.8033  -24.5943  -45.5502 H         1 UNK         0.2976 
     85 H85        21.7557  -27.6629  -44.9284 H         1 UNK         0.3116 
     86 H86        22.9890  -30.3014  -44.3575 H         1 UNK         0.0646 
     87 H87        20.7280  -29.6582  -43.3765 H         1 UNK         0.0847 
     88 H88        21.4928  -28.2866  -42.5821 H         1 UNK         0.0847 
     89 H89        21.9380  -29.9229  -42.1359 H         1 UNK         0.0847 
     90 H90        24.4018  -30.4724  -42.6124 H         1 UNK         0.3040 
     91 H91        26.1330  -28.2159  -41.8060 H         1 UNK         0.1015 
     92 H92        27.1436  -30.5060  -41.9137 H         1 UNK         0.0786 
     93 H93        25.9257  -31.1168  -40.7958 H         1 UNK         0.0786 
     94 H94        27.0961  -29.9221  -40.2578 H         1 UNK         0.0786 
     95 H95        25.1786  -26.7944  -40.4775 H         1 UNK         0.3172 
     96 H96        23.7891  -25.7236  -39.1261 H         1 UNK         0.0595 
     97 H97        23.6636  -28.3578  -37.5387 H         1 UNK         0.0839 
     98 H98        23.1101  -26.7857  -36.9610 H         1 UNK         0.0839 
     99 H99        24.8066  -27.0466  -37.3047 H         1 UNK         0.0839 
    100 H100       21.6846  -28.1462  -38.0539 H         1 UNK         0.2998 
    101 H101       19.9515  -28.1479  -40.4574 H         1 UNK         0.0822 
    102 H102       18.9843  -26.4300  -38.9031 H         1 UNK         0.0787 
    103 H103       17.9357  -27.8273  -39.0262 H         1 UNK         0.0787 
    104 H104       18.9471  -27.6198  -37.6036 H         1 UNK         0.0787 
    105 H105       21.9969  -29.9721  -39.1851 H         1 UNK         0.3055 
    106 H106       20.2650  -32.2317  -38.2373 H         1 UNK         0.1106 
    107 H107       23.1958  -31.5524  -37.6418 H         1 UNK         0.0828 
    108 H108       21.8378  -31.3561  -36.5360 H         1 UNK         0.0828 
    109 H109       22.3302  -32.9626  -37.0424 H         1 UNK         0.0828 
    110 H110       22.8054  -31.3110  -40.5302 H         1 UNK         0.2931 
    111 H111       23.7494  -32.3026  -42.2663 H         1 UNK         0.0412 
    112 H112       24.4938  -33.0473  -39.3560 H         1 UNK         0.3472 
    113 H113       25.5669  -34.4001  -39.6097 H         1 UNK         0.3472 
    114 H114       21.6031  -34.4890  -42.1729 H         1 UNK         0.0970 
    115 H115       22.8071  -34.3445  -43.4147 H         1 UNK         0.0970 
    116 H116       19.2125  -33.9050  -43.4486 H         1 UNK         0.0612 
    117 H117       19.5551  -33.0335  -41.9684 H         1 UNK         0.0612 
@<TRIPOS>BOND
     1    1    2 1    
     2    1   62 1    
     3    1   63 1    
     4    1   64 1    
     5    2    3 2    
     6    2    4 am   BACKBONE|DICT|INTERRES
     7    4    5 1    
     8    4   65 1    
     9    5    6 1    
    10    5   25 1    
    11    5   66 1    
    12    6    7 1    
    13    6   67 1    
    14    6   68 1    
    15    7    8 1    
    16    8    9 1    
    17    8   69 1    
    18    8   70 1    
    19    9   10 ar   
    20    9   14 ar   
    21   10   11 ar   
    22   10   71 1    
    23   11   12 ar   
    24   11   61 1    
    25   12   13 ar   
    26   12   72 1    
    27   13   14 ar   
    28   13   15 1    
    29   14   73 1    
    30   15   16 1    
    31   15   74 1    
    32   15   75 1    
    33   16   17 1    
    34   17   18 1    
    35   17   76 1    
    36   17   77 1    
    37   18   19 1    
    38   18   27 1    
    39   18   78 1    
    40   19   20 am   BACKBONE|DICT|INTERRES
    41   19   79 1    
    42   20   21 2    
    43   20   22 1    
    44   22   23 1    
    45   22   24 1    
    46   22   80 1    
    47   23   81 1    
    48   23   82 1    
    49   23   83 1    
    50   24   25 am   BACKBONE|DICT|INTERRES
    51   24   84 1    
    52   25   26 2    
    53   27   28 2    
    54   27   29 am   BACKBONE|DICT|INTERRES
    55   29   30 1    
    56   29   85 1    
    57   30   31 1    
    58   30   32 1    
    59   30   86 1    
    60   31   87 1    
    61   31   88 1    
    62   31   89 1    
    63   32   33 2    
    64   32   34 am   BACKBONE|DICT|INTERRES
    65   34   35 1    
    66   34   90 1    
    67   35   36 1    
    68   35   37 1    
    69   35   91 1    
    70   36   92 1    
    71   36   93 1    
    72   36   94 1    
    73   37   38 2    
    74   37   39 am   BACKBONE|DICT|INTERRES
    75   39   40 1    
    76   39   95 1    
    77   40   41 1    
    78   40   42 1    
    79   40   96 1    
    80   41   97 1    
    81   41   98 1    
    82   41   99 1    
    83   42   43 2    
    84   42   44 am   BACKBONE|DICT|INTERRES
    85   44   45 1    
    86   44  100 1    
    87   45   46 1    
    88   45   47 1    
    89   45  101 1    
    90   46  102 1    
    91   46  103 1    
    92   46  104 1    
    93   47   48 2    
    94   47   49 am   BACKBONE|DICT|INTERRES
    95   49   50 1    
    96   49  105 1    
    97   50   51 1    
    98   50   52 1    
    99   50  106 1    
   100   51  107 1    
   101   51  108 1    
   102   51  109 1    
   103   52   53 2    
   104   52   54 am   BACKBONE|DICT|INTERRES
   105   54   55 1    
   106   54  110 1    
   107   55   56 1    
   108   55   59 1    
   109   55  111 1    
   110   56   57 am   BACKBONE|DICT|INTERRES
   111   56   58 2    
   112   57  112 1    
   113   57  113 1    
   114   59   60 1    
   115   59  114 1    
   116   59  115 1    
   117   60   61 1    
   118   61  116 1    
   119   61  117 1    
@<TRIPOS>SUBSTRUCTURE
     1 UNK         1 GROUP             0       ****    0 ROOT    
