@<TRIPOS>MOLECULE
3R8
117   119    1
SMALL
USER_CHARGES


@<TRIPOS>ATOM
      1 CA         15.9919  -24.6165  -48.6099 C.3       0 UNK        -0.2013 
      2 C          17.3104  -25.1265  -48.0476 C.2       0 UNK         0.4866 
      3 O          18.3598  -24.5434  -48.3222 O.2       0 UNK        -0.5176 
      4 N          17.2677  -26.2148  -47.2683 N.am      1 UNK        -0.4884 
      5 CA         18.4270  -26.7998  -46.5875 C.3       1 UNK         0.0853 
      6 C6         18.1292  -28.2536  -46.1319 C.3       10 UNK        -0.0849 
      7 S7         19.6048  -29.3296  -46.0983 S.3       10 UNK        -0.2776 
      8 C8         20.2718  -29.1011  -44.4192 C.3       10 UNK         0.0316 
      9 C9         19.4258  -29.7447  -43.3310 C.ar      10 UNK        -0.0863 
     10 C10        19.7323  -31.0304  -42.8820 C.ar      10 UNK        -0.1009 
     11 C11        19.0307  -31.6037  -41.8192 C.ar      10 UNK        -0.0712 
     12 C12        18.0071  -30.8801  -41.2011 C.ar      10 UNK        -0.0894 
     13 C13        17.6899  -29.5894  -41.6388 C.ar      10 UNK        -0.0745 
     14 C14        18.3978  -29.0314  -42.7075 C.ar      10 UNK        -0.0972 
     15 C15        16.5910  -28.7948  -40.9479 C.3       10 UNK         0.0209 
     16 S16        17.2589  -27.7179  -39.6369 S.3       10 UNK        -0.2568 
     17 C17        17.8074  -26.2493  -40.5742 C.3       10 UNK        -0.0983 
     18 CA         19.3256  -26.2538  -40.8948 C.3       3 UNK         0.0876 
     19 N          19.5905  -25.5703  -42.1705 N.am      3 UNK        -0.4424 
     20 C          20.7428  -25.5902  -42.8500 C.2       2 UNK         0.4918 
     21 O          21.7524  -26.1756  -42.4549 O.2       2 UNK        -0.4875 
     22 CA         20.7599  -24.8441  -44.1976 C.3       2 UNK         0.0481 
     23 CB         22.1899  -24.4511  -44.6108 C.3       2 UNK        -0.1831 
     24 N          20.1556  -25.6388  -45.2710 N.am      2 UNK        -0.4498 
     25 C          18.8475  -25.9009  -45.4042 C.2       1 UNK         0.5027 
     26 O          17.9850  -25.4789  -44.6284 O.2       1 UNK        -0.4969 
     27 C          20.1838  -25.7420  -39.7128 C.2       3 UNK         0.5005 
     28 O          20.3226  -26.4486  -38.7142 O.2       3 UNK        -0.5279 
     29 N          20.7851  -24.5503  -39.8540 N.am      4 UNK        -0.4463 
     30 CA         21.8025  -24.0187  -38.9419 C.3       4 UNK         0.0283 
     31 CB         22.0935  -22.5525  -39.2996 C.3       4 UNK        -0.1875 
     32 C          23.1055  -24.8435  -38.9479 C.2       4 UNK         0.4949 
     33 O          23.7617  -24.9341  -37.9102 O.2       4 UNK        -0.5039 
     34 N          23.4473  -25.4324  -40.1029 N.am      5 UNK        -0.4663 
     35 CA         24.5655  -26.3637  -40.2635 C.3       5 UNK         0.0242 
     36 CB         25.2502  -26.1136  -41.6185 C.3       5 UNK        -0.1982 
     37 C          24.0823  -27.8181  -40.1627 C.2       5 UNK         0.5017 
     38 O          24.7243  -28.6219  -39.4871 O.2       5 UNK        -0.5012 
     39 N          22.9643  -28.1190  -40.8432 N.am      6 UNK        -0.4439 
     40 CA         22.2834  -29.4175  -40.9337 C.3       6 UNK         0.0297 
     41 CB         21.6900  -29.8299  -39.5712 C.3       6 UNK        -0.2006 
     42 C          23.1354  -30.5342  -41.5746 C.2       6 UNK         0.4892 
     43 O          22.9195  -31.7113  -41.2875 O.2       6 UNK        -0.5089 
     44 N          24.0812  -30.1474  -42.4434 N.am      7 UNK        -0.4243 
     45 CA         25.1398  -30.9980  -43.0015 C.3       7 UNK         0.0196 
     46 CB         26.0853  -30.1218  -43.8397 C.3       7 UNK        -0.2007 
     47 C          24.6701  -32.2143  -43.8219 C.2       7 UNK         0.5020 
     48 O          25.4270  -33.1774  -43.9458 O.2       7 UNK        -0.5147 
     49 N          23.4502  -32.1599  -44.3728 N.am      8 UNK        -0.4734 
     50 CA         22.8541  -33.2438  -45.1620 C.3       8 UNK         0.0238 
     51 CB         21.7145  -32.6778  -46.0276 C.3       8 UNK        -0.1912 
     52 C          22.3618  -34.4405  -44.3222 C.2       8 UNK         0.5038 
     53 O          22.0905  -35.4932  -44.9021 O.2       8 UNK        -0.5046 
     54 N          22.2442  -34.2753  -42.9990 N.am      9 UNK        -0.4200 
     55 CA         21.7612  -35.2945  -42.0576 C.3       9 UNK         0.0839 
     56 C          22.3192  -35.0391  -40.6297 C.2       9 UNK         0.5513 
     57 N          21.5299  -35.1933  -39.5745 N.am      9 UNK        -0.7519 
     58 O          23.5047  -34.7612  -40.4651 O.2       9 UNK        -0.4960 
     59 C59        20.2318  -35.6161  -42.1831 C.3       10 UNK        -0.0876 
     60 S60        19.1018  -34.2398  -42.6079 S.3       10 UNK        -0.2414 
     61 C61        19.4224  -32.9880  -41.3280 C.3       10 UNK         0.0169 
     62 H62        15.1490  -25.2329  -48.2978 H         1 UNK         0.0903 
     63 H63        15.8096  -23.5968  -48.2717 H         1 UNK         0.0903 
     64 H64        16.0245  -24.6137  -49.6991 H         1 UNK         0.0903 
     65 H65        16.3731  -26.6292  -47.0475 H         1 UNK         0.3096 
     66 H66        19.2427  -26.8248  -47.3143 H         1 UNK         0.1121 
     67 H67        17.5865  -28.2893  -45.1883 H         1 UNK         0.0849 
     68 H68        17.4567  -28.7248  -46.8508 H         1 UNK         0.0849 
     69 H69        21.2772  -29.5233  -44.3968 H         1 UNK         0.0865 
     70 H70        20.4044  -28.0457  -44.2053 H         1 UNK         0.0865 
     71 H71        20.5400  -31.5850  -43.3354 H         1 UNK         0.1346 
     72 H72        17.4682  -31.3132  -40.3695 H         1 UNK         0.1412 
     73 H73        18.1674  -28.0254  -43.0282 H         1 UNK         0.1426 
     74 H74        15.8702  -29.4792  -40.4980 H         1 UNK         0.0716 
     75 H75        16.0294  -28.2064  -41.6748 H         1 UNK         0.0716 
     76 H76        17.5266  -25.3529  -40.0179 H         1 UNK         0.0695 
     77 H77        17.2225  -26.2066  -41.4943 H         1 UNK         0.0695 
     78 H78        19.6416  -27.2881  -41.0414 H         1 UNK         0.0983 
     79 H79        18.7979  -25.1207  -42.6135 H         1 UNK         0.3095 
     80 H80        20.1840  -23.9238  -44.0796 H         1 UNK         0.0454 
     81 H81        22.6725  -23.8573  -43.8333 H         1 UNK         0.0851 
     82 H82        22.8182  -25.3253  -44.7873 H         1 UNK         0.0851 
     83 H83        22.1892  -23.8501  -45.5202 H         1 UNK         0.0851 
     84 H84        20.7973  -26.0318  -45.9450 H         1 UNK         0.2976 
     85 H85        20.5945  -24.0167  -40.6893 H         1 UNK         0.3116 
     86 H86        21.3956  -24.0494  -37.9288 H         1 UNK         0.0646 
     87 H87        22.8301  -22.1250  -38.6178 H         1 UNK         0.0847 
     88 H88        21.1952  -21.9391  -39.2273 H         1 UNK         0.0847 
     89 H89        22.4905  -22.4520  -40.3106 H         1 UNK         0.0847 
     90 H90        22.8301  -25.3302  -40.8991 H         1 UNK         0.3040 
     91 H91        25.3055  -26.2018  -39.4760 H         1 UNK         0.1015 
     92 H92        25.6555  -25.1031  -41.6729 H         1 UNK         0.0786 
     93 H93        24.5633  -26.2413  -42.4561 H         1 UNK         0.0786 
     94 H94        26.0819  -26.8035  -41.7688 H         1 UNK         0.0786 
     95 H95        22.5427  -27.3769  -41.3999 H         1 UNK         0.3172 
     96 H96        21.4483  -29.2482  -41.6087 H         1 UNK         0.0595 
     97 H97        21.0598  -29.0427  -39.1582 H         1 UNK         0.0839 
     98 H98        22.4687  -30.0566  -38.8427 H         1 UNK         0.0839 
     99 H99        21.0664  -30.7193  -39.6688 H         1 UNK         0.0839 
    100 H100       24.1624  -29.1587  -42.6286 H         1 UNK         0.2998 
    101 H101       25.7056  -31.3936  -42.1552 H         1 UNK         0.0822 
    102 H102       25.5671  -29.6617  -44.6821 H         1 UNK         0.0787 
    103 H103       26.9085  -30.7112  -44.2464 H         1 UNK         0.0787 
    104 H104       26.5272  -29.3258  -43.2398 H         1 UNK         0.0787 
    105 H105       22.8971  -31.3295  -44.2279 H         1 UNK         0.3055 
    106 H106       23.6216  -33.6308  -45.8365 H         1 UNK         0.1106 
    107 H107       20.8755  -32.3266  -45.4285 H         1 UNK         0.0828 
    108 H108       22.0559  -31.8485  -46.6473 H         1 UNK         0.0828 
    109 H109       21.3255  -33.4420  -46.7017 H         1 UNK         0.0828 
    110 H110       22.5408  -33.4033  -42.5727 H         1 UNK         0.2931 
    111 H111       22.2743  -36.2179  -42.3340 H         1 UNK         0.0412 
    112 H112       21.9160  -35.0481  -38.6546 H         1 UNK         0.3472 
    113 H113       20.5597  -35.4433  -39.6752 H         1 UNK         0.3472 
    114 H114       19.8445  -36.1413  -41.3101 H         1 UNK         0.0970 
    115 H115       20.1152  -36.3374  -42.9934 H         1 UNK         0.0970 
    116 H116       20.4798  -32.9620  -41.0731 H         1 UNK         0.0612 
    117 H117       18.8849  -33.2553  -40.4172 H         1 UNK         0.0612 
@<TRIPOS>BOND
     1    1    2 1    
     2    1   62 1    
     3    1   63 1    
     4    1   64 1    
     5    2    3 2    
     6    2    4 am   BACKBONE|DICT|INTERRES
     7    4    5 1    
     8    4   65 1    
     9    5    6 1    
    10    5   25 1    
    11    5   66 1    
    12    6    7 1    
    13    6   67 1    
    14    6   68 1    
    15    7    8 1    
    16    8    9 1    
    17    8   69 1    
    18    8   70 1    
    19    9   10 ar   
    20    9   14 ar   
    21   10   11 ar   
    22   10   71 1    
    23   11   12 ar   
    24   11   61 1    
    25   12   13 ar   
    26   12   72 1    
    27   13   14 ar   
    28   13   15 1    
    29   14   73 1    
    30   15   16 1    
    31   15   74 1    
    32   15   75 1    
    33   16   17 1    
    34   17   18 1    
    35   17   76 1    
    36   17   77 1    
    37   18   19 1    
    38   18   27 1    
    39   18   78 1    
    40   19   20 am   BACKBONE|DICT|INTERRES
    41   19   79 1    
    42   20   21 2    
    43   20   22 1    
    44   22   23 1    
    45   22   24 1    
    46   22   80 1    
    47   23   81 1    
    48   23   82 1    
    49   23   83 1    
    50   24   25 am   BACKBONE|DICT|INTERRES
    51   24   84 1    
    52   25   26 2    
    53   27   28 2    
    54   27   29 am   BACKBONE|DICT|INTERRES
    55   29   30 1    
    56   29   85 1    
    57   30   31 1    
    58   30   32 1    
    59   30   86 1    
    60   31   87 1    
    61   31   88 1    
    62   31   89 1    
    63   32   33 2    
    64   32   34 am   BACKBONE|DICT|INTERRES
    65   34   35 1    
    66   34   90 1    
    67   35   36 1    
    68   35   37 1    
    69   35   91 1    
    70   36   92 1    
    71   36   93 1    
    72   36   94 1    
    73   37   38 2    
    74   37   39 am   BACKBONE|DICT|INTERRES
    75   39   40 1    
    76   39   95 1    
    77   40   41 1    
    78   40   42 1    
    79   40   96 1    
    80   41   97 1    
    81   41   98 1    
    82   41   99 1    
    83   42   43 2    
    84   42   44 am   BACKBONE|DICT|INTERRES
    85   44   45 1    
    86   44  100 1    
    87   45   46 1    
    88   45   47 1    
    89   45  101 1    
    90   46  102 1    
    91   46  103 1    
    92   46  104 1    
    93   47   48 2    
    94   47   49 am   BACKBONE|DICT|INTERRES
    95   49   50 1    
    96   49  105 1    
    97   50   51 1    
    98   50   52 1    
    99   50  106 1    
   100   51  107 1    
   101   51  108 1    
   102   51  109 1    
   103   52   53 2    
   104   52   54 am   BACKBONE|DICT|INTERRES
   105   54   55 1    
   106   54  110 1    
   107   55   56 1    
   108   55   59 1    
   109   55  111 1    
   110   56   57 am   BACKBONE|DICT|INTERRES
   111   56   58 2    
   112   57  112 1    
   113   57  113 1    
   114   59   60 1    
   115   59  114 1    
   116   59  115 1    
   117   60   61 1    
   118   61  116 1    
   119   61  117 1    
@<TRIPOS>SUBSTRUCTURE
     1 UNK         1 GROUP             0       ****    0 ROOT    
