@<TRIPOS>MOLECULE
3R8
117   119    1
SMALL
USER_CHARGES


@<TRIPOS>ATOM
      1 CA         15.3583  -22.1557  -44.7579 C.3       0 UNK        -0.2013 
      2 C          16.0977  -23.1965  -45.5848 C.2       0 UNK         0.4866 
      3 O          16.6189  -22.8738  -46.6524 O.2       0 UNK        -0.5176 
      4 N          16.1487  -24.4442  -45.1002 N.am      1 UNK        -0.4884 
      5 CA         16.8264  -25.5751  -45.7499 C.3       1 UNK         0.0853 
      6 C6         16.2657  -26.9380  -45.2709 C.3       10 UNK        -0.0849 
      7 S7         16.1835  -27.1361  -43.4541 S.3       10 UNK        -0.2776 
      8 C8         15.8045  -28.9145  -43.3060 C.3       10 UNK         0.0316 
      9 C9         17.0675  -29.7197  -43.0429 C.ar      10 UNK        -0.0863 
     10 C10        17.3561  -30.1854  -41.7575 C.ar      10 UNK        -0.1009 
     11 C11        18.5500  -30.8622  -41.4884 C.ar      10 UNK        -0.0712 
     12 C12        19.4688  -31.0507  -42.5319 C.ar      10 UNK        -0.0894 
     13 C13        19.1772  -30.6231  -43.8309 C.ar      10 UNK        -0.0745 
     14 C14        17.9627  -29.9803  -44.0801 C.ar      10 UNK        -0.0972 
     15 C15        20.1600  -30.8755  -44.9688 C.3       10 UNK         0.0209 
     16 S16        20.4215  -29.4004  -46.0126 S.3       10 UNK        -0.2568 
     17 C17        22.0653  -28.8161  -45.4849 C.3       10 UNK        -0.0983 
     18 CA         22.0659  -27.7388  -44.3737 C.3       3 UNK         0.0876 
     19 N          21.1921  -26.5932  -44.6754 N.am      3 UNK        -0.4424 
     20 C          21.2689  -25.3920  -44.0874 C.2       2 UNK         0.4918 
     21 O          22.0615  -25.1427  -43.1787 O.2       2 UNK        -0.4875 
     22 CA         20.2992  -24.2874  -44.5437 C.3       2 UNK         0.0481 
     23 CB         20.8481  -23.5597  -45.7855 C.3       2 UNK        -0.1831 
     24 N          18.8986  -24.6941  -44.7358 N.am      2 UNK        -0.4498 
     25 C          18.3691  -25.5033  -45.6669 C.2       1 UNK         0.5027 
     26 O          19.0425  -26.1554  -46.4653 O.2       1 UNK        -0.4969 
     27 C          21.8880  -28.3291  -42.9556 C.2       3 UNK         0.5005 
     28 O          22.7160  -29.1383  -42.5300 O.2       3 UNK        -0.5279 
     29 N          20.8748  -27.8551  -42.2165 N.am      4 UNK        -0.4463 
     30 CA         20.7111  -28.0470  -40.7757 C.3       4 UNK         0.0283 
     31 CB         19.3707  -27.4381  -40.3346 C.3       4 UNK        -0.1875 
     32 C          21.8609  -27.4363  -39.9548 C.2       4 UNK         0.4949 
     33 O          22.2182  -27.9973  -38.9205 O.2       4 UNK        -0.5039 
     34 N          22.4458  -26.3270  -40.4368 N.am      5 UNK        -0.4663 
     35 CA         23.6096  -25.6777  -39.8219 C.3       5 UNK         0.0242 
     36 CB         23.7619  -24.2552  -40.3832 C.3       5 UNK        -0.1982 
     37 C          24.9069  -26.4800  -40.0221 C.2       5 UNK         0.5017 
     38 O          25.7823  -26.4411  -39.1576 O.2       5 UNK        -0.5012 
     39 N          24.9919  -27.2116  -41.1422 N.am      6 UNK        -0.4439 
     40 CA         26.0605  -28.1698  -41.4389 C.3       6 UNK         0.0297 
     41 CB         26.1515  -28.3644  -42.9624 C.3       6 UNK        -0.2006 
     42 C          25.8524  -29.5255  -40.7356 C.2       6 UNK         0.4892 
     43 O          26.7921  -30.3193  -40.6828 O.2       6 UNK        -0.5089 
     44 N          24.6321  -29.7648  -40.2299 N.am      7 UNK        -0.4243 
     45 CA         24.1389  -30.9860  -39.5874 C.3       7 UNK         0.0196 
     46 CB         24.8819  -31.2567  -38.2623 C.3       7 UNK        -0.2007 
     47 C          24.1274  -32.2017  -40.5330 C.2       7 UNK         0.5020 
     48 O          24.2834  -33.3361  -40.0782 O.2       7 UNK        -0.5147 
     49 N          23.9053  -31.9636  -41.8334 N.am      8 UNK        -0.4734 
     50 CA         23.8535  -32.9950  -42.8775 C.3       8 UNK         0.0238 
     51 CB         24.3428  -32.3835  -44.2024 C.3       8 UNK        -0.1912 
     52 C          22.4470  -33.6170  -42.9902 C.2       8 UNK         0.5038 
     53 O          21.9126  -33.7475  -44.0922 O.2       8 UNK        -0.5046 
     54 N          21.8555  -33.9439  -41.8369 N.am      9 UNK        -0.4200 
     55 CA         20.4506  -34.3477  -41.6762 C.3       9 UNK         0.0839 
     56 C          20.1592  -35.8406  -42.0016 C.2       9 UNK         0.5513 
     57 N          21.1568  -36.6682  -42.2883 N.am      9 UNK        -0.7519 
     58 O          19.0029  -36.2547  -41.9987 O.2       9 UNK        -0.4960 
     59 C59        19.8997  -33.9530  -40.2769 C.3       10 UNK        -0.0876 
     60 S60        20.3377  -32.2558  -39.7435 S.3       10 UNK        -0.2414 
     61 C61        18.7989  -31.3213  -40.0485 C.3       10 UNK         0.0169 
     62 H62        14.5372  -21.7321  -45.3356 H         1 UNK         0.0903 
     63 H63        14.9451  -22.5796  -43.8428 H         1 UNK         0.0903 
     64 H64        16.0338  -21.3464  -44.4821 H         1 UNK         0.0903 
     65 H65        15.7000  -24.6638  -44.2206 H         1 UNK         0.3096 
     66 H66        16.6030  -25.5077  -46.8176 H         1 UNK         0.1121 
     67 H67        16.8348  -27.7557  -45.7124 H         1 UNK         0.0849 
     68 H68        15.2507  -27.0554  -45.6542 H         1 UNK         0.0849 
     69 H69        15.3061  -29.2771  -44.2063 H         1 UNK         0.0865 
     70 H70        15.0922  -29.0523  -42.4911 H         1 UNK         0.0865 
     71 H71        16.6577  -29.9983  -40.9529 H         1 UNK         0.1346 
     72 H72        20.4188  -31.5264  -42.3452 H         1 UNK         0.1412 
     73 H73        17.7319  -29.6561  -45.0835 H         1 UNK         0.1426 
     74 H74        19.7665  -31.6794  -45.5919 H         1 UNK         0.0716 
     75 H75        21.1161  -31.2286  -44.5828 H         1 UNK         0.0716 
     76 H76        22.5373  -28.3931  -46.3729 H         1 UNK         0.0695 
     77 H77        22.6950  -29.6629  -45.2145 H         1 UNK         0.0695 
     78 H78        23.0811  -27.3357  -44.3599 H         1 UNK         0.0983 
     79 H79        20.4998  -26.7244  -45.4097 H         1 UNK         0.3095 
     80 H80        20.2702  -23.5561  -43.7343 H         1 UNK         0.0454 
     81 H81        20.9227  -24.2214  -46.6490 H         1 UNK         0.0851 
     82 H82        21.8468  -23.1642  -45.5951 H         1 UNK         0.0851 
     83 H83        20.2144  -22.7174  -46.0634 H         1 UNK         0.0851 
     84 H84        18.2376  -24.2431  -44.1187 H         1 UNK         0.2976 
     85 H85        20.2287  -27.2231  -42.6652 H         1 UNK         0.3116 
     86 H86        20.6965  -29.1204  -40.5814 H         1 UNK         0.0646 
     87 H87        18.5377  -27.8408  -40.9090 H         1 UNK         0.0847 
     88 H88        19.3595  -26.3539  -40.4539 H         1 UNK         0.0847 
     89 H89        19.1741  -27.6529  -39.2835 H         1 UNK         0.0847 
     90 H90        22.1117  -25.9266  -41.3082 H         1 UNK         0.3040 
     91 H91        23.4316  -25.6032  -38.7465 H         1 UNK         0.1015 
     92 H92        24.5852  -23.7309  -39.8961 H         1 UNK         0.0786 
     93 H93        22.8601  -23.6648  -40.2200 H         1 UNK         0.0786 
     94 H94        23.9692  -24.2617  -41.4540 H         1 UNK         0.0786 
     95 H95        24.2150  -27.1831  -41.7862 H         1 UNK         0.3172 
     96 H96        27.0104  -27.7587  -41.0908 H         1 UNK         0.0595 
     97 H97        25.2445  -28.8097  -43.3720 H         1 UNK         0.0839 
     98 H98        26.9793  -29.0266  -43.2199 H         1 UNK         0.0839 
     99 H99        26.3247  -27.4184  -43.4755 H         1 UNK         0.0839 
    100 H100       23.9333  -29.0466  -40.3631 H         1 UNK         0.2998 
    101 H101       23.0939  -30.7902  -39.3419 H         1 UNK         0.0822 
    102 H102       24.8639  -30.3812  -37.6132 H         1 UNK         0.0787 
    103 H103       24.4150  -32.0753  -37.7131 H         1 UNK         0.0787 
    104 H104       25.9238  -31.5309  -38.4299 H         1 UNK         0.0787 
    105 H105       23.6991  -31.0111  -42.1183 H         1 UNK         0.3055 
    106 H106       24.5380  -33.8055  -42.6170 H         1 UNK         0.1106 
    107 H107       24.3865  -33.1368  -44.9901 H         1 UNK         0.0828 
    108 H108       25.3438  -31.9639  -44.1007 H         1 UNK         0.0828 
    109 H109       23.6801  -31.5910  -44.5454 H         1 UNK         0.0828 
    110 H110       22.3864  -33.8242  -40.9832 H         1 UNK         0.2931 
    111 H111       19.8699  -33.7902  -42.4119 H         1 UNK         0.0412 
    112 H112       22.1077  -36.3355  -42.2985 H         1 UNK         0.3472 
    113 H113       20.9554  -37.6329  -42.5011 H         1 UNK         0.3472 
    114 H114       18.8150  -34.0711  -40.2521 H         1 UNK         0.0970 
    115 H115       20.2886  -34.6357  -39.5190 H         1 UNK         0.0970 
    116 H116       17.9498  -31.9134  -39.7044 H         1 UNK         0.0612 
    117 H117       18.8262  -30.4346  -39.4140 H         1 UNK         0.0612 
@<TRIPOS>BOND
     1    1    2 1    
     2    1   62 1    
     3    1   63 1    
     4    1   64 1    
     5    2    3 2    
     6    2    4 am   BACKBONE|DICT|INTERRES
     7    4    5 1    
     8    4   65 1    
     9    5    6 1    
    10    5   25 1    
    11    5   66 1    
    12    6    7 1    
    13    6   67 1    
    14    6   68 1    
    15    7    8 1    
    16    8    9 1    
    17    8   69 1    
    18    8   70 1    
    19    9   10 ar   
    20    9   14 ar   
    21   10   11 ar   
    22   10   71 1    
    23   11   12 ar   
    24   11   61 1    
    25   12   13 ar   
    26   12   72 1    
    27   13   14 ar   
    28   13   15 1    
    29   14   73 1    
    30   15   16 1    
    31   15   74 1    
    32   15   75 1    
    33   16   17 1    
    34   17   18 1    
    35   17   76 1    
    36   17   77 1    
    37   18   19 1    
    38   18   27 1    
    39   18   78 1    
    40   19   20 am   BACKBONE|DICT|INTERRES
    41   19   79 1    
    42   20   21 2    
    43   20   22 1    
    44   22   23 1    
    45   22   24 1    
    46   22   80 1    
    47   23   81 1    
    48   23   82 1    
    49   23   83 1    
    50   24   25 am   BACKBONE|DICT|INTERRES
    51   24   84 1    
    52   25   26 2    
    53   27   28 2    
    54   27   29 am   BACKBONE|DICT|INTERRES
    55   29   30 1    
    56   29   85 1    
    57   30   31 1    
    58   30   32 1    
    59   30   86 1    
    60   31   87 1    
    61   31   88 1    
    62   31   89 1    
    63   32   33 2    
    64   32   34 am   BACKBONE|DICT|INTERRES
    65   34   35 1    
    66   34   90 1    
    67   35   36 1    
    68   35   37 1    
    69   35   91 1    
    70   36   92 1    
    71   36   93 1    
    72   36   94 1    
    73   37   38 2    
    74   37   39 am   BACKBONE|DICT|INTERRES
    75   39   40 1    
    76   39   95 1    
    77   40   41 1    
    78   40   42 1    
    79   40   96 1    
    80   41   97 1    
    81   41   98 1    
    82   41   99 1    
    83   42   43 2    
    84   42   44 am   BACKBONE|DICT|INTERRES
    85   44   45 1    
    86   44  100 1    
    87   45   46 1    
    88   45   47 1    
    89   45  101 1    
    90   46  102 1    
    91   46  103 1    
    92   46  104 1    
    93   47   48 2    
    94   47   49 am   BACKBONE|DICT|INTERRES
    95   49   50 1    
    96   49  105 1    
    97   50   51 1    
    98   50   52 1    
    99   50  106 1    
   100   51  107 1    
   101   51  108 1    
   102   51  109 1    
   103   52   53 2    
   104   52   54 am   BACKBONE|DICT|INTERRES
   105   54   55 1    
   106   54  110 1    
   107   55   56 1    
   108   55   59 1    
   109   55  111 1    
   110   56   57 am   BACKBONE|DICT|INTERRES
   111   56   58 2    
   112   57  112 1    
   113   57  113 1    
   114   59   60 1    
   115   59  114 1    
   116   59  115 1    
   117   60   61 1    
   118   61  116 1    
   119   61  117 1    
@<TRIPOS>SUBSTRUCTURE
     1 UNK         1 GROUP             0       ****    0 ROOT    
