@<TRIPOS>MOLECULE
3R8
117   119    1
SMALL
USER_CHARGES


@<TRIPOS>ATOM
      1 CA         13.7998  -23.8277  -43.2949 C.3       0 UNK        -0.2013 
      2 C          14.8066  -24.3638  -44.3016 C.2       0 UNK         0.4866 
      3 O          15.7235  -23.6418  -44.6932 O.2       0 UNK        -0.5176 
      4 N          14.6403  -25.6237  -44.7268 N.am      1 UNK        -0.4884 
      5 CA         15.5290  -26.3106  -45.6742 C.3       1 UNK         0.0853 
      6 C6         14.8607  -27.5956  -46.2278 C.3       10 UNK        -0.0849 
      7 S7         15.6127  -28.1815  -47.7845 S.3       10 UNK        -0.2776 
      8 C8         16.0889  -29.8944  -47.3702 C.3       10 UNK         0.0316 
      9 C9         17.4091  -30.0044  -46.6111 C.ar      10 UNK        -0.0863 
     10 C10        17.4562  -30.6222  -45.3552 C.ar      10 UNK        -0.1009 
     11 C11        18.6800  -30.8345  -44.7080 C.ar      10 UNK        -0.0712 
     12 C12        19.8586  -30.4200  -45.3333 C.ar      10 UNK        -0.0894 
     13 C13        19.8282  -29.7620  -46.5638 C.ar      10 UNK        -0.0745 
     14 C14        18.5995  -29.5643  -47.2017 C.ar      10 UNK        -0.0972 
     15 C15        21.1252  -29.3080  -47.2221 C.3       10 UNK         0.0209 
     16 S16        21.6257  -27.6312  -46.7049 S.3       10 UNK        -0.2568 
     17 C17        22.4209  -27.9240  -45.0854 C.3       10 UNK        -0.0983 
     18 CA         21.7275  -27.1598  -43.9294 C.3       3 UNK         0.0876 
     19 N          20.3284  -27.5556  -43.7712 N.am      3 UNK        -0.4424 
     20 C          19.3702  -26.8254  -43.1909 C.2       2 UNK         0.4918 
     21 O          19.5255  -25.6698  -42.7885 O.2       2 UNK        -0.4875 
     22 CA         18.0196  -27.5315  -42.9942 C.3       2 UNK         0.0481 
     23 CB         17.6439  -27.5771  -41.5039 C.3       2 UNK        -0.1831 
     24 N          16.9098  -26.9645  -43.7615 N.am      2 UNK        -0.4498 
     25 C          16.9085  -26.6294  -45.0624 C.2       1 UNK         0.5027 
     26 O          17.9072  -26.5823  -45.7800 O.2       1 UNK        -0.4969 
     27 C          22.4366  -27.3500  -42.5716 C.2       3 UNK         0.5005 
     28 O          23.1318  -28.3505  -42.3700 O.2       3 UNK        -0.5279 
     29 N          22.1568  -26.4050  -41.6593 N.am      4 UNK        -0.4463 
     30 CA         22.4565  -26.3919  -40.2257 C.3       4 UNK         0.0283 
     31 CB         22.2185  -24.9757  -39.6763 C.3       4 UNK        -0.1875 
     32 C          23.8663  -26.8795  -39.8660 C.2       4 UNK         0.4949 
     33 O          24.8480  -26.2519  -40.2685 O.2       4 UNK        -0.5039 
     34 N          23.9277  -28.0008  -39.1366 N.am      5 UNK        -0.4663 
     35 CA         25.1075  -28.7311  -38.6507 C.3       5 UNK         0.0242 
     36 CB         25.9688  -27.8578  -37.7184 C.3       5 UNK        -0.1982 
     37 C          25.9666  -29.3784  -39.7521 C.2       5 UNK         0.5017 
     38 O          26.4410  -30.4964  -39.5511 O.2       5 UNK        -0.5012 
     39 N          26.1299  -28.6997  -40.8949 N.am      6 UNK        -0.4439 
     40 CA         26.8809  -29.1411  -42.0737 C.3       6 UNK         0.0297 
     41 CB         26.8414  -28.0364  -43.1417 C.3       6 UNK        -0.2006 
     42 C          26.3822  -30.4729  -42.6595 C.2       6 UNK         0.4892 
     43 O          27.2028  -31.2978  -43.0627 O.2       6 UNK        -0.5089 
     44 N          25.0577  -30.6665  -42.6606 N.am      7 UNK        -0.4243 
     45 CA         24.3907  -31.9072  -43.0612 C.3       7 UNK         0.0196 
     46 CB         23.3071  -31.5598  -44.0896 C.3       7 UNK        -0.2007 
     47 C          23.7908  -32.6430  -41.8493 C.2       7 UNK         0.5020 
     48 O          22.8387  -33.4048  -42.0176 O.2       7 UNK        -0.5147 
     49 N          24.3157  -32.3793  -40.6434 N.am      8 UNK        -0.4734 
     50 CA         23.9086  -32.8924  -39.3248 C.3       8 UNK         0.0238 
     51 CB         24.0081  -34.4295  -39.2592 C.3       8 UNK        -0.1912 
     52 C          22.5370  -32.4028  -38.8177 C.2       8 UNK         0.5038 
     53 O          22.3590  -32.3206  -37.6014 O.2       8 UNK        -0.5046 
     54 N          21.6048  -32.0808  -39.7234 N.am      9 UNK        -0.4200 
     55 CA         20.2998  -31.4757  -39.4246 C.3       9 UNK         0.0839 
     56 C          20.3932  -30.0250  -38.8656 C.2       9 UNK         0.5513 
     57 N          19.2839  -29.4697  -38.3965 N.am      9 UNK        -0.7519 
     58 O          21.4504  -29.3975  -38.8477 O.2       9 UNK        -0.4960 
     59 C59        19.3161  -31.6167  -40.6196 C.3       10 UNK        -0.0876 
     60 S60        19.8043  -30.7232  -42.1357 S.3       10 UNK        -0.2414 
     61 C61        18.7247  -31.5473  -43.3577 C.3       10 UNK         0.0169 
     62 H62        13.2964  -22.9499  -43.6992 H         1 UNK         0.0903 
     63 H63        13.0401  -24.5672  -43.0423 H         1 UNK         0.0903 
     64 H64        14.3076  -23.5360  -42.3759 H         1 UNK         0.0903 
     65 H65        13.8567  -26.1617  -44.3830 H         1 UNK         0.3096 
     66 H66        15.6989  -25.6262  -46.5091 H         1 UNK         0.1121 
     67 H67        13.8107  -27.3985  -46.4502 H         1 UNK         0.0849 
     68 H68        14.8589  -28.3919  -45.4807 H         1 UNK         0.0849 
     69 H69        15.2772  -30.3749  -46.8217 H         1 UNK         0.0865 
     70 H70        16.1871  -30.4541  -48.3014 H         1 UNK         0.0865 
     71 H71        16.5412  -30.9685  -44.8942 H         1 UNK         0.1346 
     72 H72        20.8051  -30.6113  -44.8574 H         1 UNK         0.1412 
     73 H73        18.5686  -29.0808  -48.1687 H         1 UNK         0.1426 
     74 H74        21.0032  -29.3102  -48.3063 H         1 UNK         0.0716 
     75 H75        21.9286  -30.0158  -47.0120 H         1 UNK         0.0716 
     76 H76        23.4632  -27.6110  -45.1683 H         1 UNK         0.0695 
     77 H77        22.4468  -28.9914  -44.8814 H         1 UNK         0.0695 
     78 H78        21.7628  -26.0962  -44.1768 H         1 UNK         0.0983 
     79 H79        20.0970  -28.4862  -44.0885 H         1 UNK         0.3095 
     80 H80        18.1206  -28.5608  -43.3326 H         1 UNK         0.0454 
     81 H81        17.4400  -26.5812  -41.1088 H         1 UNK         0.0851 
     82 H82        18.4554  -28.0024  -40.9112 H         1 UNK         0.0851 
     83 H83        16.7639  -28.1967  -41.3322 H         1 UNK         0.0851 
     84 H84        16.0260  -26.9084  -43.2781 H         1 UNK         0.2976 
     85 H85        21.5131  -25.6838  -41.9626 H         1 UNK         0.3116 
     86 H86        21.7247  -27.0476  -39.7549 H         1 UNK         0.0646 
     87 H87        21.1866  -24.6574  -39.8259 H         1 UNK         0.0847 
     88 H88        22.8696  -24.2435  -40.1559 H         1 UNK         0.0847 
     89 H89        22.4163  -24.9343  -38.6042 H         1 UNK         0.0847 
     90 H90        23.0396  -28.4661  -38.9459 H         1 UNK         0.3040 
     91 H91        24.7092  -29.5529  -38.0525 H         1 UNK         0.1015 
     92 H92        26.4242  -27.0196  -38.2466 H         1 UNK         0.0786 
     93 H93        26.7796  -28.4413  -37.2802 H         1 UNK         0.0786 
     94 H94        25.3783  -27.4551  -36.8954 H         1 UNK         0.0786 
     95 H95        25.6939  -27.7814  -40.9400 H         1 UNK         0.3172 
     96 H96        27.9180  -29.2833  -41.7637 H         1 UNK         0.0595 
     97 H97        25.8206  -27.8221  -43.4619 H         1 UNK         0.0839 
     98 H98        27.4075  -28.3280  -44.0275 H         1 UNK         0.0839 
     99 H99        27.2772  -27.1087  -42.7702 H         1 UNK         0.0839 
    100 H100       24.4546  -29.9109  -42.3429 H         1 UNK         0.2998 
    101 H101       25.0983  -32.5932  -43.5308 H         1 UNK         0.0822 
    102 H102       23.7246  -31.0313  -44.9465 H         1 UNK         0.0787 
    103 H103       22.8100  -32.4536  -44.4689 H         1 UNK         0.0787 
    104 H104       22.5500  -30.9281  -43.6275 H         1 UNK         0.0787 
    105 H105       25.0908  -31.7252  -40.6111 H         1 UNK         0.3055 
    106 H106       24.6431  -32.4921  -38.6236 H         1 UNK         0.1106 
    107 H107       23.2755  -34.9161  -39.9036 H         1 UNK         0.0828 
    108 H108       23.8291  -34.7864  -38.2441 H         1 UNK         0.0828 
    109 H109       24.9985  -34.7763  -39.5537 H         1 UNK         0.0828 
    110 H110       21.8261  -32.2187  -40.7019 H         1 UNK         0.2931 
    111 H111       19.8807  -32.0691  -38.6096 H         1 UNK         0.0412 
    112 H112       19.3278  -28.5347  -38.0236 H         1 UNK         0.3472 
    113 H113       18.4105  -29.9720  -38.3838 H         1 UNK         0.3472 
    114 H114       18.3177  -31.2821  -40.3334 H         1 UNK         0.0970 
    115 H115       19.2067  -32.6744  -40.8648 H         1 UNK         0.0970 
    116 H116       19.0741  -32.5695  -43.5082 H         1 UNK         0.0612 
    117 H117       17.7195  -31.6170  -42.9389 H         1 UNK         0.0612 
@<TRIPOS>BOND
     1    1    2 1    
     2    1   62 1    
     3    1   63 1    
     4    1   64 1    
     5    2    3 2    
     6    2    4 am   BACKBONE|DICT|INTERRES
     7    4    5 1    
     8    4   65 1    
     9    5    6 1    
    10    5   25 1    
    11    5   66 1    
    12    6    7 1    
    13    6   67 1    
    14    6   68 1    
    15    7    8 1    
    16    8    9 1    
    17    8   69 1    
    18    8   70 1    
    19    9   10 ar   
    20    9   14 ar   
    21   10   11 ar   
    22   10   71 1    
    23   11   12 ar   
    24   11   61 1    
    25   12   13 ar   
    26   12   72 1    
    27   13   14 ar   
    28   13   15 1    
    29   14   73 1    
    30   15   16 1    
    31   15   74 1    
    32   15   75 1    
    33   16   17 1    
    34   17   18 1    
    35   17   76 1    
    36   17   77 1    
    37   18   19 1    
    38   18   27 1    
    39   18   78 1    
    40   19   20 am   BACKBONE|DICT|INTERRES
    41   19   79 1    
    42   20   21 2    
    43   20   22 1    
    44   22   23 1    
    45   22   24 1    
    46   22   80 1    
    47   23   81 1    
    48   23   82 1    
    49   23   83 1    
    50   24   25 am   BACKBONE|DICT|INTERRES
    51   24   84 1    
    52   25   26 2    
    53   27   28 2    
    54   27   29 am   BACKBONE|DICT|INTERRES
    55   29   30 1    
    56   29   85 1    
    57   30   31 1    
    58   30   32 1    
    59   30   86 1    
    60   31   87 1    
    61   31   88 1    
    62   31   89 1    
    63   32   33 2    
    64   32   34 am   BACKBONE|DICT|INTERRES
    65   34   35 1    
    66   34   90 1    
    67   35   36 1    
    68   35   37 1    
    69   35   91 1    
    70   36   92 1    
    71   36   93 1    
    72   36   94 1    
    73   37   38 2    
    74   37   39 am   BACKBONE|DICT|INTERRES
    75   39   40 1    
    76   39   95 1    
    77   40   41 1    
    78   40   42 1    
    79   40   96 1    
    80   41   97 1    
    81   41   98 1    
    82   41   99 1    
    83   42   43 2    
    84   42   44 am   BACKBONE|DICT|INTERRES
    85   44   45 1    
    86   44  100 1    
    87   45   46 1    
    88   45   47 1    
    89   45  101 1    
    90   46  102 1    
    91   46  103 1    
    92   46  104 1    
    93   47   48 2    
    94   47   49 am   BACKBONE|DICT|INTERRES
    95   49   50 1    
    96   49  105 1    
    97   50   51 1    
    98   50   52 1    
    99   50  106 1    
   100   51  107 1    
   101   51  108 1    
   102   51  109 1    
   103   52   53 2    
   104   52   54 am   BACKBONE|DICT|INTERRES
   105   54   55 1    
   106   54  110 1    
   107   55   56 1    
   108   55   59 1    
   109   55  111 1    
   110   56   57 am   BACKBONE|DICT|INTERRES
   111   56   58 2    
   112   57  112 1    
   113   57  113 1    
   114   59   60 1    
   115   59  114 1    
   116   59  115 1    
   117   60   61 1    
   118   61  116 1    
   119   61  117 1    
@<TRIPOS>SUBSTRUCTURE
     1 UNK         1 GROUP             0       ****    0 ROOT    
