@<TRIPOS>MOLECULE
3R8
117   119    1
SMALL
USER_CHARGES


@<TRIPOS>ATOM
      1 CA         18.4924  -26.8723  -50.6768 C.3       0 UNK        -0.2013 
      2 C          19.1652  -27.2503  -49.3655 C.2       0 UNK         0.4866 
      3 O          20.3943  -27.2590  -49.2880 O.2       0 UNK        -0.5176 
      4 N          18.3707  -27.5721  -48.3374 N.am      1 UNK        -0.4884 
      5 CA         18.8442  -27.9135  -46.9924 C.3       1 UNK         0.0853 
      6 C6         17.7244  -28.5424  -46.1334 C.3       10 UNK        -0.0849 
      7 S7         17.2361  -30.1991  -46.7133 S.3       10 UNK        -0.2776 
      8 C8         15.7833  -30.5318  -45.6580 C.3       10 UNK         0.0316 
      9 C9         16.0453  -30.2196  -44.1890 C.ar      10 UNK        -0.0863 
     10 C10        16.9988  -30.9479  -43.4721 C.ar      10 UNK        -0.1009 
     11 C11        17.2766  -30.6305  -42.1401 C.ar      10 UNK        -0.0712 
     12 C12        16.5636  -29.6065  -41.5113 C.ar      10 UNK        -0.0894 
     13 C13        15.6287  -28.8483  -42.2247 C.ar      10 UNK        -0.0745 
     14 C14        15.3678  -29.1693  -43.5609 C.ar      10 UNK        -0.0972 
     15 C15        14.8945  -27.6797  -41.5715 C.3       10 UNK         0.0209 
     16 S16        15.9697  -26.5788  -40.5848 S.3       10 UNK        -0.2568 
     17 C17        17.2080  -26.0044  -41.8013 C.3       10 UNK        -0.0983 
     18 CA         18.6010  -26.6480  -41.5558 C.3       3 UNK         0.0876 
     19 N          19.4462  -26.6605  -42.7565 N.am      3 UNK        -0.4424 
     20 C          20.0576  -25.6071  -43.3231 C.2       2 UNK         0.4918 
     21 O          19.9236  -24.4399  -42.9567 O.2       2 UNK        -0.4875 
     22 CA         20.9905  -25.9177  -44.5067 C.3       2 UNK         0.0481 
     23 CB         22.3589  -26.4048  -43.9975 C.3       2 UNK        -0.1831 
     24 N          20.4207  -26.9155  -45.4138 N.am      2 UNK        -0.4498 
     25 C          19.4082  -26.6803  -46.2599 C.2       1 UNK         0.5027 
     26 O          18.8889  -25.5733  -46.4255 O.2       1 UNK        -0.4969 
     27 C          19.3727  -26.0784  -40.3421 C.2       3 UNK         0.5005 
     28 O          18.9992  -25.0498  -39.7733 O.2       3 UNK        -0.5279 
     29 N          20.4817  -26.7465  -40.0095 N.am      4 UNK        -0.4463 
     30 CA         21.4316  -26.3794  -38.9648 C.3       4 UNK         0.0283 
     31 CB         22.4568  -25.3812  -39.5391 C.3       4 UNK        -0.1875 
     32 C          22.1080  -27.6595  -38.4563 C.2       4 UNK         0.4949 
     33 O          21.8121  -28.7471  -38.9558 O.2       4 UNK        -0.5039 
     34 N          23.0078  -27.5180  -37.4756 N.am      5 UNK        -0.4663 
     35 CA         23.8562  -28.6087  -36.9914 C.3       5 UNK         0.0242 
     36 CB         24.5470  -28.1799  -35.6862 C.3       5 UNK        -0.1982 
     37 C          24.8934  -29.0012  -38.0588 C.2       5 UNK         0.5017 
     38 O          25.5995  -28.1221  -38.5597 O.2       5 UNK        -0.5012 
     39 N          24.9656  -30.3036  -38.3680 N.am      6 UNK        -0.4439 
     40 CA         25.8032  -30.9155  -39.4072 C.3       6 UNK         0.0297 
     41 CB         27.3018  -30.8083  -39.0395 C.3       6 UNK        -0.2006 
     42 C          25.4557  -30.3923  -40.8187 C.2       6 UNK         0.4892 
     43 O          24.2793  -30.1492  -41.0980 O.2       6 UNK        -0.5089 
     44 N          26.4659  -30.2678  -41.6939 N.am      7 UNK        -0.4243 
     45 CA         26.3612  -29.8730  -43.1043 C.3       7 UNK         0.0196 
     46 CB         25.9827  -28.3768  -43.2222 C.3       7 UNK        -0.2007 
     47 C          25.4288  -30.8297  -43.8738 C.2       7 UNK         0.5020 
     48 O          25.6639  -32.0393  -43.8521 O.2       7 UNK        -0.5147 
     49 N          24.3714  -30.2938  -44.4981 N.am      8 UNK        -0.4734 
     50 CA         23.3292  -31.0561  -45.1960 C.3       8 UNK         0.0238 
     51 CB         22.3841  -30.0766  -45.9107 C.3       8 UNK        -0.1912 
     52 C          22.5205  -31.9976  -44.2822 C.2       8 UNK         0.5038 
     53 O          21.9697  -32.9804  -44.7799 O.2       8 UNK        -0.5046 
     54 N          22.4669  -31.6878  -42.9805 N.am      9 UNK        -0.4200 
     55 CA         21.8125  -32.5017  -41.9468 C.3       9 UNK         0.0839 
     56 C          22.7552  -33.5671  -41.3143 C.2       9 UNK         0.5513 
     57 N          24.0139  -33.6859  -41.7253 N.am      9 UNK        -0.7519 
     58 O          22.3302  -34.3175  -40.4398 O.2       9 UNK        -0.4960 
     59 C59        21.1367  -31.6185  -40.8638 C.3       10 UNK        -0.0876 
     60 S60        19.9467  -30.4281  -41.5704 S.3       10 UNK        -0.2414 
     61 C61        18.3893  -31.3523  -41.4009 C.3       10 UNK         0.0169 
     62 H62        18.7664  -25.8562  -50.9593 H         1 UNK         0.0903 
     63 H63        18.8137  -27.5455  -51.4711 H         1 UNK         0.0903 
     64 H64        17.4059  -26.9238  -50.6079 H         1 UNK         0.0903 
     65 H65        17.3678  -27.5409  -48.4526 H         1 UNK         0.3096 
     66 H66        19.6518  -28.6415  -47.1010 H         1 UNK         0.1121 
     67 H67        18.0567  -28.6496  -45.0986 H         1 UNK         0.0849 
     68 H68        16.8451  -27.8954  -46.1056 H         1 UNK         0.0849 
     69 H69        14.9380  -29.9516  -46.0315 H         1 UNK         0.0865 
     70 H70        15.5013  -31.5807  -45.7595 H         1 UNK         0.0865 
     71 H71        17.5528  -31.7354  -43.9652 H         1 UNK         0.1346 
     72 H72        16.7751  -29.3666  -40.4783 H         1 UNK         0.1412 
     73 H73        14.6444  -28.5901  -44.1187 H         1 UNK         0.1426 
     74 H74        14.1149  -28.0792  -40.9218 H         1 UNK         0.0716 
     75 H75        14.3869  -27.0747  -42.3245 H         1 UNK         0.0716 
     76 H76        17.2640  -24.9148  -41.7764 H         1 UNK         0.0695 
     77 H77        16.8515  -26.2582  -42.8009 H         1 UNK         0.0695 
     78 H78        18.4393  -27.7001  -41.3261 H         1 UNK         0.0983 
     79 H79        19.6326  -27.5756  -43.1382 H         1 UNK         0.3095 
     80 H80        21.1479  -24.9927  -45.0659 H         1 UNK         0.0454 
     81 H81        22.2807  -27.3355  -43.4339 H         1 UNK         0.0851 
     82 H82        22.8122  -25.6647  -43.3363 H         1 UNK         0.0851 
     83 H83        23.0541  -26.5668  -44.8213 H         1 UNK         0.0851 
     84 H84        20.7946  -27.8497  -45.3512 H         1 UNK         0.2976 
     85 H85        20.6894  -27.6347  -40.4520 H         1 UNK         0.3116 
     86 H86        20.8985  -25.9242  -38.1275 H         1 UNK         0.0646 
     87 H87        23.0458  -25.8292  -40.3407 H         1 UNK         0.0847 
     88 H88        23.1536  -25.0385  -38.7738 H         1 UNK         0.0847 
     89 H89        21.9657  -24.4953  -39.9426 H         1 UNK         0.0847 
     90 H90        23.2175  -26.5925  -37.1307 H         1 UNK         0.3040 
     91 H91        23.2178  -29.4685  -36.7749 H         1 UNK         0.1015 
     92 H92        23.8187  -27.9319  -34.9138 H         1 UNK         0.0786 
     93 H93        25.1893  -27.3107  -35.8347 H         1 UNK         0.0786 
     94 H94        25.1725  -28.9835  -35.2951 H         1 UNK         0.0786 
     95 H95        24.3103  -30.9307  -37.9228 H         1 UNK         0.3172 
     96 H96        25.5429  -31.9750  -39.4134 H         1 UNK         0.0595 
     97 H97        27.6703  -29.7845  -39.1169 H         1 UNK         0.0839 
     98 H98        27.9176  -31.4344  -39.6860 H         1 UNK         0.0839 
     99 H99        27.4796  -31.1449  -38.0180 H         1 UNK         0.0839 
    100 H100       27.3912  -30.5258  -41.3818 H         1 UNK         0.2998 
    101 H101       27.3533  -30.0004  -43.5401 H         1 UNK         0.0822 
    102 H102       24.9981  -28.1623  -42.8045 H         1 UNK         0.0787 
    103 H103       26.7017  -27.7531  -42.6908 H         1 UNK         0.0787 
    104 H104       25.9869  -28.0462  -44.2617 H         1 UNK         0.0787 
    105 H105       24.2524  -29.2927  -44.4511 H         1 UNK         0.3055 
    106 H106       23.8191  -31.6785  -45.9483 H         1 UNK         0.1106 
    107 H107       21.8618  -29.4408  -45.1968 H         1 UNK         0.0828 
    108 H108       22.9231  -29.4363  -46.6095 H         1 UNK         0.0828 
    109 H109       21.6269  -30.6141  -46.4839 H         1 UNK         0.0828 
    110 H110       22.9949  -30.8950  -42.6343 H         1 UNK         0.2931 
    111 H111       21.0134  -33.0743  -42.4209 H         1 UNK         0.0412 
    112 H112       24.3824  -33.0913  -42.4568 H         1 UNK         0.3472 
    113 H113       24.5994  -34.3940  -41.3119 H         1 UNK         0.3472 
    114 H114       20.6237  -32.2342  -40.1227 H         1 UNK         0.0970 
    115 H115       21.8913  -31.0558  -40.3123 H         1 UNK         0.0970 
    116 H116       18.1388  -31.4591  -40.3444 H         1 UNK         0.0612 
    117 H117       18.5159  -32.3602  -41.7995 H         1 UNK         0.0612 
@<TRIPOS>BOND
     1    1    2 1    
     2    1   62 1    
     3    1   63 1    
     4    1   64 1    
     5    2    3 2    
     6    2    4 am   BACKBONE|DICT|INTERRES
     7    4    5 1    
     8    4   65 1    
     9    5    6 1    
    10    5   25 1    
    11    5   66 1    
    12    6    7 1    
    13    6   67 1    
    14    6   68 1    
    15    7    8 1    
    16    8    9 1    
    17    8   69 1    
    18    8   70 1    
    19    9   10 ar   
    20    9   14 ar   
    21   10   11 ar   
    22   10   71 1    
    23   11   12 ar   
    24   11   61 1    
    25   12   13 ar   
    26   12   72 1    
    27   13   14 ar   
    28   13   15 1    
    29   14   73 1    
    30   15   16 1    
    31   15   74 1    
    32   15   75 1    
    33   16   17 1    
    34   17   18 1    
    35   17   76 1    
    36   17   77 1    
    37   18   19 1    
    38   18   27 1    
    39   18   78 1    
    40   19   20 am   BACKBONE|DICT|INTERRES
    41   19   79 1    
    42   20   21 2    
    43   20   22 1    
    44   22   23 1    
    45   22   24 1    
    46   22   80 1    
    47   23   81 1    
    48   23   82 1    
    49   23   83 1    
    50   24   25 am   BACKBONE|DICT|INTERRES
    51   24   84 1    
    52   25   26 2    
    53   27   28 2    
    54   27   29 am   BACKBONE|DICT|INTERRES
    55   29   30 1    
    56   29   85 1    
    57   30   31 1    
    58   30   32 1    
    59   30   86 1    
    60   31   87 1    
    61   31   88 1    
    62   31   89 1    
    63   32   33 2    
    64   32   34 am   BACKBONE|DICT|INTERRES
    65   34   35 1    
    66   34   90 1    
    67   35   36 1    
    68   35   37 1    
    69   35   91 1    
    70   36   92 1    
    71   36   93 1    
    72   36   94 1    
    73   37   38 2    
    74   37   39 am   BACKBONE|DICT|INTERRES
    75   39   40 1    
    76   39   95 1    
    77   40   41 1    
    78   40   42 1    
    79   40   96 1    
    80   41   97 1    
    81   41   98 1    
    82   41   99 1    
    83   42   43 2    
    84   42   44 am   BACKBONE|DICT|INTERRES
    85   44   45 1    
    86   44  100 1    
    87   45   46 1    
    88   45   47 1    
    89   45  101 1    
    90   46  102 1    
    91   46  103 1    
    92   46  104 1    
    93   47   48 2    
    94   47   49 am   BACKBONE|DICT|INTERRES
    95   49   50 1    
    96   49  105 1    
    97   50   51 1    
    98   50   52 1    
    99   50  106 1    
   100   51  107 1    
   101   51  108 1    
   102   51  109 1    
   103   52   53 2    
   104   52   54 am   BACKBONE|DICT|INTERRES
   105   54   55 1    
   106   54  110 1    
   107   55   56 1    
   108   55   59 1    
   109   55  111 1    
   110   56   57 am   BACKBONE|DICT|INTERRES
   111   56   58 2    
   112   57  112 1    
   113   57  113 1    
   114   59   60 1    
   115   59  114 1    
   116   59  115 1    
   117   60   61 1    
   118   61  116 1    
   119   61  117 1    
@<TRIPOS>SUBSTRUCTURE
     1 UNK         1 GROUP             0       ****    0 ROOT    
