@<TRIPOS>MOLECULE
3R8
117   119    1
SMALL
USER_CHARGES


@<TRIPOS>ATOM
      1 CA         16.1181  -27.9715  -41.2963 C.3       0 UNK        -0.2013 
      2 C          16.2474  -26.8550  -42.3220 C.2       0 UNK         0.4866 
      3 O          15.8749  -25.7166  -42.0352 O.2       0 UNK        -0.5176 
      4 N          16.7619  -27.1762  -43.5153 N.am      1 UNK        -0.4884 
      5 CA         16.9902  -26.2319  -44.6176 C.3       1 UNK         0.0853 
      6 C6         16.8226  -26.8996  -46.0131 C.3       10 UNK        -0.0849 
      7 S7         15.3351  -27.9702  -46.1181 S.3       10 UNK        -0.2776 
      8 C8         15.9815  -29.6343  -46.5206 C.3       10 UNK         0.0316 
      9 C9         17.2279  -30.0128  -45.7299 C.ar      10 UNK        -0.0863 
     10 C10        17.1446  -30.4196  -44.3939 C.ar      10 UNK        -0.1009 
     11 C11        18.3067  -30.7215  -43.6726 C.ar      10 UNK        -0.0712 
     12 C12        19.5525  -30.5867  -44.2950 C.ar      10 UNK        -0.0894 
     13 C13        19.6468  -30.2188  -45.6382 C.ar      10 UNK        -0.0745 
     14 C14        18.4768  -29.9542  -46.3529 C.ar      10 UNK        -0.0972 
     15 C15        21.0051  -30.1400  -46.3235 C.3       10 UNK         0.0209 
     16 S16        21.2212  -28.5707  -47.2233 S.3       10 UNK        -0.2568 
     17 C17        22.7398  -27.8899  -46.4763 C.3       10 UNK        -0.0983 
     18 CA         22.5015  -26.9350  -45.2759 C.3       3 UNK         0.0876 
     19 N          21.3936  -26.0055  -45.5152 N.am      3 UNK        -0.4424 
     20 C          21.3285  -24.7419  -45.0808 C.2       2 UNK         0.4918 
     21 O          22.2163  -24.1997  -44.4223 O.2       2 UNK        -0.4875 
     22 CA         20.0401  -23.9578  -45.4115 C.3       2 UNK         0.0481 
     23 CB         20.2021  -23.2119  -46.7454 C.3       2 UNK        -0.1831 
     24 N          18.8034  -24.7579  -45.4474 N.am      2 UNK        -0.4498 
     25 C          18.3630  -25.5359  -44.4461 C.2       1 UNK         0.5027 
     26 O          19.0186  -25.7148  -43.4181 O.2       1 UNK        -0.4969 
     27 C          22.4112  -27.6807  -43.9242 C.2       3 UNK         0.5005 
     28 O          23.3238  -28.4502  -43.6150 O.2       3 UNK        -0.5279 
     29 N          21.3863  -27.4188  -43.0941 N.am      4 UNK        -0.4463 
     30 CA         21.2615  -27.9683  -41.7328 C.3       4 UNK         0.0283 
     31 CB         19.8771  -27.6362  -41.1590 C.3       4 UNK        -0.1875 
     32 C          22.3716  -27.5111  -40.7636 C.2       4 UNK         0.4949 
     33 O          22.5559  -28.1286  -39.7171 O.2       4 UNK        -0.5039 
     34 N          23.1137  -26.4570  -41.1310 N.am      5 UNK        -0.4663 
     35 CA         24.3412  -26.0317  -40.4561 C.3       5 UNK         0.0242 
     36 CB         24.7123  -24.6209  -40.9414 C.3       5 UNK        -0.1982 
     37 C          25.5210  -27.0024  -40.6706 C.2       5 UNK         0.5017 
     38 O          26.4359  -27.0118  -39.8461 O.2       5 UNK        -0.5012 
     39 N          25.4927  -27.7794  -41.7638 N.am      6 UNK        -0.4439 
     40 CA         26.5172  -28.7613  -42.1248 C.3       6 UNK         0.0297 
     41 CB         26.8876  -28.5827  -43.6069 C.3       6 UNK        -0.2006 
     42 C          26.0460  -30.2006  -41.8626 C.2       6 UNK         0.4892 
     43 O          26.8546  -31.0256  -41.4343 O.2       6 UNK        -0.5089 
     44 N          24.7653  -30.4850  -42.1375 N.am      7 UNK        -0.4243 
     45 CA         24.1369  -31.7944  -41.9433 C.3       7 UNK         0.0196 
     46 CB         22.8106  -31.8183  -42.7175 C.3       7 UNK        -0.2007 
     47 C          23.8920  -32.1319  -40.4606 C.2       7 UNK         0.5020 
     48 O          23.9812  -31.2618  -39.5929 O.2       7 UNK        -0.5147 
     49 N          23.5590  -33.4034  -40.2021 N.am      8 UNK        -0.4734 
     50 CA         23.2078  -33.9064  -38.8697 C.3       8 UNK         0.0238 
     51 CB         23.3558  -35.4368  -38.8490 C.3       8 UNK        -0.1912 
     52 C          21.7936  -33.4973  -38.4172 C.2       8 UNK         0.5038 
     53 O          21.5688  -33.3601  -37.2136 O.2       8 UNK        -0.5046 
     54 N          20.8690  -33.3325  -39.3729 N.am      9 UNK        -0.4200 
     55 CA         19.4940  -32.8676  -39.1391 C.3       9 UNK         0.0839 
     56 C          19.4092  -31.3571  -38.7886 C.2       9 UNK         0.5513 
     57 N          18.3360  -30.9356  -38.1328 N.am      9 UNK        -0.7519 
     58 O          20.2789  -30.5626  -39.1314 O.2       9 UNK        -0.4960 
     59 C59        18.5407  -33.2547  -40.3025 C.3       10 UNK        -0.0876 
     60 S60        19.1107  -32.7664  -41.9684 S.3       10 UNK        -0.2414 
     61 C61        18.2203  -31.1951  -42.2259 C.3       10 UNK         0.0169 
     62 H62        16.3781  -28.9416  -41.7163 H         1 UNK         0.0903 
     63 H63        16.7741  -27.7800  -40.4476 H         1 UNK         0.0903 
     64 H64        15.0936  -28.0277  -40.9296 H         1 UNK         0.0903 
     65 H65        17.0603  -28.1238  -43.6994 H         1 UNK         0.3096 
     66 H66        16.2385  -25.4424  -44.5478 H         1 UNK         0.1121 
     67 H67        16.7172  -26.1325  -46.7818 H         1 UNK         0.0849 
     68 H68        17.7170  -27.4553  -46.2873 H         1 UNK         0.0849 
     69 H69        15.1978  -30.3706  -46.3365 H         1 UNK         0.0865 
     70 H70        16.1842  -29.6777  -47.5919 H         1 UNK         0.0865 
     71 H71        16.1753  -30.4984  -43.9202 H         1 UNK         0.1346 
     72 H72        20.4496  -30.8022  -43.7372 H         1 UNK         0.1412 
     73 H73        18.5431  -29.6687  -47.3942 H         1 UNK         0.1426 
     74 H74        21.8087  -30.2700  -45.5978 H         1 UNK         0.0716 
     75 H75        21.0925  -30.9661  -47.0301 H         1 UNK         0.0716 
     76 H76        23.4341  -28.6959  -46.2308 H         1 UNK         0.0695 
     77 H77        23.2381  -27.3268  -47.2668 H         1 UNK         0.0695 
     78 H78        23.4132  -26.3398  -45.1856 H         1 UNK         0.0983 
     79 H79        20.6232  -26.3784  -46.0514 H         1 UNK         0.3095 
     80 H80        19.9115  -23.2123  -44.6242 H         1 UNK         0.0454 
     81 H81        20.2894  -23.9012  -47.5862 H         1 UNK         0.0851 
     82 H82        19.3570  -22.5508  -46.9378 H         1 UNK         0.0851 
     83 H83        21.0992  -22.5909  -46.7397 H         1 UNK         0.0851 
     84 H84        18.2259  -24.6481  -46.2686 H         1 UNK         0.2976 
     85 H85        20.6620  -26.7647  -43.3798 H         1 UNK         0.3116 
     86 H86        21.3328  -29.0537  -41.8091 H         1 UNK         0.0646 
     87 H87        19.7424  -26.5630  -41.0217 H         1 UNK         0.0847 
     88 H88        19.7339  -28.1081  -40.1864 H         1 UNK         0.0847 
     89 H89        19.0857  -27.9974  -41.8137 H         1 UNK         0.0847 
     90 H90        22.8688  -25.9753  -41.9844 H         1 UNK         0.3040 
     91 H91        24.1459  -25.9872  -39.3821 H         1 UNK         0.1015 
     92 H92        23.9170  -23.9060  -40.7293 H         1 UNK         0.0786 
     93 H93        24.9054  -24.6000  -42.0149 H         1 UNK         0.0786 
     94 H94        25.6120  -24.2600  -40.4409 H         1 UNK         0.0786 
     95 H95        24.6755  -27.7460  -42.3646 H         1 UNK         0.3172 
     96 H96        27.4212  -28.5973  -41.5346 H         1 UNK         0.0595 
     97 H97        27.2795  -27.5838  -43.7989 H         1 UNK         0.0839 
     98 H98        26.0297  -28.7373  -44.2628 H         1 UNK         0.0839 
     99 H99        27.6580  -29.2953  -43.9046 H         1 UNK         0.0839 
    100 H100       24.1765  -29.7540  -42.5253 H         1 UNK         0.2998 
    101 H101       24.8022  -32.5521  -42.3629 H         1 UNK         0.0822 
    102 H102       22.9421  -31.4897  -43.7484 H         1 UNK         0.0787 
    103 H103       22.3858  -32.8221  -42.7507 H         1 UNK         0.0787 
    104 H104       22.0739  -31.1709  -42.2435 H         1 UNK         0.0787 
    105 H105       23.5180  -34.0647  -40.9651 H         1 UNK         0.3055 
    106 H106       23.9119  -33.4880  -38.1463 H         1 UNK         0.1106 
    107 H107       23.1256  -35.8370  -37.8604 H         1 UNK         0.0828 
    108 H108       22.6836  -35.9196  -39.5595 H         1 UNK         0.0828 
    109 H109       24.3748  -35.7407  -39.0891 H         1 UNK         0.0828 
    110 H110       21.1438  -33.4243  -40.3388 H         1 UNK         0.2931 
    111 H111       19.1352  -33.4018  -38.2566 H         1 UNK         0.0412 
    112 H112       17.6129  -31.5757  -37.8434 H         1 UNK         0.3472 
    113 H113       18.2590  -29.9575  -37.9024 H         1 UNK         0.3472 
    114 H114       17.5337  -32.8717  -40.1280 H         1 UNK         0.0970 
    115 H115       18.4286  -34.3398  -40.3136 H         1 UNK         0.0970 
    116 H116       17.1781  -31.3263  -41.9318 H         1 UNK         0.0612 
    117 H117       18.6413  -30.4313  -41.5719 H         1 UNK         0.0612 
@<TRIPOS>BOND
     1    1    2 1    
     2    1   62 1    
     3    1   63 1    
     4    1   64 1    
     5    2    3 2    
     6    2    4 am   BACKBONE|DICT|INTERRES
     7    4    5 1    
     8    4   65 1    
     9    5    6 1    
    10    5   25 1    
    11    5   66 1    
    12    6    7 1    
    13    6   67 1    
    14    6   68 1    
    15    7    8 1    
    16    8    9 1    
    17    8   69 1    
    18    8   70 1    
    19    9   10 ar   
    20    9   14 ar   
    21   10   11 ar   
    22   10   71 1    
    23   11   12 ar   
    24   11   61 1    
    25   12   13 ar   
    26   12   72 1    
    27   13   14 ar   
    28   13   15 1    
    29   14   73 1    
    30   15   16 1    
    31   15   74 1    
    32   15   75 1    
    33   16   17 1    
    34   17   18 1    
    35   17   76 1    
    36   17   77 1    
    37   18   19 1    
    38   18   27 1    
    39   18   78 1    
    40   19   20 am   BACKBONE|DICT|INTERRES
    41   19   79 1    
    42   20   21 2    
    43   20   22 1    
    44   22   23 1    
    45   22   24 1    
    46   22   80 1    
    47   23   81 1    
    48   23   82 1    
    49   23   83 1    
    50   24   25 am   BACKBONE|DICT|INTERRES
    51   24   84 1    
    52   25   26 2    
    53   27   28 2    
    54   27   29 am   BACKBONE|DICT|INTERRES
    55   29   30 1    
    56   29   85 1    
    57   30   31 1    
    58   30   32 1    
    59   30   86 1    
    60   31   87 1    
    61   31   88 1    
    62   31   89 1    
    63   32   33 2    
    64   32   34 am   BACKBONE|DICT|INTERRES
    65   34   35 1    
    66   34   90 1    
    67   35   36 1    
    68   35   37 1    
    69   35   91 1    
    70   36   92 1    
    71   36   93 1    
    72   36   94 1    
    73   37   38 2    
    74   37   39 am   BACKBONE|DICT|INTERRES
    75   39   40 1    
    76   39   95 1    
    77   40   41 1    
    78   40   42 1    
    79   40   96 1    
    80   41   97 1    
    81   41   98 1    
    82   41   99 1    
    83   42   43 2    
    84   42   44 am   BACKBONE|DICT|INTERRES
    85   44   45 1    
    86   44  100 1    
    87   45   46 1    
    88   45   47 1    
    89   45  101 1    
    90   46  102 1    
    91   46  103 1    
    92   46  104 1    
    93   47   48 2    
    94   47   49 am   BACKBONE|DICT|INTERRES
    95   49   50 1    
    96   49  105 1    
    97   50   51 1    
    98   50   52 1    
    99   50  106 1    
   100   51  107 1    
   101   51  108 1    
   102   51  109 1    
   103   52   53 2    
   104   52   54 am   BACKBONE|DICT|INTERRES
   105   54   55 1    
   106   54  110 1    
   107   55   56 1    
   108   55   59 1    
   109   55  111 1    
   110   56   57 am   BACKBONE|DICT|INTERRES
   111   56   58 2    
   112   57  112 1    
   113   57  113 1    
   114   59   60 1    
   115   59  114 1    
   116   59  115 1    
   117   60   61 1    
   118   61  116 1    
   119   61  117 1    
@<TRIPOS>SUBSTRUCTURE
     1 UNK         1 GROUP             0       ****    0 ROOT    
