@<TRIPOS>MOLECULE
3R8
117   119    1
SMALL
USER_CHARGES


@<TRIPOS>ATOM
      1 CA         16.0506  -24.5164  -47.0545 C.3       0 UNK        -0.2013 
      2 C          17.2914  -25.3463  -47.3478 C.2       0 UNK         0.4866 
      3 O          18.1051  -24.9530  -48.1835 O.2       0 UNK        -0.5176 
      4 N          17.4333  -26.4916  -46.6689 N.am      1 UNK        -0.4884 
      5 CA         18.5748  -27.4101  -46.7727 C.3       1 UNK         0.0853 
      6 C6         18.3557  -28.7416  -46.0144 C.3       10 UNK        -0.0849 
      7 S7         16.9182  -29.6896  -46.6158 S.3       10 UNK        -0.2776 
      8 C8         15.8387  -29.7417  -45.1434 C.3       10 UNK         0.0316 
      9 C9         16.5207  -30.2740  -43.8836 C.ar      10 UNK        -0.0863 
     10 C10        17.3582  -31.3945  -43.9226 C.ar      10 UNK        -0.1009 
     11 C11        17.9684  -31.8687  -42.7575 C.ar      10 UNK        -0.0712 
     12 C12        17.7331  -31.2160  -41.5425 C.ar      10 UNK        -0.0894 
     13 C13        16.8856  -30.1048  -41.4819 C.ar      10 UNK        -0.0745 
     14 C14        16.2822  -29.6450  -42.6585 C.ar      10 UNK        -0.0972 
     15 C15        16.5639  -29.4632  -40.1334 C.3       10 UNK         0.0209 
     16 S16        16.4766  -27.6408  -40.1938 S.3       10 UNK        -0.2568 
     17 C17        18.0781  -27.1418  -39.4798 C.3       10 UNK        -0.0983 
     18 CA         19.2756  -27.2096  -40.4613 C.3       3 UNK         0.0876 
     19 N          18.9633  -26.6139  -41.7696 N.am      3 UNK        -0.4424 
     20 C          19.7761  -26.5669  -42.8341 C.2       2 UNK         0.4918 
     21 O          20.9455  -26.9591  -42.8256 O.2       2 UNK        -0.4875 
     22 CA         19.1798  -25.9374  -44.1016 C.3       2 UNK         0.0481 
     23 CB         18.9517  -24.4287  -43.9012 C.3       2 UNK        -0.1831 
     24 N          20.1001  -26.1183  -45.2265 N.am      2 UNK        -0.4498 
     25 C          19.9350  -26.7761  -46.3856 C.2       1 UNK         0.5027 
     26 O          20.8680  -26.8804  -47.1805 O.2       1 UNK        -0.4969 
     27 C          20.5257  -26.6090  -39.7792 C.2       3 UNK         0.5005 
     28 O          21.1614  -27.2904  -38.9749 O.2       3 UNK        -0.5279 
     29 N          20.8762  -25.3605  -40.1277 N.am      4 UNK        -0.4463 
     30 CA         22.0766  -24.6435  -39.6821 C.3       4 UNK         0.0283 
     31 CB         22.0442  -23.2136  -40.2453 C.3       4 UNK        -0.1875 
     32 C          23.4047  -25.3344  -40.0523 C.2       4 UNK         0.4949 
     33 O          24.4137  -25.0801  -39.3949 O.2       4 UNK        -0.5039 
     34 N          23.3835  -26.2130  -41.0656 N.am      5 UNK        -0.4663 
     35 CA         24.5021  -27.0829  -41.4392 C.3       5 UNK         0.0242 
     36 CB         24.2979  -27.5480  -42.8891 C.3       5 UNK        -0.1982 
     37 C          24.6757  -28.2992  -40.5057 C.2       5 UNK         0.5017 
     38 O          25.6315  -29.0539  -40.6911 O.2       5 UNK        -0.5012 
     39 N          23.7564  -28.4900  -39.5460 N.am      6 UNK        -0.4439 
     40 CA         23.6604  -29.6236  -38.6238 C.3       6 UNK         0.0297 
     41 CB         24.8706  -29.6651  -37.6613 C.3       6 UNK        -0.2006 
     42 C          23.3995  -30.9342  -39.3894 C.2       6 UNK         0.4892 
     43 O          22.6251  -30.9238  -40.3478 O.2       6 UNK        -0.5089 
     44 N          24.0444  -32.0307  -38.9687 N.am      7 UNK        -0.4243 
     45 CA         23.8982  -33.3777  -39.5319 C.3       7 UNK         0.0196 
     46 CB         24.6645  -34.3721  -38.6435 C.3       7 UNK        -0.2007 
     47 C          24.3339  -33.5232  -41.0033 C.2       7 UNK         0.5020 
     48 O          23.9811  -34.5227  -41.6300 O.2       7 UNK        -0.5147 
     49 N          25.0876  -32.5490  -41.5341 N.am      8 UNK        -0.4734 
     50 CA         25.4711  -32.4903  -42.9461 C.3       8 UNK         0.0238 
     51 CB         26.6147  -31.4797  -43.1284 C.3       8 UNK        -0.1912 
     52 C          24.2918  -32.1444  -43.8728 C.2       8 UNK         0.5038 
     53 O          24.2788  -32.6157  -45.0106 O.2       8 UNK        -0.5046 
     54 N          23.3363  -31.3420  -43.3751 N.am      9 UNK        -0.4200 
     55 CA         22.1111  -30.9102  -44.0757 C.3       9 UNK         0.0839 
     56 C          22.3674  -30.1716  -45.4276 C.2       9 UNK         0.5513 
     57 N          23.4654  -29.4400  -45.5723 N.am      9 UNK        -0.7519 
     58 O          21.5731  -30.2597  -46.3588 O.2       9 UNK        -0.4960 
     59 C59        21.0658  -32.0568  -44.2006 C.3       10 UNK        -0.0876 
     60 S60        20.6049  -32.7622  -42.5799 S.3       10 UNK        -0.2414 
     61 C61        18.8346  -33.1208  -42.7998 C.3       10 UNK         0.0169 
     62 H62        15.4186  -24.9786  -46.2965 H         1 UNK         0.0903 
     63 H63        16.3373  -23.5271  -46.6986 H         1 UNK         0.0903 
     64 H64        15.4584  -24.3940  -47.9610 H         1 UNK         0.0903 
     65 H65        16.7110  -26.7718  -46.0226 H         1 UNK         0.3096 
     66 H66        18.6573  -27.6620  -47.8327 H         1 UNK         0.1121 
     67 H67        19.2211  -29.3907  -46.1388 H         1 UNK         0.0849 
     68 H68        18.2744  -28.5723  -44.9415 H         1 UNK         0.0849 
     69 H69        14.9759  -30.3713  -45.3645 H         1 UNK         0.0865 
     70 H70        15.4480  -28.7377  -44.9716 H         1 UNK         0.0865 
     71 H71        17.5291  -31.9029  -44.8616 H         1 UNK         0.1346 
     72 H72        18.1927  -31.5951  -40.6397 H         1 UNK         0.1412 
     73 H73        15.6088  -28.7999  -42.6174 H         1 UNK         0.1426 
     74 H74        17.2838  -29.7732  -39.3745 H         1 UNK         0.0716 
     75 H75        15.5947  -29.8399  -39.8043 H         1 UNK         0.0716 
     76 H76        18.2738  -27.7499  -38.5943 H         1 UNK         0.0695 
     77 H77        17.9483  -26.1207  -39.1148 H         1 UNK         0.0695 
     78 H78        19.4987  -28.2627  -40.6484 H         1 UNK         0.0983 
     79 H79        18.0148  -26.2802  -41.8651 H         1 UNK         0.3095 
     80 H80        18.2189  -26.4167  -44.2708 H         1 UNK         0.0454 
     81 H81        18.5552  -23.9664  -44.8052 H         1 UNK         0.0851 
     82 H82        19.8762  -23.9099  -43.6440 H         1 UNK         0.0851 
     83 H83        18.2339  -24.2332  -43.1039 H         1 UNK         0.0851 
     84 H84        21.0371  -25.7994  -45.0259 H         1 UNK         0.2976 
     85 H85        20.2854  -24.8787  -40.7891 H         1 UNK         0.3116 
     86 H86        22.0364  -24.5849  -38.5925 H         1 UNK         0.0646 
     87 H87        22.9097  -22.6415  -39.9078 H         1 UNK         0.0847 
     88 H88        21.1559  -22.6747  -39.9153 H         1 UNK         0.0847 
     89 H89        22.0570  -23.2085  -41.3360 H         1 UNK         0.0847 
     90 H90        22.5123  -26.3651  -41.5640 H         1 UNK         0.3040 
     91 H91        25.4277  -26.5051  -41.3908 H         1 UNK         0.1015 
     92 H92        24.1979  -26.7021  -43.5694 H         1 UNK         0.0786 
     93 H93        23.4022  -28.1625  -42.9849 H         1 UNK         0.0786 
     94 H94        25.1460  -28.1413  -43.2327 H         1 UNK         0.0786 
     95 H95        22.9673  -27.8512  -39.5037 H         1 UNK         0.3172 
     96 H96        22.7683  -29.4445  -38.0222 H         1 UNK         0.0595 
     97 H97        25.7978  -29.9271  -38.1725 H         1 UNK         0.0839 
     98 H98        24.7161  -30.3872  -36.8587 H         1 UNK         0.0839 
     99 H99        25.0223  -28.6962  -37.1854 H         1 UNK         0.0839 
    100 H100       24.6752  -31.9382  -38.1856 H         1 UNK         0.2998 
    101 H101       22.8366  -33.6319  -39.4941 H         1 UNK         0.0822 
    102 H102       25.7330  -34.1537  -38.6234 H         1 UNK         0.0787 
    103 H103       24.2968  -34.3549  -37.6172 H         1 UNK         0.0787 
    104 H104       24.5481  -35.3938  -39.0083 H         1 UNK         0.0787 
    105 H105       25.3359  -31.7581  -40.9552 H         1 UNK         0.3055 
    106 H106       25.8390  -33.4760  -43.2408 H         1 UNK         0.1106 
    107 H107       26.9490  -31.4540  -44.1665 H         1 UNK         0.0828 
    108 H108       26.3091  -30.4681  -42.8611 H         1 UNK         0.0828 
    109 H109       27.4786  -31.7418  -42.5175 H         1 UNK         0.0828 
    110 H110       23.3966  -31.0648  -42.4029 H         1 UNK         0.2931 
    111 H111       21.6661  -30.1493  -43.4328 H         1 UNK         0.0412 
    112 H112       24.1400  -29.3731  -44.8293 H         1 UNK         0.3472 
    113 H113       23.6227  -28.9637  -46.4463 H         1 UNK         0.3472 
    114 H114       20.1619  -31.6875  -44.6873 H         1 UNK         0.0970 
    115 H115       21.4480  -32.8573  -44.8360 H         1 UNK         0.0970 
    116 H116       18.6912  -33.6655  -43.7344 H         1 UNK         0.0612 
    117 H117       18.5176  -33.7966  -42.0043 H         1 UNK         0.0612 
@<TRIPOS>BOND
     1    1    2 1    
     2    1   62 1    
     3    1   63 1    
     4    1   64 1    
     5    2    3 2    
     6    2    4 am   BACKBONE|DICT|INTERRES
     7    4    5 1    
     8    4   65 1    
     9    5    6 1    
    10    5   25 1    
    11    5   66 1    
    12    6    7 1    
    13    6   67 1    
    14    6   68 1    
    15    7    8 1    
    16    8    9 1    
    17    8   69 1    
    18    8   70 1    
    19    9   10 ar   
    20    9   14 ar   
    21   10   11 ar   
    22   10   71 1    
    23   11   12 ar   
    24   11   61 1    
    25   12   13 ar   
    26   12   72 1    
    27   13   14 ar   
    28   13   15 1    
    29   14   73 1    
    30   15   16 1    
    31   15   74 1    
    32   15   75 1    
    33   16   17 1    
    34   17   18 1    
    35   17   76 1    
    36   17   77 1    
    37   18   19 1    
    38   18   27 1    
    39   18   78 1    
    40   19   20 am   BACKBONE|DICT|INTERRES
    41   19   79 1    
    42   20   21 2    
    43   20   22 1    
    44   22   23 1    
    45   22   24 1    
    46   22   80 1    
    47   23   81 1    
    48   23   82 1    
    49   23   83 1    
    50   24   25 am   BACKBONE|DICT|INTERRES
    51   24   84 1    
    52   25   26 2    
    53   27   28 2    
    54   27   29 am   BACKBONE|DICT|INTERRES
    55   29   30 1    
    56   29   85 1    
    57   30   31 1    
    58   30   32 1    
    59   30   86 1    
    60   31   87 1    
    61   31   88 1    
    62   31   89 1    
    63   32   33 2    
    64   32   34 am   BACKBONE|DICT|INTERRES
    65   34   35 1    
    66   34   90 1    
    67   35   36 1    
    68   35   37 1    
    69   35   91 1    
    70   36   92 1    
    71   36   93 1    
    72   36   94 1    
    73   37   38 2    
    74   37   39 am   BACKBONE|DICT|INTERRES
    75   39   40 1    
    76   39   95 1    
    77   40   41 1    
    78   40   42 1    
    79   40   96 1    
    80   41   97 1    
    81   41   98 1    
    82   41   99 1    
    83   42   43 2    
    84   42   44 am   BACKBONE|DICT|INTERRES
    85   44   45 1    
    86   44  100 1    
    87   45   46 1    
    88   45   47 1    
    89   45  101 1    
    90   46  102 1    
    91   46  103 1    
    92   46  104 1    
    93   47   48 2    
    94   47   49 am   BACKBONE|DICT|INTERRES
    95   49   50 1    
    96   49  105 1    
    97   50   51 1    
    98   50   52 1    
    99   50  106 1    
   100   51  107 1    
   101   51  108 1    
   102   51  109 1    
   103   52   53 2    
   104   52   54 am   BACKBONE|DICT|INTERRES
   105   54   55 1    
   106   54  110 1    
   107   55   56 1    
   108   55   59 1    
   109   55  111 1    
   110   56   57 am   BACKBONE|DICT|INTERRES
   111   56   58 2    
   112   57  112 1    
   113   57  113 1    
   114   59   60 1    
   115   59  114 1    
   116   59  115 1    
   117   60   61 1    
   118   61  116 1    
   119   61  117 1    
@<TRIPOS>SUBSTRUCTURE
     1 UNK         1 GROUP             0       ****    0 ROOT    
