@<TRIPOS>MOLECULE
3R8
117   119    1
SMALL
USER_CHARGES


@<TRIPOS>ATOM
      1 CA         18.9755  -27.5268  -41.8739 C.3       0 UNK        -0.2013 
      2 C          17.8036  -26.8073  -42.5210 C.2       0 UNK         0.4866 
      3 O          17.3689  -25.7752  -42.0108 O.2       0 UNK        -0.5176 
      4 N          17.2922  -27.3367  -43.6419 N.am      1 UNK        -0.4884 
      5 CA         16.1737  -26.7601  -44.4055 C.3       1 UNK         0.0853 
      6 C6         15.6522  -27.7188  -45.5030 C.3       10 UNK        -0.0849 
      7 S7         15.0525  -29.3002  -44.8226 S.3       10 UNK        -0.2776 
      8 C8         16.1978  -30.4953  -45.5846 C.3       10 UNK         0.0316 
      9 C9         17.5829  -30.4644  -44.9518 C.ar      10 UNK        -0.0863 
     10 C10        17.7604  -30.9273  -43.6456 C.ar      10 UNK        -0.1009 
     11 C11        19.0342  -30.9785  -43.0726 C.ar      10 UNK        -0.0712 
     12 C12        20.1392  -30.5482  -43.8153 C.ar      10 UNK        -0.0894 
     13 C13        19.9745  -30.0641  -45.1179 C.ar      10 UNK        -0.0745 
     14 C14        18.6934  -30.0271  -45.6809 C.ar      10 UNK        -0.0972 
     15 C15        21.1847  -29.6409  -45.9425 C.3       10 UNK         0.0209 
     16 S16        21.1532  -27.8757  -46.3918 S.3       10 UNK        -0.2568 
     17 C17        21.7888  -27.0881  -44.8753 C.3       10 UNK        -0.0983 
     18 CA         21.7738  -25.5393  -44.9759 C.3       3 UNK         0.0876 
     19 N          20.4135  -25.0261  -45.0944 N.am      3 UNK        -0.4424 
     20 C          19.9166  -24.3731  -46.1515 C.2       2 UNK         0.4918 
     21 O          20.5894  -24.0178  -47.1204 O.2       2 UNK        -0.4875 
     22 CA         18.3972  -24.1381  -46.1361 C.3       2 UNK         0.0481 
     23 CB         17.8227  -23.7928  -47.5251 C.3       2 UNK        -0.1831 
     24 N          17.7515  -25.3330  -45.5953 N.am      2 UNK        -0.4498 
     25 C          16.5441  -25.3977  -45.0250 C.2       1 UNK         0.5027 
     26 O          15.7583  -24.4517  -44.9547 O.2       1 UNK        -0.4969 
     27 C          22.3922  -24.8883  -43.7316 C.2       3 UNK         0.5005 
     28 O          21.9282  -25.1511  -42.6194 O.2       3 UNK        -0.5279 
     29 N          23.4070  -24.0383  -43.9337 N.am      4 UNK        -0.4463 
     30 CA         24.1909  -23.4279  -42.8593 C.3       4 UNK         0.0283 
     31 CB         24.9153  -22.1822  -43.3952 C.3       4 UNK        -0.1875 
     32 C          25.1990  -24.4463  -42.3078 C.2       4 UNK         0.4949 
     33 O          25.8556  -25.1265  -43.0995 O.2       4 UNK        -0.5039 
     34 N          25.2997  -24.5247  -40.9723 N.am      5 UNK        -0.4663 
     35 CA         26.1382  -25.4633  -40.2081 C.3       5 UNK         0.0242 
     36 CB         27.6334  -25.1119  -40.3688 C.3       5 UNK        -0.1982 
     37 C          25.8264  -26.9404  -40.5335 C.2       5 UNK         0.5017 
     38 O          26.7437  -27.7449  -40.7113 O.2       5 UNK        -0.5012 
     39 N          24.5265  -27.2502  -40.6409 N.am      6 UNK        -0.4439 
     40 CA         23.9892  -28.5625  -41.0017 C.3       6 UNK         0.0297 
     41 CB         22.4638  -28.4497  -41.1583 C.3       6 UNK        -0.2006 
     42 C          24.3275  -29.6648  -39.9842 C.2       6 UNK         0.4892 
     43 O          24.4306  -29.3960  -38.7841 O.2       6 UNK        -0.5089 
     44 N          24.4352  -30.8957  -40.4965 N.am      7 UNK        -0.4243 
     45 CA         24.5248  -32.1298  -39.7159 C.3       7 UNK         0.0196 
     46 CB         25.1611  -33.2162  -40.6042 C.3       7 UNK        -0.2007 
     47 C          23.1373  -32.5656  -39.2043 C.2       7 UNK         0.5020 
     48 O          22.1363  -31.8947  -39.4636 O.2       7 UNK        -0.5147 
     49 N          23.0924  -33.7115  -38.5105 N.am      8 UNK        -0.4734 
     50 CA         21.8608  -34.3294  -37.9984 C.3       8 UNK         0.0238 
     51 CB         22.2303  -35.5127  -37.0884 C.3       8 UNK        -0.1912 
     52 C          20.8710  -34.7798  -39.0930 C.2       8 UNK         0.5038 
     53 O          19.6823  -34.8992  -38.7971 O.2       8 UNK        -0.5046 
     54 N          21.3872  -35.0203  -40.3090 N.am      9 UNK        -0.4200 
     55 CA         20.6838  -35.3434  -41.5657 C.3       9 UNK         0.0839 
     56 C          19.7171  -36.5683  -41.5500 C.2       9 UNK         0.5513 
     57 N          19.8049  -37.4660  -40.5764 N.am      9 UNK        -0.7519 
     58 O          18.9109  -36.7414  -42.4609 O.2       9 UNK        -0.4960 
     59 C59        20.1281  -34.0867  -42.3034 C.3       10 UNK        -0.0876 
     60 S60        18.7308  -33.2412  -41.4854 S.3       10 UNK        -0.2414 
     61 C61        19.2034  -31.4885  -41.6474 C.3       10 UNK         0.0169 
     62 H62        18.6387  -28.0980  -41.0095 H         1 UNK         0.0903 
     63 H63        19.4596  -28.2077  -42.5691 H         1 UNK         0.0903 
     64 H64        19.7224  -26.8067  -41.5395 H         1 UNK         0.0903 
     65 H65        17.6491  -28.2185  -43.9876 H         1 UNK         0.3096 
     66 H66        15.3585  -26.5767  -43.7016 H         1 UNK         0.1121 
     67 H67        14.8190  -27.2612  -46.0406 H         1 UNK         0.0849 
     68 H68        16.4241  -27.9072  -46.2516 H         1 UNK         0.0849 
     69 H69        15.7822  -31.4973  -45.4672 H         1 UNK         0.0865 
     70 H70        16.2510  -30.3185  -46.6601 H         1 UNK         0.0865 
     71 H71        16.9050  -31.2683  -43.0777 H         1 UNK         0.1346 
     72 H72        21.1281  -30.5948  -43.3812 H         1 UNK         0.1412 
     73 H73        18.5695  -29.6773  -46.6971 H         1 UNK         0.1426 
     74 H74        21.2018  -30.2304  -46.8602 H         1 UNK         0.0716 
     75 H75        22.1166  -29.8655  -45.4212 H         1 UNK         0.0716 
     76 H76        22.8032  -27.4516  -44.7001 H         1 UNK         0.0695 
     77 H77        21.1843  -27.4292  -44.0346 H         1 UNK         0.0695 
     78 H78        22.3684  -25.2527  -45.8464 H         1 UNK         0.0983 
     79 H79        19.8200  -25.1879  -44.2935 H         1 UNK         0.3095 
     80 H80        18.2120  -23.3001  -45.4612 H         1 UNK         0.0454 
     81 H81        18.2871  -22.8922  -47.9286 H         1 UNK         0.0851 
     82 H82        16.7499  -23.6061  -47.4801 H         1 UNK         0.0851 
     83 H83        17.9931  -24.5983  -48.2402 H         1 UNK         0.0851 
     84 H84        18.3159  -26.1723  -45.6099 H         1 UNK         0.2976 
     85 H85        23.7461  -23.8926  -44.8740 H         1 UNK         0.3116 
     86 H86        23.5147  -23.1150  -42.0603 H         1 UNK         0.0646 
     87 H87        25.4911  -21.6974  -42.6057 H         1 UNK         0.0847 
     88 H88        24.2090  -21.4456  -43.7785 H         1 UNK         0.0847 
     89 H89        25.6108  -22.4309  -44.1980 H         1 UNK         0.0847 
     90 H90        24.7127  -23.9161  -40.4171 H         1 UNK         0.3040 
     91 H91        25.8816  -25.3277  -39.1559 H         1 UNK         0.1015 
     92 H92        28.2522  -25.7291  -39.7162 H         1 UNK         0.0786 
     93 H93        27.8268  -24.0717  -40.1071 H         1 UNK         0.0786 
     94 H94        27.9804  -25.2708  -41.3903 H         1 UNK         0.0786 
     95 H95        23.8508  -26.5177  -40.4795 H         1 UNK         0.3172 
     96 H96        24.4189  -28.8356  -41.9679 H         1 UNK         0.0595 
     97 H97        21.9852  -28.1405  -40.2281 H         1 UNK         0.0839 
     98 H98        22.0241  -29.4062  -41.4423 H         1 UNK         0.0839 
     99 H99        22.1967  -27.7284  -41.9280 H         1 UNK         0.0839 
    100 H100       24.2967  -31.0117  -41.4895 H         1 UNK         0.2998 
    101 H101       25.1675  -31.9577  -38.8497 H         1 UNK         0.0822 
    102 H102       26.1226  -32.8882  -41.0002 H         1 UNK         0.0787 
    103 H103       24.5225  -33.4719  -41.4510 H         1 UNK         0.0787 
    104 H104       25.3484  -34.1340  -40.0459 H         1 UNK         0.0787 
    105 H105       23.9556  -34.2037  -38.3272 H         1 UNK         0.3055 
    106 H106       21.3425  -33.5810  -37.3944 H         1 UNK         0.1106 
    107 H107       22.7745  -36.2867  -37.6309 H         1 UNK         0.0828 
    108 H108       22.8477  -35.1916  -36.2493 H         1 UNK         0.0828 
    109 H109       21.3363  -35.9768  -36.6688 H         1 UNK         0.0828 
    110 H110       22.3873  -34.9244  -40.3975 H         1 UNK         0.2931 
    111 H111       21.4926  -35.7012  -42.2040 H         1 UNK         0.0412 
    112 H112       20.4549  -37.3328  -39.8186 H         1 UNK         0.3472 
    113 H113       19.1890  -38.2639  -40.5818 H         1 UNK         0.3472 
    114 H114       20.9408  -33.3721  -42.4399 H         1 UNK         0.0970 
    115 H115       19.8116  -34.3512  -43.3139 H         1 UNK         0.0970 
    116 H116       20.2272  -31.3521  -41.2970 H         1 UNK         0.0612 
    117 H117       18.5728  -30.8949  -40.9844 H         1 UNK         0.0612 
@<TRIPOS>BOND
     1    1    2 1    
     2    1   62 1    
     3    1   63 1    
     4    1   64 1    
     5    2    3 2    
     6    2    4 am   BACKBONE|DICT|INTERRES
     7    4    5 1    
     8    4   65 1    
     9    5    6 1    
    10    5   25 1    
    11    5   66 1    
    12    6    7 1    
    13    6   67 1    
    14    6   68 1    
    15    7    8 1    
    16    8    9 1    
    17    8   69 1    
    18    8   70 1    
    19    9   10 ar   
    20    9   14 ar   
    21   10   11 ar   
    22   10   71 1    
    23   11   12 ar   
    24   11   61 1    
    25   12   13 ar   
    26   12   72 1    
    27   13   14 ar   
    28   13   15 1    
    29   14   73 1    
    30   15   16 1    
    31   15   74 1    
    32   15   75 1    
    33   16   17 1    
    34   17   18 1    
    35   17   76 1    
    36   17   77 1    
    37   18   19 1    
    38   18   27 1    
    39   18   78 1    
    40   19   20 am   BACKBONE|DICT|INTERRES
    41   19   79 1    
    42   20   21 2    
    43   20   22 1    
    44   22   23 1    
    45   22   24 1    
    46   22   80 1    
    47   23   81 1    
    48   23   82 1    
    49   23   83 1    
    50   24   25 am   BACKBONE|DICT|INTERRES
    51   24   84 1    
    52   25   26 2    
    53   27   28 2    
    54   27   29 am   BACKBONE|DICT|INTERRES
    55   29   30 1    
    56   29   85 1    
    57   30   31 1    
    58   30   32 1    
    59   30   86 1    
    60   31   87 1    
    61   31   88 1    
    62   31   89 1    
    63   32   33 2    
    64   32   34 am   BACKBONE|DICT|INTERRES
    65   34   35 1    
    66   34   90 1    
    67   35   36 1    
    68   35   37 1    
    69   35   91 1    
    70   36   92 1    
    71   36   93 1    
    72   36   94 1    
    73   37   38 2    
    74   37   39 am   BACKBONE|DICT|INTERRES
    75   39   40 1    
    76   39   95 1    
    77   40   41 1    
    78   40   42 1    
    79   40   96 1    
    80   41   97 1    
    81   41   98 1    
    82   41   99 1    
    83   42   43 2    
    84   42   44 am   BACKBONE|DICT|INTERRES
    85   44   45 1    
    86   44  100 1    
    87   45   46 1    
    88   45   47 1    
    89   45  101 1    
    90   46  102 1    
    91   46  103 1    
    92   46  104 1    
    93   47   48 2    
    94   47   49 am   BACKBONE|DICT|INTERRES
    95   49   50 1    
    96   49  105 1    
    97   50   51 1    
    98   50   52 1    
    99   50  106 1    
   100   51  107 1    
   101   51  108 1    
   102   51  109 1    
   103   52   53 2    
   104   52   54 am   BACKBONE|DICT|INTERRES
   105   54   55 1    
   106   54  110 1    
   107   55   56 1    
   108   55   59 1    
   109   55  111 1    
   110   56   57 am   BACKBONE|DICT|INTERRES
   111   56   58 2    
   112   57  112 1    
   113   57  113 1    
   114   59   60 1    
   115   59  114 1    
   116   59  115 1    
   117   60   61 1    
   118   61  116 1    
   119   61  117 1    
@<TRIPOS>SUBSTRUCTURE
     1 UNK         1 GROUP             0       ****    0 ROOT    
