@<TRIPOS>MOLECULE
3R8
117   119    1
SMALL
USER_CHARGES


@<TRIPOS>ATOM
      1 CA         16.9999  -22.0341  -46.2832 C.3       0 UNK        -0.2013 
      2 C          17.7352  -23.3052  -46.6804 C.2       0 UNK         0.4866 
      3 O          18.7355  -23.2358  -47.3943 O.2       0 UNK        -0.5176 
      4 N          17.2519  -24.4667  -46.2181 N.am      1 UNK        -0.4884 
      5 CA         17.8266  -25.7898  -46.5089 C.3       1 UNK         0.0853 
      6 C6         16.7357  -26.8941  -46.4597 C.3       10 UNK        -0.0849 
      7 S7         17.0452  -28.2153  -47.6815 S.3       10 UNK        -0.2776 
      8 C8         16.2679  -29.6640  -46.8940 C.3       10 UNK         0.0316 
      9 C9         16.9258  -30.0538  -45.5757 C.ar      10 UNK        -0.0863 
     10 C10        18.2854  -30.3797  -45.5280 C.ar      10 UNK        -0.1009 
     11 C11        18.8833  -30.7511  -44.3210 C.ar      10 UNK        -0.0712 
     12 C12        18.1030  -30.8345  -43.1668 C.ar      10 UNK        -0.0894 
     13 C13        16.7564  -30.4623  -43.1863 C.ar      10 UNK        -0.0745 
     14 C14        16.1703  -30.0865  -44.3988 C.ar      10 UNK        -0.0972 
     15 C15        15.9329  -30.4412  -41.9017 C.3       10 UNK         0.0209 
     16 S16        16.7979  -29.6752  -40.4832 S.3       10 UNK        -0.2568 
     17 C17        17.2815  -28.0340  -41.1289 C.3       10 UNK        -0.0983 
     18 CA         18.8108  -27.9240  -41.3679 C.3       3 UNK         0.0876 
     19 N          19.1504  -26.8094  -42.2553 N.am      3 UNK        -0.4424 
     20 C          20.3725  -26.5577  -42.7485 C.2       2 UNK         0.4918 
     21 O          21.3711  -27.2266  -42.4747 O.2       2 UNK        -0.4875 
     22 CA         20.4886  -25.3508  -43.7002 C.3       2 UNK         0.0481 
     23 CB         21.8421  -25.2980  -44.4451 C.3       2 UNK        -0.1831 
     24 N          19.3655  -25.2613  -44.6443 N.am      2 UNK        -0.4498 
     25 C          19.0524  -26.1286  -45.6232 C.2       1 UNK         0.5027 
     26 O          19.6937  -27.1545  -45.8503 O.2       1 UNK        -0.4969 
     27 C          19.6174  -27.8679  -40.0537 C.2       3 UNK         0.5005 
     28 O          19.4066  -26.9591  -39.2477 O.2       3 UNK        -0.5279 
     29 N          20.5539  -28.8187  -39.9044 N.am      4 UNK        -0.4463 
     30 CA         21.5142  -28.9791  -38.8042 C.3       4 UNK         0.0283 
     31 CB         20.7880  -29.2368  -37.4675 C.3       4 UNK        -0.1875 
     32 C          22.5591  -27.8499  -38.6869 C.2       4 UNK         0.4949 
     33 O          23.3189  -27.8355  -37.7172 O.2       4 UNK        -0.5039 
     34 N          22.6367  -26.9491  -39.6766 N.am      5 UNK        -0.4663 
     35 CA         23.6021  -25.8488  -39.7309 C.3       5 UNK         0.0242 
     36 CB         22.9698  -24.6577  -40.4721 C.3       5 UNK        -0.1982 
     37 C          24.9081  -26.3394  -40.3765 C.2       5 UNK         0.5017 
     38 O          25.2530  -25.9174  -41.4805 O.2       5 UNK        -0.5012 
     39 N          25.5648  -27.2841  -39.6879 N.am      6 UNK        -0.4439 
     40 CA         26.7655  -28.0398  -40.0764 C.3       6 UNK         0.0297 
     41 CB         27.9543  -27.1033  -40.3781 C.3       6 UNK        -0.2006 
     42 C          26.5451  -29.0707  -41.2047 C.2       6 UNK         0.4892 
     43 O          27.4854  -29.7932  -41.5395 O.2       6 UNK        -0.5089 
     44 N          25.3252  -29.1556  -41.7519 N.am      7 UNK        -0.4243 
     45 CA         24.9109  -30.1711  -42.7181 C.3       7 UNK         0.0196 
     46 CB         23.6558  -29.6785  -43.4543 C.3       7 UNK        -0.2007 
     47 C          24.6244  -31.4997  -42.0038 C.2       7 UNK         0.5020 
     48 O          24.0393  -31.4903  -40.9181 O.2       7 UNK        -0.5147 
     49 N          24.9993  -32.6181  -42.6397 N.am      8 UNK        -0.4734 
     50 CA         24.8563  -33.9791  -42.1012 C.3       8 UNK         0.0238 
     51 CB         25.5468  -34.9759  -43.0462 C.3       8 UNK        -0.1912 
     52 C          23.4011  -34.4075  -41.8382 C.2       8 UNK         0.5038 
     53 O          23.1596  -35.1941  -40.9219 O.2       8 UNK        -0.5046 
     54 N          22.4675  -33.8676  -42.6300 N.am      9 UNK        -0.4200 
     55 CA         21.0153  -33.9855  -42.4389 C.3       9 UNK         0.0839 
     56 C          20.4416  -33.1453  -41.2593 C.2       9 UNK         0.5513 
     57 N          21.2019  -32.2706  -40.6099 N.am      9 UNK        -0.7519 
     58 O          19.2765  -33.3083  -40.9091 O.2       9 UNK        -0.4960 
     59 C59        20.2190  -33.7868  -43.7649 C.3       10 UNK        -0.0876 
     60 S60        20.9098  -32.5680  -44.9426 S.3       10 UNK        -0.2414 
     61 C61        20.3845  -30.9768  -44.2418 C.3       10 UNK         0.0169 
     62 H62        16.1380  -22.2410  -45.6490 H         1 UNK         0.0903 
     63 H63        17.6688  -21.3674  -45.7396 H         1 UNK         0.0903 
     64 H64        16.6478  -21.5118  -47.1725 H         1 UNK         0.0903 
     65 H65        16.4258  -24.4627  -45.6352 H         1 UNK         0.3096 
     66 H66        18.2108  -25.7469  -47.5311 H         1 UNK         0.1121 
     67 H67        16.6365  -27.3086  -45.4548 H         1 UNK         0.0849 
     68 H68        15.7574  -26.4768  -46.7042 H         1 UNK         0.0849 
     69 H69        15.2046  -29.4612  -46.7566 H         1 UNK         0.0865 
     70 H70        16.3299  -30.5106  -47.5791 H         1 UNK         0.0865 
     71 H71        18.8853  -30.3171  -46.4259 H         1 UNK         0.1346 
     72 H72        18.5580  -31.1264  -42.2316 H         1 UNK         0.1412 
     73 H73        15.1242  -29.8129  -44.4249 H         1 UNK         0.1426 
     74 H74        15.6679  -31.4661  -41.6390 H         1 UNK         0.0716 
     75 H75        14.9934  -29.9084  -42.0570 H         1 UNK         0.0716 
     76 H76        16.9355  -27.2648  -40.4360 H         1 UNK         0.0695 
     77 H77        16.7416  -27.8570  -42.0605 H         1 UNK         0.0695 
     78 H78        19.1295  -28.8127  -41.9088 H         1 UNK         0.0983 
     79 H79        18.3949  -26.1906  -42.5071 H         1 UNK         0.3095 
     80 H80        20.4290  -24.4625  -43.0700 H         1 UNK         0.0454 
     81 H81        22.6784  -25.2292  -43.7502 H         1 UNK         0.0851 
     82 H82        21.8989  -24.4315  -45.1035 H         1 UNK         0.0851 
     83 H83        22.0090  -26.1898  -45.0496 H         1 UNK         0.0851 
     84 H84        18.7768  -24.4451  -44.5534 H         1 UNK         0.2976 
     85 H85        20.6719  -29.4760  -40.6629 H         1 UNK         0.3116 
     86 H86        22.0870  -29.8767  -39.0418 H         1 UNK         0.0646 
     87 H87        20.2517  -28.3535  -37.1200 H         1 UNK         0.0847 
     88 H88        20.0704  -30.0525  -37.5548 H         1 UNK         0.0847 
     89 H89        21.4951  -29.5129  -36.6843 H         1 UNK         0.0847 
     90 H90        22.0343  -27.0618  -40.4850 H         1 UNK         0.3040 
     91 H91        23.8400  -25.5141  -38.7183 H         1 UNK         0.1015 
     92 H92        23.6591  -23.8134  -40.5140 H         1 UNK         0.0786 
     93 H93        22.0651  -24.3146  -39.9699 H         1 UNK         0.0786 
     94 H94        22.7059  -24.9143  -41.4958 H         1 UNK         0.0786 
     95 H95        25.1373  -27.5751  -38.8139 H         1 UNK         0.3172 
     96 H96        27.0323  -28.6249  -39.1952 H         1 UNK         0.0595 
     97 H97        27.8035  -26.5338  -41.2954 H         1 UNK         0.0839 
     98 H98        28.8762  -27.6726  -40.5035 H         1 UNK         0.0839 
     99 H99        28.1207  -26.3961  -39.5657 H         1 UNK         0.0839 
    100 H100       24.6059  -28.5379  -41.4082 H         1 UNK         0.2998 
    101 H101       25.7126  -30.3135  -43.4461 H         1 UNK         0.0822 
    102 H102       23.3542  -30.3875  -44.2260 H         1 UNK         0.0787 
    103 H103       23.8305  -28.7206  -43.9452 H         1 UNK         0.0787 
    104 H104       22.8127  -29.5527  -42.7740 H         1 UNK         0.0787 
    105 H105       25.4602  -32.5351  -43.5353 H         1 UNK         0.3055 
    106 H106       25.3726  -34.0056  -41.1389 H         1 UNK         0.1106 
    107 H107       26.6069  -34.7481  -43.1596 H         1 UNK         0.0828 
    108 H108       25.4772  -35.9935  -42.6588 H         1 UNK         0.0828 
    109 H109       25.0933  -34.9740  -44.0382 H         1 UNK         0.0828 
    110 H110       22.7598  -33.2362  -43.3611 H         1 UNK         0.2931 
    111 H111       20.8314  -35.0181  -42.1351 H         1 UNK         0.0412 
    112 H112       22.1838  -32.1458  -40.8343 H         1 UNK         0.3472 
    113 H113       20.8067  -31.7979  -39.8145 H         1 UNK         0.3472 
    114 H114       19.1664  -33.5623  -43.5820 H         1 UNK         0.0970 
    115 H115       20.2056  -34.7389  -44.2973 H         1 UNK         0.0970 
    116 H116       20.7352  -30.9007  -43.2124 H         1 UNK         0.0612 
    117 H117       20.8859  -30.1756  -44.7872 H         1 UNK         0.0612 
@<TRIPOS>BOND
     1    1    2 1    
     2    1   62 1    
     3    1   63 1    
     4    1   64 1    
     5    2    3 2    
     6    2    4 am   BACKBONE|DICT|INTERRES
     7    4    5 1    
     8    4   65 1    
     9    5    6 1    
    10    5   25 1    
    11    5   66 1    
    12    6    7 1    
    13    6   67 1    
    14    6   68 1    
    15    7    8 1    
    16    8    9 1    
    17    8   69 1    
    18    8   70 1    
    19    9   10 ar   
    20    9   14 ar   
    21   10   11 ar   
    22   10   71 1    
    23   11   12 ar   
    24   11   61 1    
    25   12   13 ar   
    26   12   72 1    
    27   13   14 ar   
    28   13   15 1    
    29   14   73 1    
    30   15   16 1    
    31   15   74 1    
    32   15   75 1    
    33   16   17 1    
    34   17   18 1    
    35   17   76 1    
    36   17   77 1    
    37   18   19 1    
    38   18   27 1    
    39   18   78 1    
    40   19   20 am   BACKBONE|DICT|INTERRES
    41   19   79 1    
    42   20   21 2    
    43   20   22 1    
    44   22   23 1    
    45   22   24 1    
    46   22   80 1    
    47   23   81 1    
    48   23   82 1    
    49   23   83 1    
    50   24   25 am   BACKBONE|DICT|INTERRES
    51   24   84 1    
    52   25   26 2    
    53   27   28 2    
    54   27   29 am   BACKBONE|DICT|INTERRES
    55   29   30 1    
    56   29   85 1    
    57   30   31 1    
    58   30   32 1    
    59   30   86 1    
    60   31   87 1    
    61   31   88 1    
    62   31   89 1    
    63   32   33 2    
    64   32   34 am   BACKBONE|DICT|INTERRES
    65   34   35 1    
    66   34   90 1    
    67   35   36 1    
    68   35   37 1    
    69   35   91 1    
    70   36   92 1    
    71   36   93 1    
    72   36   94 1    
    73   37   38 2    
    74   37   39 am   BACKBONE|DICT|INTERRES
    75   39   40 1    
    76   39   95 1    
    77   40   41 1    
    78   40   42 1    
    79   40   96 1    
    80   41   97 1    
    81   41   98 1    
    82   41   99 1    
    83   42   43 2    
    84   42   44 am   BACKBONE|DICT|INTERRES
    85   44   45 1    
    86   44  100 1    
    87   45   46 1    
    88   45   47 1    
    89   45  101 1    
    90   46  102 1    
    91   46  103 1    
    92   46  104 1    
    93   47   48 2    
    94   47   49 am   BACKBONE|DICT|INTERRES
    95   49   50 1    
    96   49  105 1    
    97   50   51 1    
    98   50   52 1    
    99   50  106 1    
   100   51  107 1    
   101   51  108 1    
   102   51  109 1    
   103   52   53 2    
   104   52   54 am   BACKBONE|DICT|INTERRES
   105   54   55 1    
   106   54  110 1    
   107   55   56 1    
   108   55   59 1    
   109   55  111 1    
   110   56   57 am   BACKBONE|DICT|INTERRES
   111   56   58 2    
   112   57  112 1    
   113   57  113 1    
   114   59   60 1    
   115   59  114 1    
   116   59  115 1    
   117   60   61 1    
   118   61  116 1    
   119   61  117 1    
@<TRIPOS>SUBSTRUCTURE
     1 UNK         1 GROUP             0       ****    0 ROOT    
