@<TRIPOS>MOLECULE
3R8
117   119    1
SMALL
USER_CHARGES


@<TRIPOS>ATOM
      1 CA         24.2558  -29.8757  -46.3991 C.3       0 UNK        -0.2013 
      2 C          22.7836  -29.8355  -46.0177 C.2       0 UNK         0.4866 
      3 O          22.0258  -30.7124  -46.4298 O.2       0 UNK        -0.5176 
      4 N          22.3846  -28.8173  -45.2482 N.am      1 UNK        -0.4884 
      5 CA         21.0320  -28.6102  -44.7389 C.3       1 UNK         0.0853 
      6 C6         20.2689  -27.5147  -45.5342 C.3       10 UNK        -0.0849 
      7 S7         19.8064  -28.0545  -47.2141 S.3       10 UNK        -0.2776 
      8 C8         17.9917  -28.2023  -47.0854 C.3       10 UNK         0.0316 
      9 C9         17.5425  -29.0990  -45.9367 C.ar      10 UNK        -0.0863 
     10 C10        18.0408  -30.3982  -45.8110 C.ar      10 UNK        -0.1009 
     11 C11        17.6466  -31.2153  -44.7481 C.ar      10 UNK        -0.0712 
     12 C12        16.7209  -30.7321  -43.8163 C.ar      10 UNK        -0.0894 
     13 C13        16.1853  -29.4455  -43.9517 C.ar      10 UNK        -0.0745 
     14 C14        16.6074  -28.6330  -45.0086 C.ar      10 UNK        -0.0972 
     15 C15        15.0995  -28.9559  -43.0009 C.3       10 UNK         0.0209 
     16 S16        15.7581  -28.3249  -41.4262 S.3       10 UNK        -0.2568 
     17 C17        16.4867  -26.7205  -41.9128 C.3       10 UNK        -0.0983 
     18 CA         17.7823  -26.4142  -41.1239 C.3       3 UNK         0.0876 
     19 N          18.7579  -27.4999  -41.2523 N.am      3 UNK        -0.4424 
     20 C          19.8457  -27.6601  -40.4899 C.2       2 UNK         0.4918 
     21 O          20.1445  -26.9155  -39.5575 O.2       2 UNK        -0.4875 
     22 CA         20.7946  -28.8015  -40.8866 C.3       2 UNK         0.0481 
     23 CB         20.4576  -30.0662  -40.0856 C.3       2 UNK        -0.1831 
     24 N          20.7893  -29.0842  -42.3310 N.am      2 UNK        -0.4498 
     25 C          21.1719  -28.2023  -43.2656 C.2       1 UNK         0.5027 
     26 O          21.5968  -27.0759  -42.9946 O.2       1 UNK        -0.4969 
     27 C          18.3673  -25.0355  -41.5143 C.2       3 UNK         0.5005 
     28 O          17.8135  -24.0138  -41.1067 O.2       3 UNK        -0.5279 
     29 N          19.4836  -25.0260  -42.2606 N.am      4 UNK        -0.4463 
     30 CA         20.2820  -23.8431  -42.5941 C.3       4 UNK         0.0283 
     31 CB         20.6294  -23.8856  -44.0930 C.3       4 UNK        -0.1875 
     32 C          21.5609  -23.7571  -41.7343 C.2       4 UNK         0.4949 
     33 O          22.4419  -22.9588  -42.0540 O.2       4 UNK        -0.5039 
     34 N          21.6496  -24.5779  -40.6746 N.am      5 UNK        -0.4663 
     35 CA         22.7647  -24.7146  -39.7290 C.3       5 UNK         0.0242 
     36 CB         23.0024  -23.4007  -38.9527 C.3       5 UNK        -0.1982 
     37 C          24.0541  -25.2902  -40.3504 C.2       5 UNK         0.5017 
     38 O          25.1406  -25.0305  -39.8286 O.2       5 UNK        -0.5012 
     39 N          23.9197  -26.0750  -41.4287 N.am      6 UNK        -0.4439 
     40 CA         25.0074  -26.8246  -42.0599 C.3       6 UNK         0.0297 
     41 CB         24.9480  -26.6114  -43.5852 C.3       6 UNK        -0.2006 
     42 C          24.9573  -28.3041  -41.6232 C.2       6 UNK         0.4892 
     43 O          24.5104  -28.5963  -40.5114 O.2       6 UNK        -0.5089 
     44 N          25.4698  -29.2061  -42.4720 N.am      7 UNK        -0.4243 
     45 CA         25.6119  -30.6396  -42.1982 C.3       7 UNK         0.0196 
     46 CB         26.4359  -31.2859  -43.3238 C.3       7 UNK        -0.2007 
     47 C          24.2728  -31.3803  -42.0233 C.2       7 UNK         0.5020 
     48 O          23.2797  -31.0325  -42.6624 O.2       7 UNK        -0.5147 
     49 N          24.2986  -32.4162  -41.1773 N.am      8 UNK        -0.4734 
     50 CA         23.1827  -33.3205  -40.8931 C.3       8 UNK         0.0238 
     51 CB         23.5305  -34.0877  -39.6042 C.3       8 UNK        -0.1912 
     52 C          22.9388  -34.3024  -42.0612 C.2       8 UNK         0.5038 
     53 O          23.9260  -34.8010  -42.6041 O.2       8 UNK        -0.5046 
     54 N          21.6986  -34.6447  -42.4517 N.am      9 UNK        -0.4200 
     55 CA         20.3740  -34.1666  -42.0056 C.3       9 UNK         0.0839 
     56 C          20.0714  -34.4117  -40.5021 C.2       9 UNK         0.5513 
     57 N          20.3146  -35.6168  -40.0050 N.am      9 UNK        -0.7519 
     58 O          19.6345  -33.5180  -39.7832 O.2       9 UNK        -0.4960 
     59 C59        20.0340  -32.7333  -42.5045 C.3       10 UNK        -0.0876 
     60 S60        19.9832  -32.6553  -44.3225 S.3       10 UNK        -0.2414 
     61 C61        18.1923  -32.6332  -44.6534 C.3       10 UNK         0.0169 
     62 H62        24.8581  -29.2178  -45.7736 H         1 UNK         0.0903 
     63 H63        24.3809  -29.5708  -47.4377 H         1 UNK         0.0903 
     64 H64        24.6413  -30.8894  -46.2953 H         1 UNK         0.0903 
     65 H65        23.0571  -28.1366  -44.9290 H         1 UNK         0.3096 
     66 H66        20.4683  -29.5442  -44.7809 H         1 UNK         0.1121 
     67 H67        20.8826  -26.6182  -45.6325 H         1 UNK         0.0849 
     68 H68        19.3688  -27.2002  -45.0026 H         1 UNK         0.0849 
     69 H69        17.5690  -27.2014  -46.9848 H         1 UNK         0.0865 
     70 H70        17.6031  -28.6062  -48.0212 H         1 UNK         0.0865 
     71 H71        18.7539  -30.7709  -46.5347 H         1 UNK         0.1346 
     72 H72        16.3921  -31.3654  -43.0035 H         1 UNK         0.1412 
     73 H73        16.1903  -27.6413  -45.1203 H         1 UNK         0.1426 
     74 H74        14.4932  -28.1812  -43.4733 H         1 UNK         0.0716 
     75 H75        14.4163  -29.7785  -42.7845 H         1 UNK         0.0716 
     76 H76        15.7386  -25.9453  -41.7364 H         1 UNK         0.0695 
     77 H77        16.6874  -26.7130  -42.9840 H         1 UNK         0.0695 
     78 H78        17.5173  -26.3442  -40.0662 H         1 UNK         0.0983 
     79 H79        18.5672  -28.1809  -41.9724 H         1 UNK         0.3095 
     80 H80        21.8041  -28.4897  -40.6133 H         1 UNK         0.0454 
     81 H81        21.2404  -30.8132  -40.1912 H         1 UNK         0.0851 
     82 H82        19.5098  -30.5089  -40.3934 H         1 UNK         0.0851 
     83 H83        20.3808  -29.8461  -39.0197 H         1 UNK         0.0851 
     84 H84        20.5050  -30.0083  -42.6211 H         1 UNK         0.2976 
     85 H85        19.9008  -25.9111  -42.5233 H         1 UNK         0.3116 
     86 H86        19.7051  -22.9356  -42.4061 H         1 UNK         0.0646 
     87 H87        19.7395  -24.0213  -44.7077 H         1 UNK         0.0847 
     88 H88        21.1014  -22.9549  -44.4099 H         1 UNK         0.0847 
     89 H89        21.3258  -24.6926  -44.3208 H         1 UNK         0.0847 
     90 H90        20.8725  -25.2026  -40.4923 H         1 UNK         0.3040 
     91 H91        22.4423  -25.4614  -39.0016 H         1 UNK         0.1015 
     92 H92        23.4131  -22.6192  -39.5924 H         1 UNK         0.0786 
     93 H93        23.7073  -23.5515  -38.1342 H         1 UNK         0.0786 
     94 H94        22.0775  -23.0256  -38.5145 H         1 UNK         0.0786 
     95 H95        22.9884  -26.2656  -41.7852 H         1 UNK         0.3172 
     96 H96        25.9711  -26.4399  -41.7207 H         1 UNK         0.0595 
     97 H97        25.8064  -27.0538  -44.0916 H         1 UNK         0.0839 
     98 H98        24.9582  -25.5483  -43.8274 H         1 UNK         0.0839 
     99 H99        24.0452  -27.0325  -44.0189 H         1 UNK         0.0839 
    100 H100       25.8183  -28.8839  -43.3615 H         1 UNK         0.2998 
    101 H101       26.1750  -30.7315  -41.2667 H         1 UNK         0.0822 
    102 H102       27.4173  -30.8207  -43.4187 H         1 UNK         0.0787 
    103 H103       26.6001  -32.3468  -43.1294 H         1 UNK         0.0787 
    104 H104       25.9313  -31.2095  -44.2864 H         1 UNK         0.0787 
    105 H105       25.1780  -32.6546  -40.7421 H         1 UNK         0.3055 
    106 H106       22.2994  -32.7161  -40.7108 H         1 UNK         0.1106 
    107 H107       23.6675  -33.4075  -38.7634 H         1 UNK         0.0828 
    108 H108       22.7451  -34.7861  -39.3221 H         1 UNK         0.0828 
    109 H109       24.4463  -34.6699  -39.7164 H         1 UNK         0.0828 
    110 H110       21.6425  -35.3201  -43.1991 H         1 UNK         0.2931 
    111 H111       19.6638  -34.8255  -42.5076 H         1 UNK         0.0412 
    112 H112       20.6719  -36.3562  -40.5903 H         1 UNK         0.3472 
    113 H113       20.1223  -35.7954  -39.0315 H         1 UNK         0.3472 
    114 H114       19.0755  -32.3930  -42.1082 H         1 UNK         0.0970 
    115 H115       20.7774  -32.0166  -42.1651 H         1 UNK         0.0970 
    116 H116       18.0125  -33.1392  -45.6030 H         1 UNK         0.0612 
    117 H117       17.6632  -33.2144  -43.8966 H         1 UNK         0.0612 
@<TRIPOS>BOND
     1    1    2 1    
     2    1   62 1    
     3    1   63 1    
     4    1   64 1    
     5    2    3 2    
     6    2    4 am   BACKBONE|DICT|INTERRES
     7    4    5 1    
     8    4   65 1    
     9    5    6 1    
    10    5   25 1    
    11    5   66 1    
    12    6    7 1    
    13    6   67 1    
    14    6   68 1    
    15    7    8 1    
    16    8    9 1    
    17    8   69 1    
    18    8   70 1    
    19    9   10 ar   
    20    9   14 ar   
    21   10   11 ar   
    22   10   71 1    
    23   11   12 ar   
    24   11   61 1    
    25   12   13 ar   
    26   12   72 1    
    27   13   14 ar   
    28   13   15 1    
    29   14   73 1    
    30   15   16 1    
    31   15   74 1    
    32   15   75 1    
    33   16   17 1    
    34   17   18 1    
    35   17   76 1    
    36   17   77 1    
    37   18   19 1    
    38   18   27 1    
    39   18   78 1    
    40   19   20 am   BACKBONE|DICT|INTERRES
    41   19   79 1    
    42   20   21 2    
    43   20   22 1    
    44   22   23 1    
    45   22   24 1    
    46   22   80 1    
    47   23   81 1    
    48   23   82 1    
    49   23   83 1    
    50   24   25 am   BACKBONE|DICT|INTERRES
    51   24   84 1    
    52   25   26 2    
    53   27   28 2    
    54   27   29 am   BACKBONE|DICT|INTERRES
    55   29   30 1    
    56   29   85 1    
    57   30   31 1    
    58   30   32 1    
    59   30   86 1    
    60   31   87 1    
    61   31   88 1    
    62   31   89 1    
    63   32   33 2    
    64   32   34 am   BACKBONE|DICT|INTERRES
    65   34   35 1    
    66   34   90 1    
    67   35   36 1    
    68   35   37 1    
    69   35   91 1    
    70   36   92 1    
    71   36   93 1    
    72   36   94 1    
    73   37   38 2    
    74   37   39 am   BACKBONE|DICT|INTERRES
    75   39   40 1    
    76   39   95 1    
    77   40   41 1    
    78   40   42 1    
    79   40   96 1    
    80   41   97 1    
    81   41   98 1    
    82   41   99 1    
    83   42   43 2    
    84   42   44 am   BACKBONE|DICT|INTERRES
    85   44   45 1    
    86   44  100 1    
    87   45   46 1    
    88   45   47 1    
    89   45  101 1    
    90   46  102 1    
    91   46  103 1    
    92   46  104 1    
    93   47   48 2    
    94   47   49 am   BACKBONE|DICT|INTERRES
    95   49   50 1    
    96   49  105 1    
    97   50   51 1    
    98   50   52 1    
    99   50  106 1    
   100   51  107 1    
   101   51  108 1    
   102   51  109 1    
   103   52   53 2    
   104   52   54 am   BACKBONE|DICT|INTERRES
   105   54   55 1    
   106   54  110 1    
   107   55   56 1    
   108   55   59 1    
   109   55  111 1    
   110   56   57 am   BACKBONE|DICT|INTERRES
   111   56   58 2    
   112   57  112 1    
   113   57  113 1    
   114   59   60 1    
   115   59  114 1    
   116   59  115 1    
   117   60   61 1    
   118   61  116 1    
   119   61  117 1    
@<TRIPOS>SUBSTRUCTURE
     1 UNK         1 GROUP             0       ****    0 ROOT    
