@<TRIPOS>MOLECULE
3R8
117   119    1
SMALL
USER_CHARGES


@<TRIPOS>ATOM
      1 CA         19.1399  -28.3784  -41.4819 C.3       0 UNK        -0.2013 
      2 C          18.3018  -27.2306  -42.0214 C.2       0 UNK         0.4866 
      3 O          18.1227  -26.2403  -41.3136 O.2       0 UNK        -0.5176 
      4 N          17.7991  -27.3410  -43.2620 N.am      1 UNK        -0.4884 
      5 CA         17.0979  -26.2585  -43.9637 C.3       1 UNK         0.0853 
      6 C6         15.9797  -26.7740  -44.9212 C.3       10 UNK        -0.0849 
      7 S7         16.4753  -27.7233  -46.4095 S.3       10 UNK        -0.2776 
      8 C8         16.0288  -29.4360  -45.9940 C.3       10 UNK         0.0316 
      9 C9         17.0902  -30.0966  -45.1301 C.ar      10 UNK        -0.0863 
     10 C10        16.7790  -30.5386  -43.8424 C.ar      10 UNK        -0.1009 
     11 C11        17.7407  -31.1705  -43.0490 C.ar      10 UNK        -0.0712 
     12 C12        19.0337  -31.3447  -43.5659 C.ar      10 UNK        -0.0894 
     13 C13        19.3636  -30.8987  -44.8492 C.ar      10 UNK        -0.0745 
     14 C14        18.3807  -30.2886  -45.6315 C.ar      10 UNK        -0.0972 
     15 C15        20.7682  -31.1253  -45.4001 C.3       10 UNK         0.0209 
     16 S16        21.5494  -29.6163  -46.0672 S.3       10 UNK        -0.2568 
     17 C17        21.9377  -28.6752  -44.5530 C.3       10 UNK        -0.0983 
     18 CA         22.1575  -27.1682  -44.8414 C.3       3 UNK         0.0876 
     19 N          20.9951  -26.5585  -45.4971 N.am      3 UNK        -0.4424 
     20 C          20.9586  -25.3356  -46.0481 C.2       2 UNK         0.4918 
     21 O          21.9367  -24.5946  -46.1444 O.2       2 UNK        -0.4875 
     22 CA         19.5893  -24.8475  -46.5590 C.3       2 UNK         0.0481 
     23 CB         19.4579  -25.1015  -48.0686 C.3       2 UNK        -0.1831 
     24 N          18.4686  -25.4861  -45.8630 N.am      2 UNK        -0.4498 
     25 C          18.1446  -25.3009  -44.5778 C.2       1 UNK         0.5027 
     26 O          18.6934  -24.4608  -43.8637 O.2       1 UNK        -0.4969 
     27 C          22.5510  -26.4121  -43.5535 C.2       3 UNK         0.5005 
     28 O          23.7410  -26.3155  -43.2484 O.2       3 UNK        -0.5279 
     29 N          21.5479  -25.8599  -42.8498 N.am      4 UNK        -0.4463 
     30 CA         21.6483  -24.9911  -41.6739 C.3       4 UNK         0.0283 
     31 CB         22.0082  -23.5581  -42.1271 C.3       4 UNK        -0.1875 
     32 C          22.5777  -25.5641  -40.5853 C.2       4 UNK         0.4949 
     33 O          22.3119  -26.6545  -40.0773 O.2       4 UNK        -0.5039 
     34 N          23.6613  -24.8413  -40.2708 N.am      5 UNK        -0.4663 
     35 CA         24.6669  -25.1880  -39.2633 C.3       5 UNK         0.0242 
     36 CB         25.6297  -24.0009  -39.0946 C.3       5 UNK        -0.1982 
     37 C          25.4534  -26.4822  -39.5446 C.2       5 UNK         0.5017 
     38 O          26.0492  -27.0204  -38.6106 O.2       5 UNK        -0.5012 
     39 N          25.4437  -26.9727  -40.7946 N.am      6 UNK        -0.4439 
     40 CA         26.0422  -28.2594  -41.1635 C.3       6 UNK         0.0297 
     41 CB         26.2597  -28.3194  -42.6844 C.3       6 UNK        -0.2006 
     42 C          25.2095  -29.4674  -40.6949 C.2       6 UNK         0.4892 
     43 O          25.7610  -30.5666  -40.6303 O.2       6 UNK        -0.5089 
     44 N          23.9203  -29.2487  -40.3803 N.am      7 UNK        -0.4243 
     45 CA         22.9162  -30.2407  -39.9852 C.3       7 UNK         0.0196 
     46 CB         23.2390  -30.8441  -38.5996 C.3       7 UNK        -0.2007 
     47 C          22.7029  -31.2869  -41.0922 C.2       7 UNK         0.5020 
     48 O          21.9887  -30.9936  -42.0474 O.2       7 UNK        -0.5147 
     49 N          23.3346  -32.4621  -40.9527 N.am      8 UNK        -0.4734 
     50 CA         23.3242  -33.5965  -41.8880 C.3       8 UNK         0.0238 
     51 CB         23.9743  -33.2118  -43.2352 C.3       8 UNK        -0.1912 
     52 C          21.9383  -34.2545  -42.0433 C.2       8 UNK         0.5038 
     53 O          21.5945  -34.7252  -43.1293 O.2       8 UNK        -0.5046 
     54 N          21.1831  -34.2984  -40.9409 N.am      9 UNK        -0.4200 
     55 CA         19.8628  -34.9359  -40.8275 C.3       9 UNK         0.0839 
     56 C          19.5728  -35.5111  -39.4108 C.2       9 UNK         0.5513 
     57 N          20.5602  -35.6391  -38.5306 N.am      9 UNK        -0.7519 
     58 O          18.4396  -35.8747  -39.1061 O.2       9 UNK        -0.4960 
     59 C59        18.7191  -34.0500  -41.3934 C.3       10 UNK        -0.0876 
     60 S60        18.6158  -32.3984  -40.6186 S.3       10 UNK        -0.2414 
     61 C61        17.3203  -31.6277  -41.6484 C.3       10 UNK         0.0169 
     62 H62        18.5734  -28.9512  -40.7492 H         1 UNK         0.0903 
     63 H63        19.4640  -29.0507  -42.2709 H         1 UNK         0.0903 
     64 H64        20.0341  -27.9938  -40.9920 H         1 UNK         0.0903 
     65 H65        17.9343  -28.1939  -43.7903 H         1 UNK         0.3096 
     66 H66        16.5752  -25.6592  -43.2140 H         1 UNK         0.1121 
     67 H67        15.2719  -27.3723  -44.3455 H         1 UNK         0.0849 
     68 H68        15.3980  -25.9199  -45.2726 H         1 UNK         0.0849 
     69 H69        15.0478  -29.4608  -45.5168 H         1 UNK         0.0865 
     70 H70        15.9292  -30.0051  -46.9194 H         1 UNK         0.0865 
     71 H71        15.7791  -30.3962  -43.4545 H         1 UNK         0.1346 
     72 H72        19.7991  -31.8245  -42.9750 H         1 UNK         0.1412 
     73 H73        18.6216  -29.9584  -46.6332 H         1 UNK         0.1426 
     74 H74        20.7091  -31.8668  -46.1976 H         1 UNK         0.0716 
     75 H75        21.4200  -31.5502  -44.6369 H         1 UNK         0.0716 
     76 H76        21.1310  -28.8157  -43.8338 H         1 UNK         0.0695 
     77 H77        22.8292  -29.1156  -44.1016 H         1 UNK         0.0695 
     78 H78        23.0017  -27.0765  -45.5285 H         1 UNK         0.0983 
     79 H79        20.1563  -27.1179  -45.5207 H         1 UNK         0.3095 
     80 H80        19.5314  -23.7713  -46.3840 H         1 UNK         0.0454 
     81 H81        19.4959  -26.1657  -48.3052 H         1 UNK         0.0851 
     82 H82        18.5202  -24.7044  -48.4577 H         1 UNK         0.0851 
     83 H83        20.2661  -24.6163  -48.6176 H         1 UNK         0.0851 
     84 H84        17.9522  -26.1949  -46.3729 H         1 UNK         0.2976 
     85 H85        20.6099  -25.9808  -43.2037 H         1 UNK         0.3116 
     86 H86        20.6519  -24.9552  -41.2311 H         1 UNK         0.0646 
     87 H87        22.0270  -22.8648  -41.2852 H         1 UNK         0.0847 
     88 H88        21.2653  -23.1787  -42.8295 H         1 UNK         0.0847 
     89 H89        22.9773  -23.5146  -42.6261 H         1 UNK         0.0847 
     90 H90        23.8088  -23.9755  -40.7692 H         1 UNK         0.3040 
     91 H91        24.1416  -25.3402  -38.3178 H         1 UNK         0.1015 
     92 H92        25.0990  -23.0973  -38.7937 H         1 UNK         0.0786 
     93 H93        26.1684  -23.7845  -40.0180 H         1 UNK         0.0786 
     94 H94        26.3743  -24.2067  -38.3241 H         1 UNK         0.0786 
     95 H95        24.9113  -26.4920  -41.5144 H         1 UNK         0.3172 
     96 H96        27.0217  -28.3291  -40.6853 H         1 UNK         0.0595 
     97 H97        26.8374  -29.2037  -42.9565 H         1 UNK         0.0839 
     98 H98        26.8077  -27.4496  -43.0468 H         1 UNK         0.0839 
     99 H99        25.3163  -28.3757  -43.2277 H         1 UNK         0.0839 
    100 H100       23.5674  -28.3010  -40.4625 H         1 UNK         0.2998 
    101 H101       21.9731  -29.6991  -39.8927 H         1 UNK         0.0822 
    102 H102       23.2478  -30.0684  -37.8337 H         1 UNK         0.0787 
    103 H103       22.4840  -31.5745  -38.3054 H         1 UNK         0.0787 
    104 H104       24.2093  -31.3400  -38.5705 H         1 UNK         0.0787 
    105 H105       23.9360  -32.5648  -40.1465 H         1 UNK         0.3055 
    106 H106       23.9572  -34.3629  -41.4380 H         1 UNK         0.1106 
    107 H107       23.3816  -32.4780  -43.7797 H         1 UNK         0.0828 
    108 H108       24.9690  -32.7914  -43.0869 H         1 UNK         0.0828 
    109 H109       24.0849  -34.0834  -43.8813 H         1 UNK         0.0828 
    110 H110       21.5208  -33.8469  -40.1041 H         1 UNK         0.2931 
    111 H111       19.8944  -35.8312  -41.4514 H         1 UNK         0.0412 
    112 H112       20.3519  -36.0206  -37.6207 H         1 UNK         0.3472 
    113 H113       21.5133  -35.4240  -38.7732 H         1 UNK         0.3472 
    114 H114       18.8623  -33.9284  -42.4672 H         1 UNK         0.0970 
    115 H115       17.7543  -34.5497  -41.2893 H         1 UNK         0.0970 
    116 H116       16.4851  -32.3240  -41.7368 H         1 UNK         0.0612 
    117 H117       16.9384  -30.7626  -41.1052 H         1 UNK         0.0612 
@<TRIPOS>BOND
     1    1    2 1    
     2    1   62 1    
     3    1   63 1    
     4    1   64 1    
     5    2    3 2    
     6    2    4 am   BACKBONE|DICT|INTERRES
     7    4    5 1    
     8    4   65 1    
     9    5    6 1    
    10    5   25 1    
    11    5   66 1    
    12    6    7 1    
    13    6   67 1    
    14    6   68 1    
    15    7    8 1    
    16    8    9 1    
    17    8   69 1    
    18    8   70 1    
    19    9   10 ar   
    20    9   14 ar   
    21   10   11 ar   
    22   10   71 1    
    23   11   12 ar   
    24   11   61 1    
    25   12   13 ar   
    26   12   72 1    
    27   13   14 ar   
    28   13   15 1    
    29   14   73 1    
    30   15   16 1    
    31   15   74 1    
    32   15   75 1    
    33   16   17 1    
    34   17   18 1    
    35   17   76 1    
    36   17   77 1    
    37   18   19 1    
    38   18   27 1    
    39   18   78 1    
    40   19   20 am   BACKBONE|DICT|INTERRES
    41   19   79 1    
    42   20   21 2    
    43   20   22 1    
    44   22   23 1    
    45   22   24 1    
    46   22   80 1    
    47   23   81 1    
    48   23   82 1    
    49   23   83 1    
    50   24   25 am   BACKBONE|DICT|INTERRES
    51   24   84 1    
    52   25   26 2    
    53   27   28 2    
    54   27   29 am   BACKBONE|DICT|INTERRES
    55   29   30 1    
    56   29   85 1    
    57   30   31 1    
    58   30   32 1    
    59   30   86 1    
    60   31   87 1    
    61   31   88 1    
    62   31   89 1    
    63   32   33 2    
    64   32   34 am   BACKBONE|DICT|INTERRES
    65   34   35 1    
    66   34   90 1    
    67   35   36 1    
    68   35   37 1    
    69   35   91 1    
    70   36   92 1    
    71   36   93 1    
    72   36   94 1    
    73   37   38 2    
    74   37   39 am   BACKBONE|DICT|INTERRES
    75   39   40 1    
    76   39   95 1    
    77   40   41 1    
    78   40   42 1    
    79   40   96 1    
    80   41   97 1    
    81   41   98 1    
    82   41   99 1    
    83   42   43 2    
    84   42   44 am   BACKBONE|DICT|INTERRES
    85   44   45 1    
    86   44  100 1    
    87   45   46 1    
    88   45   47 1    
    89   45  101 1    
    90   46  102 1    
    91   46  103 1    
    92   46  104 1    
    93   47   48 2    
    94   47   49 am   BACKBONE|DICT|INTERRES
    95   49   50 1    
    96   49  105 1    
    97   50   51 1    
    98   50   52 1    
    99   50  106 1    
   100   51  107 1    
   101   51  108 1    
   102   51  109 1    
   103   52   53 2    
   104   52   54 am   BACKBONE|DICT|INTERRES
   105   54   55 1    
   106   54  110 1    
   107   55   56 1    
   108   55   59 1    
   109   55  111 1    
   110   56   57 am   BACKBONE|DICT|INTERRES
   111   56   58 2    
   112   57  112 1    
   113   57  113 1    
   114   59   60 1    
   115   59  114 1    
   116   59  115 1    
   117   60   61 1    
   118   61  116 1    
   119   61  117 1    
@<TRIPOS>SUBSTRUCTURE
     1 UNK         1 GROUP             0       ****    0 ROOT    
