@<TRIPOS>MOLECULE
3R8
117   119    1
SMALL
USER_CHARGES


@<TRIPOS>ATOM
      1 CA         15.1082  -22.6428  -42.7579 C.3       0 UNK        -0.2013 
      2 C          15.9307  -23.3671  -43.8130 C.2       0 UNK         0.4866 
      3 O          16.5024  -22.7230  -44.6934 O.2       0 UNK        -0.5176 
      4 N          15.9865  -24.7022  -43.7378 N.am      1 UNK        -0.4884 
      5 CA         16.7857  -25.5672  -44.6104 C.3       1 UNK         0.0853 
      6 C6         16.3227  -27.0486  -44.5542 C.3       10 UNK        -0.0849 
      7 S7         15.9051  -27.6820  -42.8866 S.3       10 UNK        -0.2776 
      8 C8         17.4317  -28.5244  -42.3715 C.3       10 UNK         0.0316 
      9 C9         17.6654  -29.8213  -43.1288 C.ar      10 UNK        -0.0863 
     10 C10        17.0725  -31.0080  -42.6942 C.ar      10 UNK        -0.1009 
     11 C11        17.3301  -32.2129  -43.3538 C.ar      10 UNK        -0.0712 
     12 C12        18.1829  -32.2193  -44.4626 C.ar      10 UNK        -0.0894 
     13 C13        18.7965  -31.0419  -44.9046 C.ar      10 UNK        -0.0745 
     14 C14        18.5111  -29.8432  -44.2387 C.ar      10 UNK        -0.0972 
     15 C15        19.7712  -31.1240  -46.0852 C.3       10 UNK         0.0209 
     16 S16        20.8630  -29.6758  -46.3507 S.3       10 UNK        -0.2568 
     17 C17        21.7468  -29.5731  -44.7525 C.3       10 UNK        -0.0983 
     18 CA         22.1224  -28.1337  -44.2936 C.3       3 UNK         0.0876 
     19 N          21.2192  -27.0787  -44.7838 N.am      3 UNK        -0.4424 
     20 C          21.4605  -25.7633  -44.6791 C.2       2 UNK         0.4918 
     21 O          22.4141  -25.2927  -44.0578 O.2       2 UNK        -0.4875 
     22 CA         20.4827  -24.8057  -45.3783 C.3       2 UNK         0.0481 
     23 CB         20.9599  -24.5201  -46.8110 C.3       2 UNK        -0.1831 
     24 N          19.0842  -25.2484  -45.4121 N.am      2 UNK        -0.4498 
     25 C          18.2964  -25.3891  -44.3355 C.2       1 UNK         0.5027 
     26 O          18.7125  -25.3577  -43.1747 O.2       1 UNK        -0.4969 
     27 C          22.3195  -28.1068  -42.7630 C.2       3 UNK         0.5005 
     28 O          23.3255  -28.6265  -42.2797 O.2       3 UNK        -0.5279 
     29 N          21.3753  -27.4992  -42.0252 N.am      4 UNK        -0.4463 
     30 CA         21.4128  -27.3173  -40.5694 C.3       4 UNK         0.0283 
     31 CB         20.0737  -26.7324  -40.0935 C.3       4 UNK        -0.1875 
     32 C          22.5852  -26.4522  -40.0697 C.2       4 UNK         0.4949 
     33 O          22.9359  -26.5438  -38.8938 O.2       4 UNK        -0.5039 
     34 N          23.1927  -25.6570  -40.9630 N.am      5 UNK        -0.4663 
     35 CA         24.4465  -24.9403  -40.7137 C.3       5 UNK         0.0242 
     36 CB         24.6103  -23.8430  -41.7782 C.3       5 UNK        -0.1982 
     37 C          25.6818  -25.8654  -40.6972 C.2       5 UNK         0.5017 
     38 O          26.7446  -25.4290  -40.2529 O.2       5 UNK        -0.5012 
     39 N          25.5309  -27.1031  -41.1867 N.am      6 UNK        -0.4439 
     40 CA         26.5531  -28.1396  -41.2450 C.3       6 UNK         0.0297 
     41 CB         26.9270  -28.3885  -42.7220 C.3       6 UNK        -0.2006 
     42 C          26.0325  -29.3814  -40.4991 C.2       6 UNK         0.4892 
     43 O          25.7845  -29.2969  -39.2954 O.2       6 UNK        -0.5089 
     44 N          25.9043  -30.5131  -41.2033 N.am      7 UNK        -0.4243 
     45 CA         25.5736  -31.8246  -40.6400 C.3       7 UNK         0.0196 
     46 CB         26.1614  -32.9073  -41.5626 C.3       7 UNK        -0.2007 
     47 C          24.0702  -32.0773  -40.4171 C.2       7 UNK         0.5020 
     48 O          23.7385  -33.0931  -39.8049 O.2       7 UNK        -0.5147 
     49 N          23.1926  -31.1969  -40.9228 N.am      8 UNK        -0.4734 
     50 CA         21.7339  -31.3664  -40.9985 C.3       8 UNK         0.0238 
     51 CB         21.0881  -31.4085  -39.5937 C.3       8 UNK        -0.1912 
     52 C          21.3598  -32.5428  -41.9238 C.2       8 UNK         0.5038 
     53 O          21.9318  -32.6437  -43.0116 O.2       8 UNK        -0.5046 
     54 N          20.4017  -33.3806  -41.5090 N.am      9 UNK        -0.4200 
     55 CA         19.9177  -34.5429  -42.2672 C.3       9 UNK         0.0839 
     56 C          21.0091  -35.6288  -42.4714 C.2       9 UNK         0.5513 
     57 N          21.0731  -36.2336  -43.6499 N.am      9 UNK        -0.7519 
     58 O          21.7571  -35.9642  -41.5558 O.2       9 UNK        -0.4960 
     59 C59        18.6467  -35.1696  -41.6352 C.3       10 UNK        -0.0876 
     60 S60        17.3211  -33.9829  -41.2210 S.3       10 UNK        -0.2414 
     61 C61        16.6826  -33.4989  -42.8580 C.3       10 UNK         0.0169 
     62 H62        14.6489  -23.3354  -42.0527 H         1 UNK         0.0903 
     63 H63        15.7408  -21.9565  -42.1956 H         1 UNK         0.0903 
     64 H64        14.3147  -22.0652  -43.2314 H         1 UNK         0.0903 
     65 H65        15.5239  -25.1843  -42.9790 H         1 UNK         0.3096 
     66 H66        16.6078  -25.2225  -45.6320 H         1 UNK         0.1121 
     67 H67        15.4094  -27.1408  -45.1441 H         1 UNK         0.0849 
     68 H68        17.0342  -27.7053  -45.0530 H         1 UNK         0.0849 
     69 H69        18.2820  -27.8544  -42.4910 H         1 UNK         0.0865 
     70 H70        17.3662  -28.7370  -41.3034 H         1 UNK         0.0865 
     71 H71        16.4193  -30.9985  -41.8321 H         1 UNK         0.1346 
     72 H72        18.3850  -33.1492  -44.9761 H         1 UNK         0.1412 
     73 H73        18.9645  -28.9199  -44.5621 H         1 UNK         0.1426 
     74 H74        19.1957  -31.2897  -46.9968 H         1 UNK         0.0716 
     75 H75        20.4088  -32.0006  -45.9583 H         1 UNK         0.0716 
     76 H76        21.1502  -30.0792  -43.9940 H         1 UNK         0.0695 
     77 H77        22.6529  -30.1764  -44.8331 H         1 UNK         0.0695 
     78 H78        23.1003  -27.9079  -44.7252 H         1 UNK         0.0983 
     79 H79        20.4452  -27.3861  -45.3539 H         1 UNK         0.3095 
     80 H80        20.5086  -23.8643  -44.8253 H         1 UNK         0.0454 
     81 H81        21.9908  -24.1628  -46.8158 H         1 UNK         0.0851 
     82 H82        20.9228  -25.4130  -47.4365 H         1 UNK         0.0851 
     83 H83        20.3529  -23.7498  -47.2870 H         1 UNK         0.0851 
     84 H84        18.6623  -25.3040  -46.3284 H         1 UNK         0.2976 
     85 H85        20.6052  -27.0611  -42.5123 H         1 UNK         0.3116 
     86 H86        21.5340  -28.3030  -40.1168 H         1 UNK         0.0646 
     87 H87        20.0849  -26.5505  -39.0178 H         1 UNK         0.0847 
     88 H88        19.2493  -27.4160  -40.2892 H         1 UNK         0.0847 
     89 H89        19.8501  -25.7829  -40.5817 H         1 UNK         0.0847 
     90 H90        22.8329  -25.6212  -41.9102 H         1 UNK         0.3040 
     91 H91        24.3851  -24.4627  -39.7332 H         1 UNK         0.1015 
     92 H92        23.7643  -23.1554  -41.7740 H         1 UNK         0.0786 
     93 H93        24.6949  -24.2642  -42.7809 H         1 UNK         0.0786 
     94 H94        25.5088  -23.2517  -41.5959 H         1 UNK         0.0786 
     95 H95        24.6069  -27.4022  -41.4863 H         1 UNK         0.3172 
     96 H96        27.4535  -27.8185  -40.7177 H         1 UNK         0.0595 
     97 H97        27.7005  -29.1521  -42.8145 H         1 UNK         0.0839 
     98 H98        27.3250  -27.4816  -43.1778 H         1 UNK         0.0839 
     99 H99        26.0672  -28.7002  -43.3170 H         1 UNK         0.0839 
    100 H100       26.0974  -30.4833  -42.1938 H         1 UNK         0.2998 
    101 H101       26.0581  -31.9146  -39.6651 H         1 UNK         0.0822 
    102 H102       25.7093  -32.8789  -42.5550 H         1 UNK         0.0787 
    103 H103       27.2391  -32.7901  -41.6785 H         1 UNK         0.0787 
    104 H104       25.9894  -33.9051  -41.1563 H         1 UNK         0.0787 
    105 H105       23.5545  -30.3848  -41.4152 H         1 UNK         0.3055 
    106 H106       21.3455  -30.4794  -41.4964 H         1 UNK         0.1106 
    107 H107       21.3364  -32.3203  -39.0498 H         1 UNK         0.0828 
    108 H108       21.4176  -30.5654  -38.9866 H         1 UNK         0.0828 
    109 H109       20.0010  -31.3455  -39.6576 H         1 UNK         0.0828 
    110 H110       19.9828  -33.2389  -40.6028 H         1 UNK         0.2931 
    111 H111       19.6444  -34.1731  -43.2546 H         1 UNK         0.0412 
    112 H112       21.7628  -36.9551  -43.7931 H         1 UNK         0.3472 
    113 H113       20.4566  -35.9752  -44.4046 H         1 UNK         0.3472 
    114 H114       18.9073  -35.6908  -40.7118 H         1 UNK         0.0970 
    115 H115       18.2318  -35.9323  -42.2972 H         1 UNK         0.0970 
    116 H116       16.8213  -34.3134  -43.5705 H         1 UNK         0.0612 
    117 H117       15.6060  -33.3419  -42.7790 H         1 UNK         0.0612 
@<TRIPOS>BOND
     1    1    2 1    
     2    1   62 1    
     3    1   63 1    
     4    1   64 1    
     5    2    3 2    
     6    2    4 am   BACKBONE|DICT|INTERRES
     7    4    5 1    
     8    4   65 1    
     9    5    6 1    
    10    5   25 1    
    11    5   66 1    
    12    6    7 1    
    13    6   67 1    
    14    6   68 1    
    15    7    8 1    
    16    8    9 1    
    17    8   69 1    
    18    8   70 1    
    19    9   10 ar   
    20    9   14 ar   
    21   10   11 ar   
    22   10   71 1    
    23   11   12 ar   
    24   11   61 1    
    25   12   13 ar   
    26   12   72 1    
    27   13   14 ar   
    28   13   15 1    
    29   14   73 1    
    30   15   16 1    
    31   15   74 1    
    32   15   75 1    
    33   16   17 1    
    34   17   18 1    
    35   17   76 1    
    36   17   77 1    
    37   18   19 1    
    38   18   27 1    
    39   18   78 1    
    40   19   20 am   BACKBONE|DICT|INTERRES
    41   19   79 1    
    42   20   21 2    
    43   20   22 1    
    44   22   23 1    
    45   22   24 1    
    46   22   80 1    
    47   23   81 1    
    48   23   82 1    
    49   23   83 1    
    50   24   25 am   BACKBONE|DICT|INTERRES
    51   24   84 1    
    52   25   26 2    
    53   27   28 2    
    54   27   29 am   BACKBONE|DICT|INTERRES
    55   29   30 1    
    56   29   85 1    
    57   30   31 1    
    58   30   32 1    
    59   30   86 1    
    60   31   87 1    
    61   31   88 1    
    62   31   89 1    
    63   32   33 2    
    64   32   34 am   BACKBONE|DICT|INTERRES
    65   34   35 1    
    66   34   90 1    
    67   35   36 1    
    68   35   37 1    
    69   35   91 1    
    70   36   92 1    
    71   36   93 1    
    72   36   94 1    
    73   37   38 2    
    74   37   39 am   BACKBONE|DICT|INTERRES
    75   39   40 1    
    76   39   95 1    
    77   40   41 1    
    78   40   42 1    
    79   40   96 1    
    80   41   97 1    
    81   41   98 1    
    82   41   99 1    
    83   42   43 2    
    84   42   44 am   BACKBONE|DICT|INTERRES
    85   44   45 1    
    86   44  100 1    
    87   45   46 1    
    88   45   47 1    
    89   45  101 1    
    90   46  102 1    
    91   46  103 1    
    92   46  104 1    
    93   47   48 2    
    94   47   49 am   BACKBONE|DICT|INTERRES
    95   49   50 1    
    96   49  105 1    
    97   50   51 1    
    98   50   52 1    
    99   50  106 1    
   100   51  107 1    
   101   51  108 1    
   102   51  109 1    
   103   52   53 2    
   104   52   54 am   BACKBONE|DICT|INTERRES
   105   54   55 1    
   106   54  110 1    
   107   55   56 1    
   108   55   59 1    
   109   55  111 1    
   110   56   57 am   BACKBONE|DICT|INTERRES
   111   56   58 2    
   112   57  112 1    
   113   57  113 1    
   114   59   60 1    
   115   59  114 1    
   116   59  115 1    
   117   60   61 1    
   118   61  116 1    
   119   61  117 1    
@<TRIPOS>SUBSTRUCTURE
     1 UNK         1 GROUP             0       ****    0 ROOT    
