@<TRIPOS>MOLECULE
3R8
117   119    1
SMALL
USER_CHARGES


@<TRIPOS>ATOM
      1 CA         17.1119  -23.3159  -48.6312 C.3       0 UNK        -0.2013 
      2 C          18.2434  -24.2653  -48.2667 C.2       0 UNK         0.4866 
      3 O          19.3934  -24.0131  -48.6267 O.2       0 UNK        -0.5176 
      4 N          17.9267  -25.3568  -47.5564 N.am      1 UNK        -0.4884 
      5 CA         18.8918  -26.3714  -47.1088 C.3       1 UNK         0.0853 
      6 C6         18.1705  -27.6832  -46.7063 C.3       10 UNK        -0.0849 
      7 S7         19.2476  -29.1487  -46.8455 S.3       10 UNK        -0.2776 
      8 C8         18.2034  -30.4331  -46.0900 C.3       10 UNK         0.0316 
      9 C9         18.1519  -30.3124  -44.5734 C.ar      10 UNK        -0.0863 
     10 C10        19.1915  -30.8259  -43.7935 C.ar      10 UNK        -0.1009 
     11 C11        19.1310  -30.7674  -42.3974 C.ar      10 UNK        -0.0712 
     12 C12        18.0259  -30.1707  -41.7825 C.ar      10 UNK        -0.0894 
     13 C13        16.9979  -29.6194  -42.5534 C.ar      10 UNK        -0.0745 
     14 C14        17.0586  -29.7078  -43.9472 C.ar      10 UNK        -0.0972 
     15 C15        15.8198  -28.9225  -41.8906 C.3       10 UNK         0.0209 
     16 S16        15.9918  -27.1101  -41.9704 S.3       10 UNK        -0.2568 
     17 C17        17.1903  -26.7739  -40.6346 C.3       10 UNK        -0.0983 
     18 CA         18.6558  -26.6706  -41.1266 C.3       3 UNK         0.0876 
     19 N          18.8205  -25.6863  -42.2015 N.am      3 UNK        -0.4424 
     20 C          19.9669  -25.4347  -42.8474 C.2       2 UNK         0.4918 
     21 O          21.0246  -26.0274  -42.6252 O.2       2 UNK        -0.4875 
     22 CA         19.8865  -24.3599  -43.9446 C.3       2 UNK         0.0481 
     23 CB         21.2426  -23.6754  -44.2187 C.3       2 UNK        -0.1831 
     24 N          19.2965  -24.9142  -45.1680 N.am      2 UNK        -0.4498 
     25 C          19.8072  -25.8633  -45.9714 C.2       1 UNK         0.5027 
     26 O          20.9398  -26.3320  -45.8593 O.2       1 UNK        -0.4969 
     27 C          19.6029  -26.3861  -39.9411 C.2       3 UNK         0.5005 
     28 O          19.8905  -25.2215  -39.6507 O.2       3 UNK        -0.5279 
     29 N          20.0967  -27.4575  -39.3046 N.am      4 UNK        -0.4463 
     30 CA         21.1274  -27.5009  -38.2549 C.3       4 UNK         0.0283 
     31 CB         20.7474  -26.6642  -37.0175 C.3       4 UNK        -0.1875 
     32 C          22.5397  -27.1526  -38.7609 C.2       4 UNK         0.4949 
     33 O          23.4812  -27.8729  -38.4322 O.2       4 UNK        -0.5039 
     34 N          22.6708  -26.1076  -39.5906 N.am      5 UNK        -0.4663 
     35 CA         23.9147  -25.7268  -40.2738 C.3       5 UNK         0.0242 
     36 CB         23.7289  -24.3699  -40.9699 C.3       5 UNK        -0.1982 
     37 C          24.3988  -26.7973  -41.2701 C.2       5 UNK         0.5017 
     38 O          25.6055  -26.9978  -41.4069 O.2       5 UNK        -0.5012 
     39 N          23.4462  -27.5064  -41.8924 N.am      6 UNK        -0.4439 
     40 CA         23.6524  -28.7003  -42.7182 C.3       6 UNK         0.0297 
     41 CB         22.3730  -28.9634  -43.5304 C.3       6 UNK        -0.2006 
     42 C          24.1049  -29.9590  -41.9401 C.2       6 UNK         0.4892 
     43 O          24.3700  -30.9807  -42.5763 O.2       6 UNK        -0.5089 
     44 N          24.2067  -29.8710  -40.6031 N.am      7 UNK        -0.4243 
     45 CA         24.8018  -30.8397  -39.6763 C.3       7 UNK         0.0196 
     46 CB         26.3392  -30.8492  -39.8379 C.3       7 UNK        -0.2007 
     47 C          24.1620  -32.2365  -39.7610 C.2       7 UNK         0.5020 
     48 O          23.0717  -32.4312  -39.2253 O.2       7 UNK        -0.5147 
     49 N          24.8523  -33.1798  -40.4162 N.am      8 UNK        -0.4734 
     50 CA         24.4246  -34.5684  -40.6140 C.3       8 UNK         0.0238 
     51 CB         25.6385  -35.4011  -41.0601 C.3       8 UNK        -0.1912 
     52 C          23.2586  -34.7379  -41.6072 C.2       8 UNK         0.5038 
     53 O          22.6859  -35.8277  -41.6622 O.2       8 UNK        -0.5046 
     54 N          22.9298  -33.6787  -42.3596 N.am      9 UNK        -0.4200 
     55 CA         21.8536  -33.6197  -43.3602 C.3       9 UNK         0.0839 
     56 C          22.1697  -34.4441  -44.6450 C.2       9 UNK         0.5513 
     57 N          21.2038  -34.6244  -45.5370 N.am      9 UNK        -0.7519 
     58 O          23.2934  -34.8895  -44.8721 O.2       9 UNK        -0.4960 
     59 C59        20.4324  -33.9125  -42.7738 C.3       10 UNK        -0.0876 
     60 S60        20.0326  -33.0957  -41.1846 S.3       10 UNK        -0.2414 
     61 C61        20.2639  -31.3305  -41.5514 C.3       10 UNK         0.0169 
     62 H62        17.3030  -22.3272  -48.2148 H         1 UNK         0.0903 
     63 H63        17.0369  -23.2205  -49.7141 H         1 UNK         0.0903 
     64 H64        16.1497  -23.6623  -48.2545 H         1 UNK         0.0903 
     65 H65        16.9621  -25.5179  -47.3007 H         1 UNK         0.3096 
     66 H66        19.5408  -26.5871  -47.9613 H         1 UNK         0.1121 
     67 H67        17.7631  -27.6113  -45.6963 H         1 UNK         0.0849 
     68 H68        17.3171  -27.8597  -47.3633 H         1 UNK         0.0849 
     69 H69        17.2002  -30.3894  -46.5171 H         1 UNK         0.0865 
     70 H70        18.6022  -31.4120  -46.3606 H         1 UNK         0.0865 
     71 H71        20.0445  -31.2763  -44.2795 H         1 UNK         0.1346 
     72 H72        17.9730  -30.1220  -40.7036 H         1 UNK         0.1412 
     73 H73        16.2556  -29.2959  -44.5433 H         1 UNK         0.1426 
     74 H74        15.7038  -29.2436  -40.8543 H         1 UNK         0.0716 
     75 H75        14.8988  -29.2091  -42.4004 H         1 UNK         0.0716 
     76 H76        17.0940  -27.5479  -39.8709 H         1 UNK         0.0695 
     77 H77        16.8892  -25.8412  -40.1534 H         1 UNK         0.0695 
     78 H78        18.9473  -27.6286  -41.5582 H         1 UNK         0.0983 
     79 H79        17.9929  -25.1642  -42.4470 H         1 UNK         0.3095 
     80 H80        19.2013  -23.5856  -43.5958 H         1 UNK         0.0454 
     81 H81        21.1620  -22.9431  -45.0217 H         1 UNK         0.0851 
     82 H82        22.0202  -24.3887  -44.4933 H         1 UNK         0.0851 
     83 H83        21.5914  -23.1464  -43.3317 H         1 UNK         0.0851 
     84 H84        18.3604  -24.5989  -45.3794 H         1 UNK         0.2976 
     85 H85        19.7953  -28.3673  -39.6238 H         1 UNK         0.3116 
     86 H86        21.1643  -28.5437  -37.9346 H         1 UNK         0.0646 
     87 H87        20.7468  -25.5941  -37.2255 H         1 UNK         0.0847 
     88 H88        21.4583  -26.8308  -36.2072 H         1 UNK         0.0847 
     89 H89        19.7603  -26.9343  -36.6427 H         1 UNK         0.0847 
     90 H90        21.8348  -25.5698  -39.8018 H         1 UNK         0.3040 
     91 H91        24.6906  -25.6170  -39.5129 H         1 UNK         0.1015 
     92 H92        22.9557  -24.4128  -41.7361 H         1 UNK         0.0786 
     93 H93        24.6521  -24.0517  -41.4562 H         1 UNK         0.0786 
     94 H94        23.4529  -23.5924  -40.2574 H         1 UNK         0.0786 
     95 H95        22.4908  -27.1710  -41.8155 H         1 UNK         0.3172 
     96 H96        24.4534  -28.4786  -43.4261 H         1 UNK         0.0595 
     97 H97        21.4920  -29.0151  -42.8919 H         1 UNK         0.0839 
     98 H98        22.4343  -29.8953  -44.0938 H         1 UNK         0.0839 
     99 H99        22.1997  -28.1656  -44.2529 H         1 UNK         0.0839 
    100 H100       23.9214  -29.0030  -40.1652 H         1 UNK         0.2998 
    101 H101       24.5849  -30.4716  -38.6721 H         1 UNK         0.0822 
    102 H102       26.7564  -29.8661  -39.6181 H         1 UNK         0.0787 
    103 H103       26.8051  -31.5542  -39.1479 H         1 UNK         0.0787 
    104 H104       26.6506  -31.1148  -40.8488 H         1 UNK         0.0787 
    105 H105       25.7243  -32.9089  -40.8481 H         1 UNK         0.3055 
    106 H106       24.0775  -34.9539  -39.6527 H         1 UNK         0.1106 
    107 H107       25.3707  -36.4524  -41.1755 H         1 UNK         0.0828 
    108 H108       26.0314  -35.0593  -42.0185 H         1 UNK         0.0828 
    109 H109       26.4449  -35.3542  -40.3279 H         1 UNK         0.0828 
    110 H110       23.4942  -32.8401  -42.2772 H         1 UNK         0.2931 
    111 H111       21.8682  -32.5861  -43.7025 H         1 UNK         0.0412 
    112 H112       21.4104  -35.1432  -46.3767 H         1 UNK         0.3472 
    113 H113       20.2767  -34.2575  -45.3950 H         1 UNK         0.3472 
    114 H114       20.3116  -34.9860  -42.6188 H         1 UNK         0.0970 
    115 H115       19.6573  -33.6346  -43.4883 H         1 UNK         0.0970 
    116 H116       21.2270  -31.1780  -42.0349 H         1 UNK         0.0612 
    117 H117       20.3228  -30.7907  -40.6054 H         1 UNK         0.0612 
@<TRIPOS>BOND
     1    1    2 1    
     2    1   62 1    
     3    1   63 1    
     4    1   64 1    
     5    2    3 2    
     6    2    4 am   BACKBONE|DICT|INTERRES
     7    4    5 1    
     8    4   65 1    
     9    5    6 1    
    10    5   25 1    
    11    5   66 1    
    12    6    7 1    
    13    6   67 1    
    14    6   68 1    
    15    7    8 1    
    16    8    9 1    
    17    8   69 1    
    18    8   70 1    
    19    9   10 ar   
    20    9   14 ar   
    21   10   11 ar   
    22   10   71 1    
    23   11   12 ar   
    24   11   61 1    
    25   12   13 ar   
    26   12   72 1    
    27   13   14 ar   
    28   13   15 1    
    29   14   73 1    
    30   15   16 1    
    31   15   74 1    
    32   15   75 1    
    33   16   17 1    
    34   17   18 1    
    35   17   76 1    
    36   17   77 1    
    37   18   19 1    
    38   18   27 1    
    39   18   78 1    
    40   19   20 am   BACKBONE|DICT|INTERRES
    41   19   79 1    
    42   20   21 2    
    43   20   22 1    
    44   22   23 1    
    45   22   24 1    
    46   22   80 1    
    47   23   81 1    
    48   23   82 1    
    49   23   83 1    
    50   24   25 am   BACKBONE|DICT|INTERRES
    51   24   84 1    
    52   25   26 2    
    53   27   28 2    
    54   27   29 am   BACKBONE|DICT|INTERRES
    55   29   30 1    
    56   29   85 1    
    57   30   31 1    
    58   30   32 1    
    59   30   86 1    
    60   31   87 1    
    61   31   88 1    
    62   31   89 1    
    63   32   33 2    
    64   32   34 am   BACKBONE|DICT|INTERRES
    65   34   35 1    
    66   34   90 1    
    67   35   36 1    
    68   35   37 1    
    69   35   91 1    
    70   36   92 1    
    71   36   93 1    
    72   36   94 1    
    73   37   38 2    
    74   37   39 am   BACKBONE|DICT|INTERRES
    75   39   40 1    
    76   39   95 1    
    77   40   41 1    
    78   40   42 1    
    79   40   96 1    
    80   41   97 1    
    81   41   98 1    
    82   41   99 1    
    83   42   43 2    
    84   42   44 am   BACKBONE|DICT|INTERRES
    85   44   45 1    
    86   44  100 1    
    87   45   46 1    
    88   45   47 1    
    89   45  101 1    
    90   46  102 1    
    91   46  103 1    
    92   46  104 1    
    93   47   48 2    
    94   47   49 am   BACKBONE|DICT|INTERRES
    95   49   50 1    
    96   49  105 1    
    97   50   51 1    
    98   50   52 1    
    99   50  106 1    
   100   51  107 1    
   101   51  108 1    
   102   51  109 1    
   103   52   53 2    
   104   52   54 am   BACKBONE|DICT|INTERRES
   105   54   55 1    
   106   54  110 1    
   107   55   56 1    
   108   55   59 1    
   109   55  111 1    
   110   56   57 am   BACKBONE|DICT|INTERRES
   111   56   58 2    
   112   57  112 1    
   113   57  113 1    
   114   59   60 1    
   115   59  114 1    
   116   59  115 1    
   117   60   61 1    
   118   61  116 1    
   119   61  117 1    
@<TRIPOS>SUBSTRUCTURE
     1 UNK         1 GROUP             0       ****    0 ROOT    
