@<TRIPOS>MOLECULE
3R8
117   119    1
SMALL
USER_CHARGES


@<TRIPOS>ATOM
      1 CA         22.3587  -30.6726  -46.0874 C.3       0 UNK        -0.2013 
      2 C          21.1973  -29.7621  -46.4496 C.2       0 UNK         0.4866 
      3 O          21.1334  -29.2728  -47.5770 O.2       0 UNK        -0.5176 
      4 N          20.2850  -29.5314  -45.4958 N.am      1 UNK        -0.4884 
      5 CA         19.1159  -28.6481  -45.6156 C.3       1 UNK         0.0853 
      6 C6         18.1074  -29.0979  -46.7105 C.3       10 UNK        -0.0849 
      7 S7         16.3982  -28.5381  -46.3829 S.3       10 UNK        -0.2776 
      8 C8         15.6953  -29.9417  -45.4580 C.3       10 UNK         0.0316 
      9 C9         16.3633  -30.1234  -44.1019 C.ar      10 UNK        -0.0863 
     10 C10        17.1929  -31.2244  -43.8687 C.ar      10 UNK        -0.1009 
     11 C11        17.8094  -31.4059  -42.6229 C.ar      10 UNK        -0.0712 
     12 C12        17.5945  -30.4554  -41.6189 C.ar      10 UNK        -0.0894 
     13 C13        16.7743  -29.3442  -41.8403 C.ar      10 UNK        -0.0745 
     14 C14        16.1541  -29.1891  -43.0827 C.ar      10 UNK        -0.0972 
     15 C15        16.5340  -28.3269  -40.7301 C.3       10 UNK         0.0209 
     16 S16        17.5611  -26.8308  -40.9113 S.3       10 UNK        -0.2568 
     17 C17        19.2149  -27.4913  -40.5166 C.3       10 UNK        -0.0983 
     18 CA         20.3902  -26.5455  -40.8728 C.3       3 UNK         0.0876 
     19 N          20.2841  -26.0327  -42.2439 N.am      3 UNK        -0.4424 
     20 C          21.2714  -25.5612  -43.0164 C.2       2 UNK         0.4918 
     21 O          22.4007  -25.2921  -42.6055 O.2       2 UNK        -0.4875 
     22 CA         20.9414  -25.4720  -44.5087 C.3       2 UNK         0.0481 
     23 CB         22.1069  -24.9580  -45.3735 C.3       2 UNK        -0.1831 
     24 N          20.5636  -26.8239  -44.9058 N.am      2 UNK        -0.4498 
     25 C          19.5158  -27.1552  -45.6664 C.2       1 UNK         0.5027 
     26 O          18.8719  -26.3412  -46.3302 O.2       1 UNK        -0.4969 
     27 C          20.7445  -25.5198  -39.7744 C.2       3 UNK         0.5005 
     28 O          20.7945  -25.8859  -38.5991 O.2       3 UNK        -0.5279 
     29 N          21.0889  -24.2875  -40.1704 N.am      4 UNK        -0.4463 
     30 CA         21.8899  -23.3613  -39.3677 C.3       4 UNK         0.0283 
     31 CB         21.8446  -21.9653  -40.0091 C.3       4 UNK        -0.1875 
     32 C          23.3515  -23.8370  -39.2156 C.2       4 UNK         0.4949 
     33 O          23.9942  -23.4791  -38.2284 O.2       4 UNK        -0.5039 
     34 N          23.8441  -24.6332  -40.1778 N.am      5 UNK        -0.4663 
     35 CA         25.1775  -25.2373  -40.1707 C.3       5 UNK         0.0242 
     36 CB         26.1359  -24.3998  -41.0350 C.3       5 UNK        -0.1982 
     37 C          25.1355  -26.6981  -40.6432 C.2       5 UNK         0.5017 
     38 O          25.6472  -27.5736  -39.9444 O.2       5 UNK        -0.5012 
     39 N          24.5145  -26.9528  -41.8038 N.am      6 UNK        -0.4439 
     40 CA         24.3787  -28.2775  -42.4166 C.3       6 UNK         0.0297 
     41 CB         24.3412  -28.1296  -43.9477 C.3       6 UNK        -0.2006 
     42 C          23.1361  -28.9947  -41.8654 C.2       6 UNK         0.4892 
     43 O          22.1510  -29.1833  -42.5842 O.2       6 UNK        -0.5089 
     44 N          23.1935  -29.3210  -40.5680 N.am      7 UNK        -0.4243 
     45 CA         22.1271  -29.9878  -39.8170 C.3       7 UNK         0.0196 
     46 CB         22.3308  -29.7264  -38.3167 C.3       7 UNK        -0.2007 
     47 C          22.0245  -31.4949  -40.1041 C.2       7 UNK         0.5020 
     48 O          20.9752  -32.0817  -39.8417 O.2       7 UNK        -0.5147 
     49 N          23.0963  -32.0934  -40.6381 N.am      8 UNK        -0.4734 
     50 CA         23.1042  -33.4555  -41.1667 C.3       8 UNK         0.0238 
     51 CB         24.4873  -34.0850  -40.9325 C.3       8 UNK        -0.1912 
     52 C          22.7804  -33.3956  -42.6652 C.2       8 UNK         0.5038 
     53 O          23.3934  -32.5976  -43.3773 O.2       8 UNK        -0.5046 
     54 N          21.8406  -34.2341  -43.1090 N.am      9 UNK        -0.4200 
     55 CA         21.3292  -34.2869  -44.4888 C.3       9 UNK         0.0839 
     56 C          21.2232  -35.7311  -45.0587 C.2       9 UNK         0.5513 
     57 N          21.7515  -36.7498  -44.3894 N.am      9 UNK        -0.7519 
     58 O          20.6765  -35.9327  -46.1401 O.2       9 UNK        -0.4960 
     59 C59        20.0222  -33.4586  -44.6501 C.3       10 UNK        -0.0876 
     60 S60        18.6913  -33.9743  -43.5066 S.3       10 UNK        -0.2414 
     61 C61        18.7070  -32.6031  -42.2985 C.3       10 UNK         0.0169 
     62 H62        23.2961  -30.2529  -46.4509 H         1 UNK         0.0903 
     63 H63        22.4446  -30.7999  -45.0088 H         1 UNK         0.0903 
     64 H64        22.2257  -31.6539  -46.5415 H         1 UNK         0.0903 
     65 H65        20.4225  -29.9403  -44.5803 H         1 UNK         0.3096 
     66 H66        18.6145  -28.7487  -44.6532 H         1 UNK         0.1121 
     67 H67        18.4167  -28.7371  -47.6930 H         1 UNK         0.0849 
     68 H68        18.0981  -30.1862  -46.7868 H         1 UNK         0.0849 
     69 H69        15.7724  -30.8486  -46.0601 H         1 UNK         0.0865 
     70 H70        14.6287  -29.7673  -45.3095 H         1 UNK         0.0865 
     71 H71        17.3484  -31.9363  -44.6660 H         1 UNK         0.1346 
     72 H72        18.0685  -30.5851  -40.6549 H         1 UNK         0.1412 
     73 H73        15.5159  -28.3340  -43.2613 H         1 UNK         0.1426 
     74 H74        16.7178  -28.7744  -39.7520 H         1 UNK         0.0716 
     75 H75        15.4838  -28.0313  -40.7334 H         1 UNK         0.0716 
     76 H76        19.3439  -28.4075  -41.0924 H         1 UNK         0.0695 
     77 H77        19.2405  -27.7987  -39.4695 H         1 UNK         0.0695 
     78 H78        21.2763  -27.1777  -40.8773 H         1 UNK         0.0983 
     79 H79        19.3792  -26.1783  -42.6691 H         1 UNK         0.3095 
     80 H80        20.0954  -24.7900  -44.6162 H         1 UNK         0.0454 
     81 H81        22.9922  -25.5871  -45.2909 H         1 UNK         0.0851 
     82 H82        22.3959  -23.9498  -45.0747 H         1 UNK         0.0851 
     83 H83        21.8260  -24.9165  -46.4257 H         1 UNK         0.0851 
     84 H84        21.0321  -27.5688  -44.4049 H         1 UNK         0.2976 
     85 H85        21.0226  -24.0854  -41.1581 H         1 UNK         0.3116 
     86 H86        21.4515  -23.2969  -38.3694 H         1 UNK         0.0646 
     87 H87        20.8228  -21.5917  -40.0766 H         1 UNK         0.0847 
     88 H88        22.2705  -21.9667  -41.0134 H         1 UNK         0.0847 
     89 H89        22.4123  -21.2466  -39.4163 H         1 UNK         0.0847 
     90 H90        23.2468  -24.8653  -40.9660 H         1 UNK         0.3040 
     91 H91        25.5665  -25.2528  -39.1497 H         1 UNK         0.1015 
     92 H92        26.2472  -23.3919  -40.6347 H         1 UNK         0.0786 
     93 H93        25.7841  -24.3127  -42.0637 H         1 UNK         0.0786 
     94 H94        27.1301  -24.8481  -41.0642 H         1 UNK         0.0786 
     95 H95        24.0267  -26.1965  -42.2749 H         1 UNK         0.3172 
     96 H96        25.2522  -28.8842  -42.1682 H         1 UNK         0.0595 
     97 H97        23.4517  -27.5993  -44.2836 H         1 UNK         0.0839 
     98 H98        24.3358  -29.1089  -44.4267 H         1 UNK         0.0839 
     99 H99        25.2145  -27.5931  -44.3188 H         1 UNK         0.0839 
    100 H100       24.0335  -29.0750  -40.0567 H         1 UNK         0.2998 
    101 H101       21.1728  -29.5497  -40.1098 H         1 UNK         0.0822 
    102 H102       22.3117  -28.6586  -38.0953 H         1 UNK         0.0787 
    103 H103       21.5388  -30.1914  -37.7279 H         1 UNK         0.0787 
    104 H104       23.2808  -30.1280  -37.9617 H         1 UNK         0.0787 
    105 H105       23.8945  -31.5203  -40.8696 H         1 UNK         0.3055 
    106 H106       22.3557  -34.0624  -40.6515 H         1 UNK         0.1106 
    107 H107       24.5186  -35.1083  -41.3090 H         1 UNK         0.0828 
    108 H108       25.2784  -33.5283  -41.4367 H         1 UNK         0.0828 
    109 H109       24.7298  -34.1235  -39.8704 H         1 UNK         0.0828 
    110 H110       21.3811  -34.8568  -42.4601 H         1 UNK         0.2931 
    111 H111       22.0709  -33.8225  -45.1409 H         1 UNK         0.0412 
    112 H112       22.2519  -36.6032  -43.5277 H         1 UNK         0.3472 
    113 H113       21.6813  -37.6784  -44.7762 H         1 UNK         0.3472 
    114 H114       20.2413  -32.4022  -44.4936 H         1 UNK         0.0970 
    115 H115       19.6460  -33.5215  -45.6727 H         1 UNK         0.0970 
    116 H116       19.7304  -32.2505  -42.1704 H         1 UNK         0.0612 
    117 H117       18.4034  -33.0143  -41.3346 H         1 UNK         0.0612 
@<TRIPOS>BOND
     1    1    2 1    
     2    1   62 1    
     3    1   63 1    
     4    1   64 1    
     5    2    3 2    
     6    2    4 am   BACKBONE|DICT|INTERRES
     7    4    5 1    
     8    4   65 1    
     9    5    6 1    
    10    5   25 1    
    11    5   66 1    
    12    6    7 1    
    13    6   67 1    
    14    6   68 1    
    15    7    8 1    
    16    8    9 1    
    17    8   69 1    
    18    8   70 1    
    19    9   10 ar   
    20    9   14 ar   
    21   10   11 ar   
    22   10   71 1    
    23   11   12 ar   
    24   11   61 1    
    25   12   13 ar   
    26   12   72 1    
    27   13   14 ar   
    28   13   15 1    
    29   14   73 1    
    30   15   16 1    
    31   15   74 1    
    32   15   75 1    
    33   16   17 1    
    34   17   18 1    
    35   17   76 1    
    36   17   77 1    
    37   18   19 1    
    38   18   27 1    
    39   18   78 1    
    40   19   20 am   BACKBONE|DICT|INTERRES
    41   19   79 1    
    42   20   21 2    
    43   20   22 1    
    44   22   23 1    
    45   22   24 1    
    46   22   80 1    
    47   23   81 1    
    48   23   82 1    
    49   23   83 1    
    50   24   25 am   BACKBONE|DICT|INTERRES
    51   24   84 1    
    52   25   26 2    
    53   27   28 2    
    54   27   29 am   BACKBONE|DICT|INTERRES
    55   29   30 1    
    56   29   85 1    
    57   30   31 1    
    58   30   32 1    
    59   30   86 1    
    60   31   87 1    
    61   31   88 1    
    62   31   89 1    
    63   32   33 2    
    64   32   34 am   BACKBONE|DICT|INTERRES
    65   34   35 1    
    66   34   90 1    
    67   35   36 1    
    68   35   37 1    
    69   35   91 1    
    70   36   92 1    
    71   36   93 1    
    72   36   94 1    
    73   37   38 2    
    74   37   39 am   BACKBONE|DICT|INTERRES
    75   39   40 1    
    76   39   95 1    
    77   40   41 1    
    78   40   42 1    
    79   40   96 1    
    80   41   97 1    
    81   41   98 1    
    82   41   99 1    
    83   42   43 2    
    84   42   44 am   BACKBONE|DICT|INTERRES
    85   44   45 1    
    86   44  100 1    
    87   45   46 1    
    88   45   47 1    
    89   45  101 1    
    90   46  102 1    
    91   46  103 1    
    92   46  104 1    
    93   47   48 2    
    94   47   49 am   BACKBONE|DICT|INTERRES
    95   49   50 1    
    96   49  105 1    
    97   50   51 1    
    98   50   52 1    
    99   50  106 1    
   100   51  107 1    
   101   51  108 1    
   102   51  109 1    
   103   52   53 2    
   104   52   54 am   BACKBONE|DICT|INTERRES
   105   54   55 1    
   106   54  110 1    
   107   55   56 1    
   108   55   59 1    
   109   55  111 1    
   110   56   57 am   BACKBONE|DICT|INTERRES
   111   56   58 2    
   112   57  112 1    
   113   57  113 1    
   114   59   60 1    
   115   59  114 1    
   116   59  115 1    
   117   60   61 1    
   118   61  116 1    
   119   61  117 1    
@<TRIPOS>SUBSTRUCTURE
     1 UNK         1 GROUP             0       ****    0 ROOT    
