@<TRIPOS>MOLECULE
3R8
117   119    1
SMALL
USER_CHARGES


@<TRIPOS>ATOM
      1 CA         15.2217  -24.2333  -40.9084 C.3       0 UNK        -0.2013 
      2 C          15.6867  -23.9843  -42.3353 C.2       0 UNK         0.4866 
      3 O          15.4859  -22.8905  -42.8633 O.2       0 UNK        -0.5176 
      4 N          16.3079  -24.9907  -42.9644 N.am      1 UNK        -0.4884 
      5 CA         16.7994  -24.9321  -44.3481 C.3       1 UNK         0.0853 
      6 C6         17.1460  -26.3355  -44.9023 C.3       10 UNK        -0.0849 
      7 S7         15.7702  -27.5322  -44.9025 S.3       10 UNK        -0.2776 
      8 C8         16.4395  -28.8933  -43.8752 C.3       10 UNK         0.0316 
      9 C9         17.5356  -29.7629  -44.5080 C.ar      10 UNK        -0.0863 
     10 C10        17.7728  -31.0283  -43.9592 C.ar      10 UNK        -0.1009 
     11 C11        18.7748  -31.8596  -44.4690 C.ar      10 UNK        -0.0712 
     12 C12        19.5788  -31.4020  -45.5191 C.ar      10 UNK        -0.0894 
     13 C13        19.3566  -30.1431  -46.0873 C.ar      10 UNK        -0.0745 
     14 C14        18.3194  -29.3469  -45.5940 C.ar      10 UNK        -0.0972 
     15 C15        20.1889  -29.6683  -47.2763 C.3       10 UNK         0.0209 
     16 S16        21.6989  -28.7588  -46.7931 S.3       10 UNK        -0.2568 
     17 C17        21.0702  -27.0829  -46.3842 C.3       10 UNK        -0.0983 
     18 CA         21.7036  -26.3841  -45.1393 C.3       3 UNK         0.0876 
     19 N          20.9044  -25.2296  -44.7214 N.am      3 UNK        -0.4424 
     20 C          21.2753  -24.2670  -43.8642 C.2       2 UNK         0.4918 
     21 O          22.4236  -24.1359  -43.4417 O.2       2 UNK        -0.4875 
     22 CA         20.1807  -23.3069  -43.3467 C.3       2 UNK         0.0481 
     23 CB         20.2971  -21.9123  -43.9937 C.3       2 UNK        -0.1831 
     24 N          18.8145  -23.8538  -43.4282 N.am      2 UNK        -0.4498 
     25 C          18.0529  -24.0472  -44.5167 C.2       1 UNK         0.5027 
     26 O          18.3639  -23.6644  -45.6439 O.2       1 UNK        -0.4969 
     27 C          21.9138  -27.3182  -43.9300 C.2       3 UNK         0.5005 
     28 O          22.9945  -27.3270  -43.3354 O.2       3 UNK        -0.5279 
     29 N          20.8795  -28.1181  -43.6233 N.am      4 UNK        -0.4463 
     30 CA         20.8367  -29.1605  -42.5914 C.3       4 UNK         0.0283 
     31 CB         20.7360  -28.5197  -41.1922 C.3       4 UNK        -0.1875 
     32 C          21.9819  -30.1897  -42.6957 C.2       4 UNK         0.4949 
     33 O          22.3933  -30.7358  -41.6734 O.2       4 UNK        -0.5039 
     34 N          22.5102  -30.3946  -43.9129 N.am      5 UNK        -0.4663 
     35 CA         23.7120  -31.1721  -44.2426 C.3       5 UNK         0.0242 
     36 CB         23.4175  -32.6821  -44.1553 C.3       5 UNK        -0.1982 
     37 C          24.9500  -30.7441  -43.4238 C.2       5 UNK         0.5017 
     38 O          25.7043  -31.6000  -42.9599 O.2       5 UNK        -0.5012 
     39 N          25.1102  -29.4220  -43.2470 N.am      6 UNK        -0.4439 
     40 CA         26.1065  -28.7492  -42.4049 C.3       6 UNK         0.0297 
     41 CB         27.5489  -29.0495  -42.8684 C.3       6 UNK        -0.2006 
     42 C          25.8684  -29.0245  -40.9075 C.2       6 UNK         0.4892 
     43 O          26.8000  -29.3858  -40.1863 O.2       6 UNK        -0.5089 
     44 N          24.6099  -28.8335  -40.4824 N.am      7 UNK        -0.4243 
     45 CA         24.0879  -29.0016  -39.1186 C.3       7 UNK         0.0196 
     46 CB         24.7132  -27.9666  -38.1588 C.3       7 UNK        -0.2007 
     47 C          24.1765  -30.4476  -38.5877 C.2       7 UNK         0.5020 
     48 O          24.3690  -30.6509  -37.3878 O.2       7 UNK        -0.5147 
     49 N          24.0055  -31.4266  -39.4830 N.am      8 UNK        -0.4734 
     50 CA         23.9364  -32.8538  -39.1640 C.3       8 UNK         0.0238 
     51 CB         24.7152  -33.6471  -40.2244 C.3       8 UNK        -0.1912 
     52 C          22.4826  -33.3482  -39.0790 C.2       8 UNK         0.5038 
     53 O          22.2112  -34.2661  -38.3039 O.2       8 UNK        -0.5046 
     54 N          21.5767  -32.7370  -39.8559 N.am      9 UNK        -0.4200 
     55 CA         20.1347  -33.0421  -39.8743 C.3       9 UNK         0.0839 
     56 C          19.3447  -32.4706  -38.6607 C.2       9 UNK         0.5513 
     57 N          19.9329  -31.6365  -37.8112 N.am      9 UNK        -0.7519 
     58 O          18.1736  -32.7962  -38.4846 O.2       9 UNK        -0.4960 
     59 C59        19.4655  -32.6231  -41.2121 C.3       10 UNK        -0.0876 
     60 S60        20.2467  -33.4031  -42.6645 S.3       10 UNK        -0.2414 
     61 C61        18.9444  -33.2740  -43.9268 C.3       10 UNK         0.0169 
     62 H62        14.1422  -24.1025  -40.8381 H         1 UNK         0.0903 
     63 H63        15.4634  -25.2405  -40.5695 H         1 UNK         0.0903 
     64 H64        15.6956  -23.5243  -40.2300 H         1 UNK         0.0903 
     65 H65        16.4159  -25.8787  -42.4952 H         1 UNK         0.3096 
     66 H66        16.0134  -24.4980  -44.9707 H         1 UNK         0.1121 
     67 H67        17.9840  -26.7585  -44.3451 H         1 UNK         0.0849 
     68 H68        17.4778  -26.2483  -45.9395 H         1 UNK         0.0849 
     69 H69        16.8155  -28.4819  -42.9376 H         1 UNK         0.0865 
     70 H70        15.5977  -29.5332  -43.6058 H         1 UNK         0.0865 
     71 H71        17.1623  -31.3776  -43.1374 H         1 UNK         0.1346 
     72 H72        20.3584  -32.0399  -45.9127 H         1 UNK         0.1412 
     73 H73        18.1265  -28.4076  -46.0825 H         1 UNK         0.1426 
     74 H74        19.5864  -29.0448  -47.9389 H         1 UNK         0.0716 
     75 H75        20.4870  -30.5313  -47.8736 H         1 UNK         0.0716 
     76 H76        19.9896  -27.1406  -46.2660 H         1 UNK         0.0695 
     77 H77        21.2236  -26.4526  -47.2616 H         1 UNK         0.0695 
     78 H78        22.6922  -26.0218  -45.4302 H         1 UNK         0.0983 
     79 H79        19.9599  -25.1834  -45.0725 H         1 UNK         0.3095 
     80 H80        20.3710  -23.1811  -42.2798 H         1 UNK         0.0454 
     81 H81        21.2633  -21.4612  -43.7644 H         1 UNK         0.0851 
     82 H82        19.5278  -21.2357  -43.6219 H         1 UNK         0.0851 
     83 H83        20.2152  -21.9524  -45.0799 H         1 UNK         0.0851 
     84 H84        18.4556  -24.2284  -42.5605 H         1 UNK         0.2976 
     85 H85        20.0641  -28.0771  -44.2168 H         1 UNK         0.3116 
     86 H86        19.9194  -29.7202  -42.7624 H         1 UNK         0.0646 
     87 H87        20.6354  -29.2760  -40.4125 H         1 UNK         0.0847 
     88 H88        21.6154  -27.9199  -40.9596 H         1 UNK         0.0847 
     89 H89        19.8641  -27.8700  -41.1200 H         1 UNK         0.0847 
     90 H90        22.0907  -29.8967  -44.6880 H         1 UNK         0.3040 
     91 H91        23.9509  -30.9456  -45.2830 H         1 UNK         0.1015 
     92 H92        24.2790  -33.2730  -44.4683 H         1 UNK         0.0786 
     93 H93        22.5838  -32.9593  -44.8001 H         1 UNK         0.0786 
     94 H94        23.1649  -32.9823  -43.1396 H         1 UNK         0.0786 
     95 H95        24.3866  -28.8093  -43.6117 H         1 UNK         0.3172 
     96 H96        25.9403  -27.6798  -42.5445 H         1 UNK         0.0595 
     97 H97        27.8270  -30.0896  -42.6969 H         1 UNK         0.0839 
     98 H98        28.2656  -28.4328  -42.3248 H         1 UNK         0.0839 
     99 H99        27.6780  -28.8370  -43.9294 H         1 UNK         0.0839 
    100 H100       23.9272  -28.5642  -41.1783 H         1 UNK         0.2998 
    101 H101       23.0216  -28.7819  -39.1768 H         1 UNK         0.0822 
    102 H102       24.2231  -27.9890  -37.1847 H         1 UNK         0.0787 
    103 H103       24.6113  -26.9531  -38.5468 H         1 UNK         0.0787 
    104 H104       25.7738  -28.1578  -37.9923 H         1 UNK         0.0787 
    105 H105       23.7746  -31.1616  -40.4372 H         1 UNK         0.3055 
    106 H106       24.4035  -33.0420  -38.1945 H         1 UNK         0.1106 
    107 H107       25.7589  -33.3348  -40.2638 H         1 UNK         0.0828 
    108 H108       24.7021  -34.7150  -40.0029 H         1 UNK         0.0828 
    109 H109       24.2929  -33.5140  -41.2195 H         1 UNK         0.0828 
    110 H110       21.8837  -32.0034  -40.4901 H         1 UNK         0.2931 
    111 H111       20.0372  -34.1270  -39.7996 H         1 UNK         0.0412 
    112 H112       19.4095  -31.2788  -37.0276 H         1 UNK         0.3472 
    113 H113       20.8975  -31.3769  -37.9369 H         1 UNK         0.3472 
    114 H114       18.4093  -32.8989  -41.2068 H         1 UNK         0.0970 
    115 H115       19.4963  -31.5406  -41.3319 H         1 UNK         0.0970 
    116 H116       19.1978  -33.9447  -44.7491 H         1 UNK         0.0612 
    117 H117       18.0029  -33.6450  -43.5189 H         1 UNK         0.0612 
@<TRIPOS>BOND
     1    1    2 1    
     2    1   62 1    
     3    1   63 1    
     4    1   64 1    
     5    2    3 2    
     6    2    4 am   BACKBONE|DICT|INTERRES
     7    4    5 1    
     8    4   65 1    
     9    5    6 1    
    10    5   25 1    
    11    5   66 1    
    12    6    7 1    
    13    6   67 1    
    14    6   68 1    
    15    7    8 1    
    16    8    9 1    
    17    8   69 1    
    18    8   70 1    
    19    9   10 ar   
    20    9   14 ar   
    21   10   11 ar   
    22   10   71 1    
    23   11   12 ar   
    24   11   61 1    
    25   12   13 ar   
    26   12   72 1    
    27   13   14 ar   
    28   13   15 1    
    29   14   73 1    
    30   15   16 1    
    31   15   74 1    
    32   15   75 1    
    33   16   17 1    
    34   17   18 1    
    35   17   76 1    
    36   17   77 1    
    37   18   19 1    
    38   18   27 1    
    39   18   78 1    
    40   19   20 am   BACKBONE|DICT|INTERRES
    41   19   79 1    
    42   20   21 2    
    43   20   22 1    
    44   22   23 1    
    45   22   24 1    
    46   22   80 1    
    47   23   81 1    
    48   23   82 1    
    49   23   83 1    
    50   24   25 am   BACKBONE|DICT|INTERRES
    51   24   84 1    
    52   25   26 2    
    53   27   28 2    
    54   27   29 am   BACKBONE|DICT|INTERRES
    55   29   30 1    
    56   29   85 1    
    57   30   31 1    
    58   30   32 1    
    59   30   86 1    
    60   31   87 1    
    61   31   88 1    
    62   31   89 1    
    63   32   33 2    
    64   32   34 am   BACKBONE|DICT|INTERRES
    65   34   35 1    
    66   34   90 1    
    67   35   36 1    
    68   35   37 1    
    69   35   91 1    
    70   36   92 1    
    71   36   93 1    
    72   36   94 1    
    73   37   38 2    
    74   37   39 am   BACKBONE|DICT|INTERRES
    75   39   40 1    
    76   39   95 1    
    77   40   41 1    
    78   40   42 1    
    79   40   96 1    
    80   41   97 1    
    81   41   98 1    
    82   41   99 1    
    83   42   43 2    
    84   42   44 am   BACKBONE|DICT|INTERRES
    85   44   45 1    
    86   44  100 1    
    87   45   46 1    
    88   45   47 1    
    89   45  101 1    
    90   46  102 1    
    91   46  103 1    
    92   46  104 1    
    93   47   48 2    
    94   47   49 am   BACKBONE|DICT|INTERRES
    95   49   50 1    
    96   49  105 1    
    97   50   51 1    
    98   50   52 1    
    99   50  106 1    
   100   51  107 1    
   101   51  108 1    
   102   51  109 1    
   103   52   53 2    
   104   52   54 am   BACKBONE|DICT|INTERRES
   105   54   55 1    
   106   54  110 1    
   107   55   56 1    
   108   55   59 1    
   109   55  111 1    
   110   56   57 am   BACKBONE|DICT|INTERRES
   111   56   58 2    
   112   57  112 1    
   113   57  113 1    
   114   59   60 1    
   115   59  114 1    
   116   59  115 1    
   117   60   61 1    
   118   61  116 1    
   119   61  117 1    
@<TRIPOS>SUBSTRUCTURE
     1 UNK         1 GROUP             0       ****    0 ROOT    
