@<TRIPOS>MOLECULE
3R8
117   119    1
SMALL
USER_CHARGES


@<TRIPOS>ATOM
      1 CA         16.6501  -30.8858  -40.7393 C.3       0 UNK        -0.2013 
      2 C          16.7061  -29.3877  -40.9933 C.2       0 UNK         0.4866 
      3 O          16.4025  -28.6044  -40.0929 O.2       0 UNK        -0.5176 
      4 N          17.0754  -28.9840  -42.2141 N.am      1 UNK        -0.4884 
      5 CA         17.1657  -27.5812  -42.6344 C.3       1 UNK         0.0853 
      6 C6         17.1599  -27.4236  -44.1791 C.3       10 UNK        -0.0849 
      7 S7         15.8364  -28.3837  -45.0009 S.3       10 UNK        -0.2776 
      8 C8         16.6478  -28.9820  -46.5253 C.3       10 UNK         0.0316 
      9 C9         17.9776  -29.6818  -46.2666 C.ar      10 UNK        -0.0863 
     10 C10        18.0332  -30.8474  -45.4974 C.ar      10 UNK        -0.1009 
     11 C11        19.2588  -31.4698  -45.2406 C.ar      10 UNK        -0.0712 
     12 C12        20.4350  -30.9179  -45.7578 C.ar      10 UNK        -0.0894 
     13 C13        20.3940  -29.7553  -46.5351 C.ar      10 UNK        -0.0745 
     14 C14        19.1589  -29.1513  -46.7943 C.ar      10 UNK        -0.0972 
     15 C15        21.6838  -29.1727  -47.1091 C.3       10 UNK         0.0209 
     16 S16        21.8390  -27.3675  -46.8815 S.3       10 UNK        -0.2568 
     17 C17        21.8752  -27.2416  -45.0662 C.3       10 UNK        -0.0983 
     18 CA         21.8283  -25.7737  -44.5612 C.3       3 UNK         0.0876 
     19 N          21.0596  -25.6810  -43.3171 N.am      3 UNK        -0.4424 
     20 C          20.4593  -24.5783  -42.8552 C.2       2 UNK         0.4918 
     21 O          20.5342  -23.4778  -43.4035 O.2       2 UNK        -0.4875 
     22 CA         19.5824  -24.7661  -41.6007 C.3       2 UNK         0.0481 
     23 CB         19.1116  -23.4282  -41.0015 C.3       2 UNK        -0.1831 
     24 N          18.4112  -25.5883  -41.9204 N.am      2 UNK        -0.4498 
     25 C          18.4319  -26.9213  -42.0543 C.2       1 UNK         0.5027 
     26 O          19.4287  -27.6080  -41.8155 O.2       1 UNK        -0.4969 
     27 C          23.2438  -25.1688  -44.4335 C.2       3 UNK         0.5005 
     28 O          23.8798  -24.9000  -45.4536 O.2       3 UNK        -0.5279 
     29 N          23.7343  -25.0055  -43.1935 N.am      4 UNK        -0.4463 
     30 CA         25.0651  -24.5366  -42.7704 C.3       4 UNK         0.0283 
     31 CB         25.4039  -23.1438  -43.3362 C.3       4 UNK        -0.1875 
     32 C          26.1846  -25.5529  -43.0545 C.2       4 UNK         0.4949 
     33 O          27.0072  -25.8081  -42.1756 O.2       4 UNK        -0.5039 
     34 N          26.1578  -26.1650  -44.2445 N.am      5 UNK        -0.4663 
     35 CA         26.9415  -27.3497  -44.6067 C.3       5 UNK         0.0242 
     36 CB         26.9205  -27.5067  -46.1359 C.3       5 UNK        -0.1982 
     37 C          26.4239  -28.6344  -43.9277 C.2       5 UNK         0.5017 
     38 O          27.1510  -29.6269  -43.8789 O.2       5 UNK        -0.5012 
     39 N          25.1870  -28.5910  -43.4203 N.am      6 UNK        -0.4439 
     40 CA         24.5060  -29.6366  -42.6706 C.3       6 UNK         0.0297 
     41 CB         23.8581  -30.6431  -43.6393 C.3       6 UNK        -0.2006 
     42 C          23.4479  -28.9688  -41.7840 C.2       6 UNK         0.4892 
     43 O          23.0377  -27.8381  -42.0626 O.2       6 UNK        -0.5089 
     44 N          23.0183  -29.6917  -40.7494 N.am      7 UNK        -0.4243 
     45 CA         21.9424  -29.3387  -39.8302 C.3       7 UNK         0.0196 
     46 CB         22.3650  -28.1837  -38.9006 C.3       7 UNK        -0.2007 
     47 C          21.5988  -30.5949  -39.0241 C.2       7 UNK         0.5020 
     48 O          22.4548  -31.4738  -38.8883 O.2       7 UNK        -0.5147 
     49 N          20.3668  -30.6477  -38.4961 N.am      8 UNK        -0.4734 
     50 CA         19.8125  -31.7331  -37.6698 C.3       8 UNK         0.0238 
     51 CB         20.4740  -31.7367  -36.2745 C.3       8 UNK        -0.1912 
     52 C          19.8767  -33.1087  -38.3671 C.2       8 UNK         0.5038 
     53 O          20.3748  -34.0760  -37.7878 O.2       8 UNK        -0.5046 
     54 N          19.3948  -33.1455  -39.6169 N.am      9 UNK        -0.4200 
     55 CA         19.4327  -34.3002  -40.5305 C.3       9 UNK         0.0839 
     56 C          18.7261  -35.5924  -40.0232 C.2       9 UNK         0.5513 
     57 N          17.7832  -35.5113  -39.0921 N.am      9 UNK        -0.7519 
     58 O          19.0360  -36.6842  -40.4925 O.2       9 UNK        -0.4960 
     59 C59        18.8911  -33.9356  -41.9387 C.3       10 UNK        -0.0876 
     60 S60        19.6109  -32.4209  -42.6632 S.3       10 UNK        -0.2414 
     61 C61        19.3040  -32.7519  -44.4252 C.3       10 UNK         0.0169 
     62 H62        17.3090  -31.1502  -39.9145 H         1 UNK         0.0903 
     63 H63        15.6360  -31.1805  -40.4705 H         1 UNK         0.0903 
     64 H64        16.9439  -31.4571  -41.6187 H         1 UNK         0.0903 
     65 H65        17.3435  -29.6609  -42.9139 H         1 UNK         0.3096 
     66 H66        16.2946  -27.0569  -42.2342 H         1 UNK         0.1121 
     67 H67        18.1303  -27.7099  -44.5855 H         1 UNK         0.0849 
     68 H68        17.0277  -26.3749  -44.4514 H         1 UNK         0.0849 
     69 H69        15.9755  -29.6734  -47.0351 H         1 UNK         0.0865 
     70 H70        16.7815  -28.1359  -47.2012 H         1 UNK         0.0865 
     71 H71        17.1206  -31.2663  -45.0954 H         1 UNK         0.1346 
     72 H72        21.3808  -31.4029  -45.5592 H         1 UNK         0.1412 
     73 H73        19.1222  -28.2543  -47.3975 H         1 UNK         0.1426 
     74 H74        21.7185  -29.3932  -48.1766 H         1 UNK         0.0716 
     75 H75        22.5577  -29.6539  -46.6674 H         1 UNK         0.0716 
     76 H76        22.7498  -27.7751  -44.6944 H         1 UNK         0.0695 
     77 H77        21.0126  -27.7945  -44.6897 H         1 UNK         0.0695 
     78 H78        21.2994  -25.1694  -45.3019 H         1 UNK         0.0983 
     79 H79        20.9317  -26.5463  -42.8002 H         1 UNK         0.3095 
     80 H80        20.1857  -25.2743  -40.8451 H         1 UNK         0.0454 
     81 H81        19.9625  -22.7958  -40.7449 H         1 UNK         0.0851 
     82 H82        18.5385  -23.5835  -40.0873 H         1 UNK         0.0851 
     83 H83        18.4870  -22.8670  -41.6976 H         1 UNK         0.0851 
     84 H84        17.5697  -25.0861  -42.1666 H         1 UNK         0.2976 
     85 H85        23.1467  -25.3439  -42.4421 H         1 UNK         0.3116 
     86 H86        25.0032  -24.4373  -41.6854 H         1 UNK         0.0646 
     87 H87        25.5397  -23.1590  -44.4178 H         1 UNK         0.0847 
     88 H88        24.6210  -22.4212  -43.1063 H         1 UNK         0.0847 
     89 H89        26.3310  -22.7666  -42.9028 H         1 UNK         0.0847 
     90 H90        25.4546  -25.8498  -44.9089 H         1 UNK         0.3040 
     91 H91        27.9740  -27.1990  -44.2836 H         1 UNK         0.1015 
     92 H92        27.5132  -28.3674  -46.4491 H         1 UNK         0.0786 
     93 H93        27.3386  -26.6296  -46.6303 H         1 UNK         0.0786 
     94 H94        25.9069  -27.6532  -46.5122 H         1 UNK         0.0786 
     95 H95        24.6818  -27.7145  -43.4417 H         1 UNK         0.3172 
     96 H96        25.2273  -30.1482  -42.0298 H         1 UNK         0.0595 
     97 H97        23.1151  -30.1630  -44.2758 H         1 UNK         0.0839 
     98 H98        23.3518  -31.4425  -43.0967 H         1 UNK         0.0839 
     99 H99        24.6011  -31.1111  -44.2851 H         1 UNK         0.0839 
    100 H100       23.3986  -30.6162  -40.5810 H         1 UNK         0.2998 
    101 H101       21.0681  -29.0470  -40.4138 H         1 UNK         0.0822 
    102 H102       21.5780  -27.9504  -38.1825 H         1 UNK         0.0787 
    103 H103       23.2625  -28.4337  -38.3336 H         1 UNK         0.0787 
    104 H104       22.5657  -27.2706  -39.4609 H         1 UNK         0.0787 
    105 H105       19.7462  -29.8676  -38.6668 H         1 UNK         0.3055 
    106 H106       18.7528  -31.5139  -37.5274 H         1 UNK         0.1106 
    107 H107       20.3779  -30.7666  -35.7871 H         1 UNK         0.0828 
    108 H108       20.0053  -32.4738  -35.6213 H         1 UNK         0.0828 
    109 H109       21.5356  -31.9801  -36.3291 H         1 UNK         0.0828 
    110 H110       19.0606  -32.2871  -40.0254 H         1 UNK         0.2931 
    111 H111       20.4882  -34.5550  -40.6433 H         1 UNK         0.0412 
    112 H112       17.3327  -36.3539  -38.7706 H         1 UNK         0.3472 
    113 H113       17.5259  -34.6205  -38.6991 H         1 UNK         0.3472 
    114 H114       19.0756  -34.7650  -42.6249 H         1 UNK         0.0970 
    115 H115       17.8073  -33.8077  -41.9077 H         1 UNK         0.0970 
    116 H116       20.0810  -33.4162  -44.8064 H         1 UNK         0.0612 
    117 H117       18.3599  -33.2874  -44.5384 H         1 UNK         0.0612 
@<TRIPOS>BOND
     1    1    2 1    
     2    1   62 1    
     3    1   63 1    
     4    1   64 1    
     5    2    3 2    
     6    2    4 am   BACKBONE|DICT|INTERRES
     7    4    5 1    
     8    4   65 1    
     9    5    6 1    
    10    5   25 1    
    11    5   66 1    
    12    6    7 1    
    13    6   67 1    
    14    6   68 1    
    15    7    8 1    
    16    8    9 1    
    17    8   69 1    
    18    8   70 1    
    19    9   10 ar   
    20    9   14 ar   
    21   10   11 ar   
    22   10   71 1    
    23   11   12 ar   
    24   11   61 1    
    25   12   13 ar   
    26   12   72 1    
    27   13   14 ar   
    28   13   15 1    
    29   14   73 1    
    30   15   16 1    
    31   15   74 1    
    32   15   75 1    
    33   16   17 1    
    34   17   18 1    
    35   17   76 1    
    36   17   77 1    
    37   18   19 1    
    38   18   27 1    
    39   18   78 1    
    40   19   20 am   BACKBONE|DICT|INTERRES
    41   19   79 1    
    42   20   21 2    
    43   20   22 1    
    44   22   23 1    
    45   22   24 1    
    46   22   80 1    
    47   23   81 1    
    48   23   82 1    
    49   23   83 1    
    50   24   25 am   BACKBONE|DICT|INTERRES
    51   24   84 1    
    52   25   26 2    
    53   27   28 2    
    54   27   29 am   BACKBONE|DICT|INTERRES
    55   29   30 1    
    56   29   85 1    
    57   30   31 1    
    58   30   32 1    
    59   30   86 1    
    60   31   87 1    
    61   31   88 1    
    62   31   89 1    
    63   32   33 2    
    64   32   34 am   BACKBONE|DICT|INTERRES
    65   34   35 1    
    66   34   90 1    
    67   35   36 1    
    68   35   37 1    
    69   35   91 1    
    70   36   92 1    
    71   36   93 1    
    72   36   94 1    
    73   37   38 2    
    74   37   39 am   BACKBONE|DICT|INTERRES
    75   39   40 1    
    76   39   95 1    
    77   40   41 1    
    78   40   42 1    
    79   40   96 1    
    80   41   97 1    
    81   41   98 1    
    82   41   99 1    
    83   42   43 2    
    84   42   44 am   BACKBONE|DICT|INTERRES
    85   44   45 1    
    86   44  100 1    
    87   45   46 1    
    88   45   47 1    
    89   45  101 1    
    90   46  102 1    
    91   46  103 1    
    92   46  104 1    
    93   47   48 2    
    94   47   49 am   BACKBONE|DICT|INTERRES
    95   49   50 1    
    96   49  105 1    
    97   50   51 1    
    98   50   52 1    
    99   50  106 1    
   100   51  107 1    
   101   51  108 1    
   102   51  109 1    
   103   52   53 2    
   104   52   54 am   BACKBONE|DICT|INTERRES
   105   54   55 1    
   106   54  110 1    
   107   55   56 1    
   108   55   59 1    
   109   55  111 1    
   110   56   57 am   BACKBONE|DICT|INTERRES
   111   56   58 2    
   112   57  112 1    
   113   57  113 1    
   114   59   60 1    
   115   59  114 1    
   116   59  115 1    
   117   60   61 1    
   118   61  116 1    
   119   61  117 1    
@<TRIPOS>SUBSTRUCTURE
     1 UNK         1 GROUP             0       ****    0 ROOT    
