@<TRIPOS>MOLECULE
3R8
117   119    1
SMALL
USER_CHARGES


@<TRIPOS>ATOM
      1 CA         15.1967  -25.1016  -47.2348 C.3       0 UNK        -0.2013 
      2 C          16.6135  -25.1646  -46.6841 C.2       0 UNK         0.4866 
      3 O          17.3208  -24.1573  -46.7016 O.2       0 UNK        -0.5176 
      4 N          17.0336  -26.3423  -46.2014 N.am      1 UNK        -0.4884 
      5 CA         18.3524  -26.5829  -45.6024 C.3       1 UNK         0.0853 
      6 C6         18.6193  -28.1026  -45.4535 C.3       10 UNK        -0.0849 
      7 S7         20.3482  -28.5061  -45.0304 S.3       10 UNK        -0.2776 
      8 C8         20.2636  -30.3224  -44.9087 C.3       10 UNK         0.0316 
      9 C9         19.3899  -30.7779  -43.7493 C.ar      10 UNK        -0.0863 
     10 C10        18.1951  -31.4603  -43.9907 C.ar      10 UNK        -0.1009 
     11 C11        17.4163  -31.9211  -42.9256 C.ar      10 UNK        -0.0712 
     12 C12        17.8091  -31.6412  -41.6127 C.ar      10 UNK        -0.0894 
     13 C13        18.9954  -30.9476  -41.3575 C.ar      10 UNK        -0.0745 
     14 C14        19.7928  -30.5440  -42.4321 C.ar      10 UNK        -0.0972 
     15 C15        19.4169  -30.6661  -39.9208 C.3       10 UNK         0.0209 
     16 S16        18.6642  -29.1316  -39.2907 S.3       10 UNK        -0.2568 
     17 C17        20.0665  -27.9569  -39.3060 C.3       10 UNK        -0.0983 
     18 CA         20.3648  -27.3520  -40.7045 C.3       3 UNK         0.0876 
     19 N          19.1809  -26.8263  -41.3926 N.am      3 UNK        -0.4424 
     20 C          18.4731  -25.7338  -41.0741 C.2       2 UNK         0.4918 
     21 O          18.6717  -25.0607  -40.0618 O.2       2 UNK        -0.4875 
     22 CA         17.3696  -25.3052  -42.0698 C.3       2 UNK         0.0481 
     23 CB         17.2749  -23.7698  -42.1903 C.3       2 UNK        -0.1831 
     24 N          17.4746  -25.9105  -43.4091 N.am      2 UNK        -0.4498 
     25 C          18.5142  -25.8395  -44.2593 C.2       1 UNK         0.5027 
     26 O          19.5659  -25.2480  -44.0102 O.2       1 UNK        -0.4969 
     27 C          21.5518  -26.3591  -40.7109 C.2       3 UNK         0.5005 
     28 O          22.3676  -26.3653  -39.7854 O.2       3 UNK        -0.5279 
     29 N          21.6371  -25.5242  -41.7597 N.am      4 UNK        -0.4463 
     30 CA         22.7207  -24.5665  -41.9832 C.3       4 UNK         0.0283 
     31 CB         22.3401  -23.6419  -43.1501 C.3       4 UNK        -0.1875 
     32 C          24.0574  -25.2684  -42.2725 C.2       4 UNK         0.4949 
     33 O          24.0664  -26.3749  -42.8154 O.2       4 UNK        -0.5039 
     34 N          25.1621  -24.6047  -41.9007 N.am      5 UNK        -0.4663 
     35 CA         26.5589  -25.0335  -42.0903 C.3       5 UNK         0.0242 
     36 CB         26.9283  -25.0003  -43.5891 C.3       5 UNK        -0.1982 
     37 C          26.9036  -26.3886  -41.4329 C.2       5 UNK         0.5017 
     38 O          27.8368  -27.0602  -41.8756 O.2       5 UNK        -0.5012 
     39 N          26.1377  -26.7638  -40.3963 N.am      6 UNK        -0.4439 
     40 CA         26.1801  -28.0374  -39.6683 C.3       6 UNK         0.0297 
     41 CB         27.5042  -28.1859  -38.8878 C.3       6 UNK        -0.2006 
     42 C          25.8581  -29.2668  -40.5464 C.2       6 UNK         0.4892 
     43 O          26.3423  -30.3631  -40.2564 O.2       6 UNK        -0.5089 
     44 N          25.0399  -29.0759  -41.5928 N.am      7 UNK        -0.4243 
     45 CA         24.5122  -30.1482  -42.4403 C.3       7 UNK         0.0196 
     46 CB         23.8993  -29.5239  -43.7038 C.3       7 UNK        -0.2007 
     47 C          23.4701  -31.0040  -41.6968 C.2       7 UNK         0.5020 
     48 O          22.9143  -30.5616  -40.6893 O.2       7 UNK        -0.5147 
     49 N          23.1999  -32.2007  -42.2273 N.am      8 UNK        -0.4734 
     50 CA         22.2174  -33.1529  -41.7073 C.3       8 UNK         0.0238 
     51 CB         22.9528  -34.2666  -40.9414 C.3       8 UNK        -0.1912 
     52 C          21.3940  -33.7312  -42.8663 C.2       8 UNK         0.5038 
     53 O          21.8196  -33.6397  -44.0212 O.2       8 UNK        -0.5046 
     54 N          20.2393  -34.3224  -42.5311 N.am      9 UNK        -0.4200 
     55 CA         19.2848  -34.9071  -43.4902 C.3       9 UNK         0.0839 
     56 C          19.7469  -36.2362  -44.1590 C.2       9 UNK         0.5513 
     57 N          20.8042  -36.8862  -43.6872 N.am      9 UNK        -0.7519 
     58 O          19.1366  -36.6845  -45.1259 O.2       9 UNK        -0.4960 
     59 C59        17.8567  -35.0322  -42.8732 C.3       10 UNK        -0.0876 
     60 S60        16.5634  -34.3578  -43.9758 S.3       10 UNK        -0.2414 
     61 C61        16.1706  -32.7557  -43.1911 C.3       10 UNK         0.0169 
     62 H62        15.2146  -24.8030  -48.2826 H         1 UNK         0.0903 
     63 H63        14.6874  -26.0625  -47.1651 H         1 UNK         0.0903 
     64 H64        14.6120  -24.3672  -46.6813 H         1 UNK         0.0903 
     65 H65        16.4087  -27.1360  -46.2310 H         1 UNK         0.3096 
     66 H66        19.0998  -26.1732  -46.2862 H         1 UNK         0.1121 
     67 H67        18.3911  -28.6087  -46.3932 H         1 UNK         0.0849 
     68 H68        17.9537  -28.5405  -44.7072 H         1 UNK         0.0849 
     69 H69        19.9035  -30.7303  -45.8545 H         1 UNK         0.0865 
     70 H70        21.2684  -30.7223  -44.7716 H         1 UNK         0.0865 
     71 H71        17.8872  -31.6711  -45.0057 H         1 UNK         0.1346 
     72 H72        17.2013  -31.9800  -40.7847 H         1 UNK         0.1412 
     73 H73        20.7377  -30.0560  -42.2541 H         1 UNK         0.1426 
     74 H74        20.5015  -30.6161  -39.8381 H         1 UNK         0.0716 
     75 H75        19.1075  -31.4935  -39.2806 H         1 UNK         0.0716 
     76 H76        20.9490  -28.4640  -38.9111 H         1 UNK         0.0695 
     77 H77        19.8363  -27.1600  -38.5970 H         1 UNK         0.0695 
     78 H78        20.7232  -28.1638  -41.3289 H         1 UNK         0.0983 
     79 H79        18.9199  -27.3159  -42.2355 H         1 UNK         0.3095 
     80 H80        16.4294  -25.6638  -41.6489 H         1 UNK         0.0454 
     81 H81        18.2095  -23.3348  -42.5462 H         1 UNK         0.0851 
     82 H82        17.0496  -23.3114  -41.2267 H         1 UNK         0.0851 
     83 H83        16.4842  -23.4734  -42.8793 H         1 UNK         0.0851 
     84 H84        16.6612  -26.4268  -43.7147 H         1 UNK         0.2976 
     85 H85        20.9343  -25.5813  -42.4901 H         1 UNK         0.3116 
     86 H86        22.8271  -23.9638  -41.0788 H         1 UNK         0.0646 
     87 H87        21.4041  -23.1184  -42.9539 H         1 UNK         0.0847 
     88 H88        23.1064  -22.8843  -43.3191 H         1 UNK         0.0847 
     89 H89        22.2214  -24.1989  -44.0807 H         1 UNK         0.0847 
     90 H90        25.0448  -23.7068  -41.4495 H         1 UNK         0.3040 
     91 H91        27.1795  -24.2935  -41.5822 H         1 UNK         0.1015 
     92 H92        26.3944  -25.7660  -44.1533 H         1 UNK         0.0786 
     93 H93        27.9952  -25.1732  -43.7362 H         1 UNK         0.0786 
     94 H94        26.6959  -24.0329  -44.0342 H         1 UNK         0.0786 
     95 H95        25.3865  -26.1398  -40.1332 H         1 UNK         0.3172 
     96 H96        25.3744  -27.9840  -38.9345 H         1 UNK         0.0595 
     97 H97        28.3556  -28.3211  -39.5553 H         1 UNK         0.0839 
     98 H98        27.4728  -29.0516  -38.2251 H         1 UNK         0.0839 
     99 H99        27.6998  -27.3124  -38.2659 H         1 UNK         0.0839 
    100 H100       24.6905  -28.1425  -41.7793 H         1 UNK         0.2998 
    101 H101       25.3441  -30.7923  -42.7331 H         1 UNK         0.0822 
    102 H102       23.5865  -30.2919  -44.4113 H         1 UNK         0.0787 
    103 H103       23.0252  -28.9152  -43.4678 H         1 UNK         0.0787 
    104 H104       24.6173  -28.8859  -44.2199 H         1 UNK         0.0787 
    105 H105       23.6175  -32.4637  -43.1110 H         1 UNK         0.3055 
    106 H106       21.5265  -32.6473  -41.0295 H         1 UNK         0.1106 
    107 H107       22.2521  -34.9862  -40.5164 H         1 UNK         0.0828 
    108 H108       23.6368  -34.8172  -41.5885 H         1 UNK         0.0828 
    109 H109       23.5336  -33.8576  -40.1143 H         1 UNK         0.0828 
    110 H110       19.9802  -34.3778  -41.5577 H         1 UNK         0.2931 
    111 H111       19.2351  -34.1888  -44.3111 H         1 UNK         0.0412 
    112 H112       21.0954  -37.7435  -44.1307 H         1 UNK         0.3472 
    113 H113       21.3163  -36.5268  -42.8982 H         1 UNK         0.3472 
    114 H114       17.6053  -36.0695  -42.6428 H         1 UNK         0.0970 
    115 H115       17.7925  -34.5176  -41.9140 H         1 UNK         0.0970 
    116 H116       15.6242  -32.9430  -42.2654 H         1 UNK         0.0612 
    117 H117       15.4949  -32.1981  -43.8409 H         1 UNK         0.0612 
@<TRIPOS>BOND
     1    1    2 1    
     2    1   62 1    
     3    1   63 1    
     4    1   64 1    
     5    2    3 2    
     6    2    4 am   BACKBONE|DICT|INTERRES
     7    4    5 1    
     8    4   65 1    
     9    5    6 1    
    10    5   25 1    
    11    5   66 1    
    12    6    7 1    
    13    6   67 1    
    14    6   68 1    
    15    7    8 1    
    16    8    9 1    
    17    8   69 1    
    18    8   70 1    
    19    9   10 ar   
    20    9   14 ar   
    21   10   11 ar   
    22   10   71 1    
    23   11   12 ar   
    24   11   61 1    
    25   12   13 ar   
    26   12   72 1    
    27   13   14 ar   
    28   13   15 1    
    29   14   73 1    
    30   15   16 1    
    31   15   74 1    
    32   15   75 1    
    33   16   17 1    
    34   17   18 1    
    35   17   76 1    
    36   17   77 1    
    37   18   19 1    
    38   18   27 1    
    39   18   78 1    
    40   19   20 am   BACKBONE|DICT|INTERRES
    41   19   79 1    
    42   20   21 2    
    43   20   22 1    
    44   22   23 1    
    45   22   24 1    
    46   22   80 1    
    47   23   81 1    
    48   23   82 1    
    49   23   83 1    
    50   24   25 am   BACKBONE|DICT|INTERRES
    51   24   84 1    
    52   25   26 2    
    53   27   28 2    
    54   27   29 am   BACKBONE|DICT|INTERRES
    55   29   30 1    
    56   29   85 1    
    57   30   31 1    
    58   30   32 1    
    59   30   86 1    
    60   31   87 1    
    61   31   88 1    
    62   31   89 1    
    63   32   33 2    
    64   32   34 am   BACKBONE|DICT|INTERRES
    65   34   35 1    
    66   34   90 1    
    67   35   36 1    
    68   35   37 1    
    69   35   91 1    
    70   36   92 1    
    71   36   93 1    
    72   36   94 1    
    73   37   38 2    
    74   37   39 am   BACKBONE|DICT|INTERRES
    75   39   40 1    
    76   39   95 1    
    77   40   41 1    
    78   40   42 1    
    79   40   96 1    
    80   41   97 1    
    81   41   98 1    
    82   41   99 1    
    83   42   43 2    
    84   42   44 am   BACKBONE|DICT|INTERRES
    85   44   45 1    
    86   44  100 1    
    87   45   46 1    
    88   45   47 1    
    89   45  101 1    
    90   46  102 1    
    91   46  103 1    
    92   46  104 1    
    93   47   48 2    
    94   47   49 am   BACKBONE|DICT|INTERRES
    95   49   50 1    
    96   49  105 1    
    97   50   51 1    
    98   50   52 1    
    99   50  106 1    
   100   51  107 1    
   101   51  108 1    
   102   51  109 1    
   103   52   53 2    
   104   52   54 am   BACKBONE|DICT|INTERRES
   105   54   55 1    
   106   54  110 1    
   107   55   56 1    
   108   55   59 1    
   109   55  111 1    
   110   56   57 am   BACKBONE|DICT|INTERRES
   111   56   58 2    
   112   57  112 1    
   113   57  113 1    
   114   59   60 1    
   115   59  114 1    
   116   59  115 1    
   117   60   61 1    
   118   61  116 1    
   119   61  117 1    
@<TRIPOS>SUBSTRUCTURE
     1 UNK         1 GROUP             0       ****    0 ROOT    
