@<TRIPOS>MOLECULE
3R8
117   119    1
SMALL
USER_CHARGES


@<TRIPOS>ATOM
      1 CA         15.4619  -25.6484  -46.2831 C.3       0 UNK        -0.2013 
      2 C          16.9344  -25.3758  -46.5484 C.2       0 UNK         0.4866 
      3 O          17.3664  -24.2237  -46.4941 O.2       0 UNK        -0.5176 
      4 N          17.7128  -26.4274  -46.8298 N.am      1 UNK        -0.4884 
      5 CA         19.1562  -26.4150  -47.1044 C.3       1 UNK         0.0853 
      6 C6         19.6082  -27.6708  -47.9128 C.3       10 UNK        -0.0849 
      7 S7         18.7702  -29.2495  -47.5060 S.3       10 UNK        -0.2776 
      8 C8         19.8053  -29.9520  -46.1701 C.3       10 UNK         0.0316 
      9 C9         19.1486  -30.0055  -44.7857 C.ar      10 UNK        -0.0863 
     10 C10        19.7867  -30.7334  -43.7756 C.ar      10 UNK        -0.1009 
     11 C11        19.2169  -30.8542  -42.5040 C.ar      10 UNK        -0.0712 
     12 C12        18.0016  -30.2218  -42.2316 C.ar      10 UNK        -0.0894 
     13 C13        17.3595  -29.4728  -43.2207 C.ar      10 UNK        -0.0745 
     14 C14        17.9339  -29.3715  -44.4901 C.ar      10 UNK        -0.0972 
     15 C15        16.0433  -28.7693  -42.9281 C.3       10 UNK         0.0209 
     16 S16        16.2662  -26.9682  -42.7963 S.3       10 UNK        -0.2568 
     17 C17        17.1788  -26.8248  -41.2218 C.3       10 UNK        -0.0983 
     18 CA         18.7180  -26.7459  -41.3971 C.3       3 UNK         0.0876 
     19 N          19.1012  -25.7249  -42.3830 N.am      3 UNK        -0.4424 
     20 C          20.3423  -25.4470  -42.8020 C.2       2 UNK         0.4918 
     21 O          21.3614  -25.9195  -42.3003 O.2       2 UNK        -0.4875 
     22 CA         20.4390  -24.4759  -43.9916 C.3       2 UNK         0.0481 
     23 CB         21.8944  -24.0810  -44.3221 C.3       2 UNK        -0.1831 
     24 N          19.7544  -24.9977  -45.1815 N.am      2 UNK        -0.4498 
     25 C          20.0170  -26.1335  -45.8473 C.2       1 UNK         0.5027 
     26 O          20.9073  -26.9173  -45.5225 O.2       1 UNK        -0.4969 
     27 C          19.3925  -26.6101  -40.0132 C.2       3 UNK         0.5005 
     28 O          19.4927  -27.6040  -39.2922 O.2       3 UNK        -0.5279 
     29 N          19.8293  -25.3932  -39.6581 N.am      4 UNK        -0.4463 
     30 CA         20.5671  -25.0945  -38.4286 C.3       4 UNK         0.0283 
     31 CB         20.5129  -23.5799  -38.1697 C.3       4 UNK        -0.1875 
     32 C          22.0299  -25.5807  -38.4503 C.2       4 UNK         0.4949 
     33 O          22.6253  -25.7117  -37.3802 O.2       4 UNK        -0.5039 
     34 N          22.5907  -25.8198  -39.6429 N.am      5 UNK        -0.4663 
     35 CA         23.9505  -26.3167  -39.8454 C.3       5 UNK         0.0242 
     36 CB         24.5816  -25.5486  -41.0202 C.3       5 UNK        -0.1982 
     37 C          23.9271  -27.8215  -40.1480 C.2       5 UNK         0.5017 
     38 O          22.8996  -28.3601  -40.5676 O.2       5 UNK        -0.5012 
     39 N          25.0855  -28.4735  -39.9885 N.am      6 UNK        -0.4439 
     40 CA         25.3108  -29.8873  -40.3071 C.3       6 UNK         0.0297 
     41 CB         26.5015  -30.4039  -39.4776 C.3       6 UNK        -0.2006 
     42 C          25.4979  -30.1148  -41.8222 C.2       6 UNK         0.4892 
     43 O          26.5148  -30.6674  -42.2454 O.2       6 UNK        -0.5089 
     44 N          24.5155  -29.6675  -42.6153 N.am      7 UNK        -0.4243 
     45 CA         24.4640  -29.8246  -44.0723 C.3       7 UNK         0.0196 
     46 CB         23.3982  -28.8720  -44.6354 C.3       7 UNK        -0.2007 
     47 C          24.1808  -31.2742  -44.5075 C.2       7 UNK         0.5020 
     48 O          24.5833  -31.6730  -45.6002 O.2       7 UNK        -0.5147 
     49 N          23.5102  -32.0299  -43.6340 N.am      8 UNK        -0.4734 
     50 CA         23.2252  -33.4584  -43.7162 C.3       8 UNK         0.0238 
     51 CB         22.1695  -33.7594  -44.8067 C.3       8 UNK        -0.1912 
     52 C          22.8045  -33.8914  -42.3014 C.2       8 UNK         0.5038 
     53 O          23.2901  -33.3049  -41.3291 O.2       8 UNK        -0.5046 
     54 N          21.8761  -34.8507  -42.2059 N.am      9 UNK        -0.4200 
     55 CA         21.2383  -35.3134  -40.9611 C.3       9 UNK         0.0839 
     56 C          22.2158  -36.0789  -40.0163 C.2       9 UNK         0.5513 
     57 N          21.8458  -36.3076  -38.7627 N.am      9 UNK        -0.7519 
     58 O          23.2908  -36.5199  -40.4193 O.2       9 UNK        -0.4960 
     59 C59        20.4208  -34.1905  -40.2459 C.3       10 UNK        -0.0876 
     60 S60        19.2259  -33.3597  -41.3522 S.3       10 UNK        -0.2414 
     61 C61        19.9093  -31.6734  -41.4266 C.3       10 UNK         0.0169 
     62 H62        14.8482  -25.1745  -47.0485 H         1 UNK         0.0903 
     63 H63        15.2393  -26.7153  -46.2783 H         1 UNK         0.0903 
     64 H64        15.1745  -25.2408  -45.3142 H         1 UNK         0.0903 
     65 H65        17.3004  -27.3491  -46.8689 H         1 UNK         0.3096 
     66 H66        19.3454  -25.5565  -47.7534 H         1 UNK         0.1121 
     67 H67        19.3826  -27.4869  -48.9644 H         1 UNK         0.0849 
     68 H68        20.6911  -27.8080  -47.8936 H         1 UNK         0.0849 
     69 H69        20.7489  -29.4125  -46.1012 H         1 UNK         0.0865 
     70 H70        20.0674  -30.9694  -46.4643 H         1 UNK         0.0865 
     71 H71        20.7295  -31.2177  -43.9841 H         1 UNK         0.1346 
     72 H72        17.5601  -30.3113  -41.2483 H         1 UNK         0.1412 
     73 H73        17.4171  -28.7901  -45.2373 H         1 UNK         0.1426 
     74 H74        15.5859  -29.1520  -42.0145 H         1 UNK         0.0716 
     75 H75        15.3374  -28.9783  -43.7332 H         1 UNK         0.0716 
     76 H76        16.9086  -27.6644  -40.5783 H         1 UNK         0.0695 
     77 H77        16.8112  -25.9298  -40.7159 H         1 UNK         0.0695 
     78 H78        19.0686  -27.6950  -41.8050 H         1 UNK         0.0983 
     79 H79        18.3280  -25.2994  -42.8736 H         1 UNK         0.3095 
     80 H80        19.9095  -23.5673  -43.7014 H         1 UNK         0.0454 
     81 H81        22.4985  -24.9451  -44.6010 H         1 UNK         0.0851 
     82 H82        22.3762  -23.6168  -43.4608 H         1 UNK         0.0851 
     83 H83        21.9352  -23.3644  -45.1421 H         1 UNK         0.0851 
     84 H84        18.9707  -24.4477  -45.5274 H         1 UNK         0.2976 
     85 H85        19.6991  -24.6334  -40.3101 H         1 UNK         0.3116 
     86 H86        20.0679  -25.5988  -37.5984 H         1 UNK         0.0646 
     87 H87        20.9940  -23.0152  -38.9693 H         1 UNK         0.0847 
     88 H88        21.0235  -23.3248  -37.2399 H         1 UNK         0.0847 
     89 H89        19.4853  -23.2276  -38.0784 H         1 UNK         0.0847 
     90 H90        22.0126  -25.7919  -40.4790 H         1 UNK         0.3040 
     91 H91        24.5534  -26.1488  -38.9501 H         1 UNK         0.1015 
     92 H92        24.0468  -25.7273  -41.9542 H         1 UNK         0.0786 
     93 H93        25.6184  -25.8485  -41.1775 H         1 UNK         0.0786 
     94 H94        24.5811  -24.4741  -40.8363 H         1 UNK         0.0786 
     95 H95        25.8953  -27.9513  -39.6845 H         1 UNK         0.3172 
     96 H96        24.4303  -30.4599  -40.0065 H         1 UNK         0.0595 
     97 H97        27.4269  -29.8842  -39.7288 H         1 UNK         0.0839 
     98 H98        26.6667  -31.4678  -39.6539 H         1 UNK         0.0839 
     99 H99        26.3251  -30.2803  -38.4089 H         1 UNK         0.0839 
    100 H100       23.7295  -29.2039  -42.1683 H         1 UNK         0.2998 
    101 H101       25.4347  -29.5396  -44.4836 H         1 UNK         0.0822 
    102 H102       23.6321  -27.8316  -44.4073 H         1 UNK         0.0787 
    103 H103       23.3276  -28.9559  -45.7206 H         1 UNK         0.0787 
    104 H104       22.4093  -29.0829  -44.2261 H         1 UNK         0.0787 
    105 H105       23.3012  -31.6311  -42.7270 H         1 UNK         0.3055 
    106 H106       24.1528  -33.9810  -43.9585 H         1 UNK         0.1106 
    107 H107       22.0773  -34.8324  -44.9773 H         1 UNK         0.0828 
    108 H108       21.1822  -33.3842  -44.5374 H         1 UNK         0.0828 
    109 H109       22.4402  -33.3170  -45.7652 H         1 UNK         0.0828 
    110 H110       21.5436  -35.2875  -43.0522 H         1 UNK         0.2931 
    111 H111       20.5242  -36.0711  -41.2856 H         1 UNK         0.0412 
    112 H112       20.9572  -35.9901  -38.4092 H         1 UNK         0.3472 
    113 H113       22.4688  -36.8199  -38.1573 H         1 UNK         0.3472 
    114 H114       21.0891  -33.4527  -39.7987 H         1 UNK         0.0970 
    115 H115       19.8431  -34.6069  -39.4200 H         1 UNK         0.0970 
    116 H116       19.7910  -31.1908  -40.4551 H         1 UNK         0.0612 
    117 H117       20.9809  -31.7132  -41.6212 H         1 UNK         0.0612 
@<TRIPOS>BOND
     1    1    2 1    
     2    1   62 1    
     3    1   63 1    
     4    1   64 1    
     5    2    3 2    
     6    2    4 am   BACKBONE|DICT|INTERRES
     7    4    5 1    
     8    4   65 1    
     9    5    6 1    
    10    5   25 1    
    11    5   66 1    
    12    6    7 1    
    13    6   67 1    
    14    6   68 1    
    15    7    8 1    
    16    8    9 1    
    17    8   69 1    
    18    8   70 1    
    19    9   10 ar   
    20    9   14 ar   
    21   10   11 ar   
    22   10   71 1    
    23   11   12 ar   
    24   11   61 1    
    25   12   13 ar   
    26   12   72 1    
    27   13   14 ar   
    28   13   15 1    
    29   14   73 1    
    30   15   16 1    
    31   15   74 1    
    32   15   75 1    
    33   16   17 1    
    34   17   18 1    
    35   17   76 1    
    36   17   77 1    
    37   18   19 1    
    38   18   27 1    
    39   18   78 1    
    40   19   20 am   BACKBONE|DICT|INTERRES
    41   19   79 1    
    42   20   21 2    
    43   20   22 1    
    44   22   23 1    
    45   22   24 1    
    46   22   80 1    
    47   23   81 1    
    48   23   82 1    
    49   23   83 1    
    50   24   25 am   BACKBONE|DICT|INTERRES
    51   24   84 1    
    52   25   26 2    
    53   27   28 2    
    54   27   29 am   BACKBONE|DICT|INTERRES
    55   29   30 1    
    56   29   85 1    
    57   30   31 1    
    58   30   32 1    
    59   30   86 1    
    60   31   87 1    
    61   31   88 1    
    62   31   89 1    
    63   32   33 2    
    64   32   34 am   BACKBONE|DICT|INTERRES
    65   34   35 1    
    66   34   90 1    
    67   35   36 1    
    68   35   37 1    
    69   35   91 1    
    70   36   92 1    
    71   36   93 1    
    72   36   94 1    
    73   37   38 2    
    74   37   39 am   BACKBONE|DICT|INTERRES
    75   39   40 1    
    76   39   95 1    
    77   40   41 1    
    78   40   42 1    
    79   40   96 1    
    80   41   97 1    
    81   41   98 1    
    82   41   99 1    
    83   42   43 2    
    84   42   44 am   BACKBONE|DICT|INTERRES
    85   44   45 1    
    86   44  100 1    
    87   45   46 1    
    88   45   47 1    
    89   45  101 1    
    90   46  102 1    
    91   46  103 1    
    92   46  104 1    
    93   47   48 2    
    94   47   49 am   BACKBONE|DICT|INTERRES
    95   49   50 1    
    96   49  105 1    
    97   50   51 1    
    98   50   52 1    
    99   50  106 1    
   100   51  107 1    
   101   51  108 1    
   102   51  109 1    
   103   52   53 2    
   104   52   54 am   BACKBONE|DICT|INTERRES
   105   54   55 1    
   106   54  110 1    
   107   55   56 1    
   108   55   59 1    
   109   55  111 1    
   110   56   57 am   BACKBONE|DICT|INTERRES
   111   56   58 2    
   112   57  112 1    
   113   57  113 1    
   114   59   60 1    
   115   59  114 1    
   116   59  115 1    
   117   60   61 1    
   118   61  116 1    
   119   61  117 1    
@<TRIPOS>SUBSTRUCTURE
     1 UNK         1 GROUP             0       ****    0 ROOT    
