@<TRIPOS>MOLECULE
3R8
117   119    1
SMALL
USER_CHARGES


@<TRIPOS>ATOM
      1 CA         12.7053  -24.6761  -45.4672 C.3       0 UNK        -0.2013 
      2 C          14.0905  -24.8908  -46.0591 C.2       0 UNK         0.4866 
      3 O          14.4505  -24.2260  -47.0314 O.2       0 UNK        -0.5176 
      4 N          14.8657  -25.8202  -45.4871 N.am      1 UNK        -0.4884 
      5 CA         16.2421  -26.1264  -45.8913 C.3       1 UNK         0.0853 
      6 C6         16.7272  -27.4642  -45.2876 C.3       10 UNK        -0.0849 
      7 S7         15.8629  -28.9039  -46.0086 S.3       10 UNK        -0.2776 
      8 C8         15.9557  -30.1458  -44.6674 C.3       10 UNK         0.0316 
      9 C9         17.3145  -30.1905  -43.9744 C.ar      10 UNK        -0.0863 
     10 C10        17.3893  -30.1062  -42.5807 C.ar      10 UNK        -0.1009 
     11 C11        18.6269  -30.0586  -41.9320 C.ar      10 UNK        -0.0712 
     12 C12        19.7992  -30.0879  -42.6958 C.ar      10 UNK        -0.0894 
     13 C13        19.7378  -30.1793  -44.0900 C.ar      10 UNK        -0.0745 
     14 C14        18.4949  -30.2631  -44.7201 C.ar      10 UNK        -0.0972 
     15 C15        21.0064  -30.1194  -44.9275 C.3       10 UNK         0.0209 
     16 S16        21.2470  -28.4577  -45.6423 S.3       10 UNK        -0.2568 
     17 C17        21.4885  -27.4768  -44.1269 C.3       10 UNK        -0.0983 
     18 CA         21.7070  -25.9662  -44.3835 C.3       3 UNK         0.0876 
     19 N          20.5565  -25.3627  -45.0643 N.am      3 UNK        -0.4424 
     20 C          20.4896  -24.1036  -45.5171 C.2       2 UNK         0.4918 
     21 O          21.4165  -23.2977  -45.4181 O.2       2 UNK        -0.4875 
     22 CA         19.1953  -23.6645  -46.2325 C.3       2 UNK         0.0481 
     23 CB         19.5114  -23.1112  -47.6336 C.3       2 UNK        -0.1831 
     24 N          18.2023  -24.7368  -46.3708 N.am      2 UNK        -0.4498 
     25 C          17.2048  -24.9812  -45.5098 C.2       1 UNK         0.5027 
     26 O          17.0450  -24.3700  -44.4503 O.2       1 UNK        -0.4969 
     27 C          22.0225  -25.2793  -43.0370 C.2       3 UNK         0.5005 
     28 O          21.1125  -24.8065  -42.3516 O.2       3 UNK        -0.5279 
     29 N          23.3025  -25.3294  -42.6441 N.am      4 UNK        -0.4463 
     30 CA         23.8034  -24.9004  -41.3317 C.3       4 UNK         0.0283 
     31 CB         25.2414  -24.3768  -41.5022 C.3       4 UNK        -0.1875 
     32 C          23.7467  -26.0205  -40.2688 C.2       4 UNK         0.4949 
     33 O          24.3024  -25.8455  -39.1851 O.2       4 UNK        -0.5039 
     34 N          23.1214  -27.1598  -40.6088 N.am      5 UNK        -0.4663 
     35 CA         22.9684  -28.3976  -39.8245 C.3       5 UNK         0.0242 
     36 CB         22.2495  -28.1371  -38.4846 C.3       5 UNK        -0.1982 
     37 C          24.2675  -29.2087  -39.6385 C.2       5 UNK         0.5017 
     38 O          24.2436  -30.2343  -38.9572 O.2       5 UNK        -0.5012 
     39 N          25.3629  -28.7870  -40.2883 N.am      6 UNK        -0.4439 
     40 CA         26.6812  -29.4352  -40.2638 C.3       6 UNK         0.0297 
     41 CB         27.6983  -28.5327  -40.9808 C.3       6 UNK        -0.2006 
     42 C          26.6992  -30.8533  -40.8677 C.2       6 UNK         0.4892 
     43 O          27.5634  -31.6526  -40.5080 O.2       6 UNK        -0.5089 
     44 N          25.7320  -31.1462  -41.7481 N.am      7 UNK        -0.4243 
     45 CA         25.4836  -32.4663  -42.3339 C.3       7 UNK         0.0196 
     46 CB         24.6602  -32.2790  -43.6207 C.3       7 UNK        -0.2007 
     47 C          24.7721  -33.4465  -41.3769 C.2       7 UNK         0.5020 
     48 O          24.5445  -34.5917  -41.7661 O.2       7 UNK        -0.5147 
     49 N          24.3894  -32.9829  -40.1754 N.am      8 UNK        -0.4734 
     50 CA         23.6378  -33.6923  -39.1278 C.3       8 UNK         0.0238 
     51 CB         24.3810  -34.9585  -38.6504 C.3       8 UNK        -0.1912 
     52 C          22.1641  -33.9720  -39.4862 C.2       8 UNK         0.5038 
     53 O          21.4963  -34.7057  -38.7556 O.2       8 UNK        -0.5046 
     54 N          21.6779  -33.3560  -40.5728 N.am      9 UNK        -0.4200 
     55 CA         20.2814  -33.3635  -41.0421 C.3       9 UNK         0.0839 
     56 C          19.7600  -34.7524  -41.5195 C.2       9 UNK         0.5513 
     57 N          20.6295  -35.6974  -41.8580 N.am      9 UNK        -0.7519 
     58 O          18.5551  -34.9720  -41.6144 O.2       9 UNK        -0.4960 
     59 C59        19.3124  -32.6534  -40.0511 C.3       10 UNK        -0.0876 
     60 S60        19.8898  -30.9804  -39.5899 S.3       10 UNK        -0.2414 
     61 C61        18.6728  -29.9037  -40.4142 C.3       10 UNK         0.0169 
     62 H62        11.9417  -24.8610  -46.2223 H         1 UNK         0.0903 
     63 H63        12.5147  -25.3390  -44.6233 H         1 UNK         0.0903 
     64 H64        12.6008  -23.6482  -45.1211 H         1 UNK         0.0903 
     65 H65        14.5234  -26.3296  -44.6851 H         1 UNK         0.3096 
     66 H66        16.2513  -26.2179  -46.9803 H         1 UNK         0.1121 
     67 H67        16.6021  -27.4613  -44.2027 H         1 UNK         0.0849 
     68 H68        17.7942  -27.6067  -45.4708 H         1 UNK         0.0849 
     69 H69        15.1654  -29.9285  -43.9471 H         1 UNK         0.0865 
     70 H70        15.7330  -31.1312  -45.0787 H         1 UNK         0.0865 
     71 H71        16.4795  -30.0478  -41.9986 H         1 UNK         0.1346 
     72 H72        20.7592  -30.0127  -42.2054 H         1 UNK         0.1412 
     73 H73        18.4461  -30.3154  -45.7994 H         1 UNK         0.1426 
     74 H74        20.9480  -30.8505  -45.7352 H         1 UNK         0.0716 
     75 H75        21.8787  -30.3891  -44.3309 H         1 UNK         0.0716 
     76 H76        22.3400  -27.9105  -43.5992 H         1 UNK         0.0695 
     77 H77        20.6191  -27.6119  -43.4813 H         1 UNK         0.0695 
     78 H78        22.5711  -25.8415  -45.0400 H         1 UNK         0.0983 
     79 H79        19.7517  -25.9571  -45.1826 H         1 UNK         0.3095 
     80 H80        18.7680  -22.8501  -45.6439 H         1 UNK         0.0454 
     81 H81        19.9775  -23.8639  -48.2705 H         1 UNK         0.0851 
     82 H82        20.1961  -22.2637  -47.5776 H         1 UNK         0.0851 
     83 H83        18.6093  -22.7589  -48.1341 H         1 UNK         0.0851 
     84 H84        18.2735  -25.2998  -47.2074 H         1 UNK         0.2976 
     85 H85        23.9861  -25.7364  -43.2681 H         1 UNK         0.3116 
     86 H86        23.1880  -24.0773  -40.9621 H         1 UNK         0.0646 
     87 H87        25.2849  -23.5674  -42.2312 H         1 UNK         0.0847 
     88 H88        25.9241  -25.1616  -41.8300 H         1 UNK         0.0847 
     89 H89        25.6299  -23.9798  -40.5632 H         1 UNK         0.0847 
     90 H90        22.6941  -27.1768  -41.5225 H         1 UNK         0.3040 
     91 H91        22.3131  -29.0405  -40.4140 H         1 UNK         0.1015 
     92 H92        22.8658  -27.5616  -37.7939 H         1 UNK         0.0786 
     93 H93        22.0003  -29.0755  -37.9873 H         1 UNK         0.0786 
     94 H94        21.3149  -27.5968  -38.6350 H         1 UNK         0.0786 
     95 H95        25.2886  -27.9282  -40.8126 H         1 UNK         0.3172 
     96 H96        26.9824  -29.5257  -39.2181 H         1 UNK         0.0595 
     97 H97        27.4396  -28.3841  -42.0300 H         1 UNK         0.0839 
     98 H98        28.6971  -28.9707  -40.9514 H         1 UNK         0.0839 
     99 H99        27.7641  -27.5526  -40.5076 H         1 UNK         0.0839 
    100 H100       25.0818  -30.4141  -41.9920 H         1 UNK         0.2998 
    101 H101       26.4430  -32.9149  -42.6008 H         1 UNK         0.0822 
    102 H102       25.1687  -31.6216  -44.3264 H         1 UNK         0.0787 
    103 H103       24.5027  -33.2318  -44.1283 H         1 UNK         0.0787 
    104 H104       23.6772  -31.8552  -43.4134 H         1 UNK         0.0787 
    105 H105       24.5991  -32.0153  -39.9499 H         1 UNK         0.3055 
    106 H106       23.5993  -33.0027  -38.2825 H         1 UNK         0.1106 
    107 H107       24.3795  -35.7431  -39.4072 H         1 UNK         0.0828 
    108 H108       23.9110  -35.3734  -37.7579 H         1 UNK         0.0828 
    109 H109       25.4175  -34.7381  -38.3951 H         1 UNK         0.0828 
    110 H110       22.3169  -32.7906  -41.1090 H         1 UNK         0.2931 
    111 H111       20.2928  -32.7650  -41.9527 H         1 UNK         0.0412 
    112 H112       21.6210  -35.5262  -41.7890 H         1 UNK         0.3472 
    113 H113       20.2906  -36.5921  -42.1753 H         1 UNK         0.3472 
    114 H114       19.2025  -33.2421  -39.1391 H         1 UNK         0.0970 
    115 H115       18.3121  -32.5794  -40.4812 H         1 UNK         0.0970 
    116 H116       18.9153  -28.8665  -40.1799 H         1 UNK         0.0612 
    117 H117       17.6926  -30.0981  -39.9761 H         1 UNK         0.0612 
@<TRIPOS>BOND
     1    1    2 1    
     2    1   62 1    
     3    1   63 1    
     4    1   64 1    
     5    2    3 2    
     6    2    4 am   BACKBONE|DICT|INTERRES
     7    4    5 1    
     8    4   65 1    
     9    5    6 1    
    10    5   25 1    
    11    5   66 1    
    12    6    7 1    
    13    6   67 1    
    14    6   68 1    
    15    7    8 1    
    16    8    9 1    
    17    8   69 1    
    18    8   70 1    
    19    9   10 ar   
    20    9   14 ar   
    21   10   11 ar   
    22   10   71 1    
    23   11   12 ar   
    24   11   61 1    
    25   12   13 ar   
    26   12   72 1    
    27   13   14 ar   
    28   13   15 1    
    29   14   73 1    
    30   15   16 1    
    31   15   74 1    
    32   15   75 1    
    33   16   17 1    
    34   17   18 1    
    35   17   76 1    
    36   17   77 1    
    37   18   19 1    
    38   18   27 1    
    39   18   78 1    
    40   19   20 am   BACKBONE|DICT|INTERRES
    41   19   79 1    
    42   20   21 2    
    43   20   22 1    
    44   22   23 1    
    45   22   24 1    
    46   22   80 1    
    47   23   81 1    
    48   23   82 1    
    49   23   83 1    
    50   24   25 am   BACKBONE|DICT|INTERRES
    51   24   84 1    
    52   25   26 2    
    53   27   28 2    
    54   27   29 am   BACKBONE|DICT|INTERRES
    55   29   30 1    
    56   29   85 1    
    57   30   31 1    
    58   30   32 1    
    59   30   86 1    
    60   31   87 1    
    61   31   88 1    
    62   31   89 1    
    63   32   33 2    
    64   32   34 am   BACKBONE|DICT|INTERRES
    65   34   35 1    
    66   34   90 1    
    67   35   36 1    
    68   35   37 1    
    69   35   91 1    
    70   36   92 1    
    71   36   93 1    
    72   36   94 1    
    73   37   38 2    
    74   37   39 am   BACKBONE|DICT|INTERRES
    75   39   40 1    
    76   39   95 1    
    77   40   41 1    
    78   40   42 1    
    79   40   96 1    
    80   41   97 1    
    81   41   98 1    
    82   41   99 1    
    83   42   43 2    
    84   42   44 am   BACKBONE|DICT|INTERRES
    85   44   45 1    
    86   44  100 1    
    87   45   46 1    
    88   45   47 1    
    89   45  101 1    
    90   46  102 1    
    91   46  103 1    
    92   46  104 1    
    93   47   48 2    
    94   47   49 am   BACKBONE|DICT|INTERRES
    95   49   50 1    
    96   49  105 1    
    97   50   51 1    
    98   50   52 1    
    99   50  106 1    
   100   51  107 1    
   101   51  108 1    
   102   51  109 1    
   103   52   53 2    
   104   52   54 am   BACKBONE|DICT|INTERRES
   105   54   55 1    
   106   54  110 1    
   107   55   56 1    
   108   55   59 1    
   109   55  111 1    
   110   56   57 am   BACKBONE|DICT|INTERRES
   111   56   58 2    
   112   57  112 1    
   113   57  113 1    
   114   59   60 1    
   115   59  114 1    
   116   59  115 1    
   117   60   61 1    
   118   61  116 1    
   119   61  117 1    
@<TRIPOS>SUBSTRUCTURE
     1 UNK         1 GROUP             0       ****    0 ROOT    
