@<TRIPOS>MOLECULE
3R8
117   119    1
SMALL
USER_CHARGES


@<TRIPOS>ATOM
      1 CA         21.9121  -22.9055  -46.9287 C.3       0 UNK        -0.2013 
      2 C          21.7069  -23.6526  -45.6196 C.2       0 UNK         0.4866 
      3 O          21.9156  -23.0811  -44.5494 O.2       0 UNK        -0.5176 
      4 N          21.3025  -24.9273  -45.6962 N.am      1 UNK        -0.4884 
      5 CA         21.0684  -25.8006  -44.5394 C.3       1 UNK         0.0853 
      6 C6         20.8469  -27.2751  -44.9584 C.3       10 UNK        -0.0849 
      7 S7         22.2121  -28.0206  -45.9051 S.3       10 UNK        -0.2776 
      8 C8         21.3004  -29.1714  -46.9971 C.3       10 UNK         0.0316 
      9 C9         20.2573  -30.0061  -46.2558 C.ar      10 UNK        -0.0863 
     10 C10        20.6414  -30.8542  -45.2125 C.ar      10 UNK        -0.1009 
     11 C11        19.6871  -31.6004  -44.5152 C.ar      10 UNK        -0.0712 
     12 C12        18.3402  -31.5066  -44.8741 C.ar      10 UNK        -0.0894 
     13 C13        17.9404  -30.6606  -45.9119 C.ar      10 UNK        -0.0745 
     14 C14        18.9039  -29.9185  -46.6041 C.ar      10 UNK        -0.0972 
     15 C15        16.4659  -30.5418  -46.2741 C.3       10 UNK         0.0209 
     16 S16        15.7452  -28.9620  -45.7193 S.3       10 UNK        -0.2568 
     17 C17        15.8139  -29.1052  -43.8969 C.3       10 UNK        -0.0983 
     18 CA         17.1090  -28.4915  -43.2991 C.3       3 UNK         0.0876 
     19 N          17.3604  -27.1190  -43.7447 N.am      3 UNK        -0.4424 
     20 C          16.7779  -25.9793  -43.3449 C.2       2 UNK         0.4918 
     21 O          15.8036  -25.9282  -42.5938 O.2       2 UNK        -0.4875 
     22 CA         17.4329  -24.6700  -43.8550 C.3       2 UNK         0.0481 
     23 CB         17.4046  -23.5580  -42.7859 C.3       2 UNK        -0.1831 
     24 N          18.8027  -24.8570  -44.3729 N.am      2 UNK        -0.4498 
     25 C          19.8474  -25.3737  -43.7018 C.2       1 UNK         0.5027 
     26 O          19.8129  -25.6463  -42.5021 O.2       1 UNK        -0.4969 
     27 C          17.2336  -28.6553  -41.7653 C.2       3 UNK         0.5005 
     28 O          16.4490  -29.3897  -41.1605 O.2       3 UNK        -0.5279 
     29 N          18.2104  -27.9596  -41.1614 N.am      4 UNK        -0.4463 
     30 CA         18.4658  -27.9652  -39.7186 C.3       4 UNK         0.0283 
     31 CB         17.5703  -26.9238  -39.0234 C.3       4 UNK        -0.1875 
     32 C          19.9444  -27.7277  -39.3751 C.2       4 UNK         0.4949 
     33 O          20.4283  -28.3075  -38.4031 O.2       4 UNK        -0.5039 
     34 N          20.6329  -26.8796  -40.1488 N.am      5 UNK        -0.4663 
     35 CA         22.0660  -26.6101  -40.0333 C.3       5 UNK         0.0242 
     36 CB         22.2987  -25.1069  -40.2812 C.3       5 UNK        -0.1982 
     37 C          22.8624  -27.4710  -41.0310 C.2       5 UNK         0.5017 
     38 O          22.2705  -28.2162  -41.8149 O.2       5 UNK        -0.5012 
     39 N          24.1948  -27.3184  -40.9799 N.am      6 UNK        -0.4439 
     40 CA         25.2374  -28.0544  -41.7101 C.3       6 UNK         0.0297 
     41 CB         24.9718  -28.1009  -43.2300 C.3       6 UNK        -0.2006 
     42 C          25.4706  -29.4604  -41.1326 C.2       6 UNK         0.4892 
     43 O          24.5899  -30.0307  -40.4875 O.2       6 UNK        -0.5089 
     44 N          26.6682  -30.0066  -41.3830 N.am      7 UNK        -0.4243 
     45 CA         27.1549  -31.2831  -40.8377 C.3       7 UNK         0.0196 
     46 CB         28.6161  -31.4845  -41.2730 C.3       7 UNK        -0.2007 
     47 C          26.3126  -32.5229  -41.1991 C.2       7 UNK         0.5020 
     48 O          26.4473  -33.5542  -40.5401 O.2       7 UNK        -0.5147 
     49 N          25.4657  -32.4077  -42.2293 N.am      8 UNK        -0.4734 
     50 CA         24.5395  -33.4459  -42.6758 C.3       8 UNK         0.0238 
     51 CB         23.9911  -33.0606  -44.0589 C.3       8 UNK        -0.1912 
     52 C          23.3865  -33.7292  -41.6936 C.2       8 UNK         0.5038 
     53 O          22.8892  -34.8565  -41.6957 O.2       8 UNK        -0.5046 
     54 N          22.9698  -32.7373  -40.8911 N.am      9 UNK        -0.4200 
     55 CA         21.8466  -32.8747  -39.9443 C.3       9 UNK         0.0839 
     56 C          21.8269  -31.8709  -38.7576 C.2       9 UNK         0.5513 
     57 N          22.7173  -30.8943  -38.6644 N.am      9 UNK        -0.7519 
     58 O          20.9955  -32.0088  -37.8634 O.2       9 UNK        -0.4960 
     59 C59        20.4594  -33.0006  -40.6413 C.3       10 UNK        -0.0876 
     60 S60        20.0599  -31.6285  -41.7803 S.3       10 UNK        -0.2414 
     61 C61        20.1044  -32.5076  -43.3715 C.3       10 UNK         0.0169 
     62 H62        22.9438  -22.5638  -47.0075 H         1 UNK         0.0903 
     63 H63        21.6955  -23.5309  -47.7946 H         1 UNK         0.0903 
     64 H64        21.2604  -22.0331  -46.9690 H         1 UNK         0.0903 
     65 H65        21.1860  -25.3598  -46.6021 H         1 UNK         0.3096 
     66 H66        21.9453  -25.7515  -43.8893 H         1 UNK         0.1121 
     67 H67        20.6937  -27.9059  -44.0791 H         1 UNK         0.0849 
     68 H68        19.9368  -27.3557  -45.5554 H         1 UNK         0.0849 
     69 H69        22.0137  -29.8398  -47.4811 H         1 UNK         0.0865 
     70 H70        20.8332  -28.5947  -47.7970 H         1 UNK         0.0865 
     71 H71        21.6829  -30.9136  -44.9309 H         1 UNK         0.1346 
     72 H72        17.6013  -32.0795  -44.3304 H         1 UNK         0.1412 
     73 H73        18.5921  -29.2610  -47.4045 H         1 UNK         0.1426 
     74 H74        15.8916  -31.3686  -45.8531 H         1 UNK         0.0716 
     75 H75        16.3563  -30.6165  -47.3570 H         1 UNK         0.0716 
     76 H76        15.7214  -30.1576  -43.6228 H         1 UNK         0.0695 
     77 H77        14.9365  -28.6036  -43.4850 H         1 UNK         0.0695 
     78 H78        17.9488  -29.0660  -43.6876 H         1 UNK         0.0983 
     79 H79        18.1125  -27.0243  -44.4074 H         1 UNK         0.3095 
     80 H80        16.8293  -24.3361  -44.7000 H         1 UNK         0.0454 
     81 H81        17.8703  -22.6433  -43.1521 H         1 UNK         0.0851 
     82 H82        17.9236  -23.8570  -41.8747 H         1 UNK         0.0851 
     83 H83        16.3802  -23.3087  -42.5068 H         1 UNK         0.0851 
     84 H84        18.9288  -24.6696  -45.3585 H         1 UNK         0.2976 
     85 H85        18.8151  -27.3766  -41.7269 H         1 UNK         0.3116 
     86 H86        18.2155  -28.9527  -39.3239 H         1 UNK         0.0646 
     87 H87        17.7570  -26.9013  -37.9490 H         1 UNK         0.0847 
     88 H88        16.5135  -27.1517  -39.1636 H         1 UNK         0.0847 
     89 H89        17.7496  -25.9196  -39.4095 H         1 UNK         0.0847 
     90 H90        20.1876  -26.4362  -40.9483 H         1 UNK         0.3040 
     91 H91        22.4103  -26.8562  -39.0263 H         1 UNK         0.1015 
     92 H92        21.6682  -24.4974  -39.6334 H         1 UNK         0.0786 
     93 H93        22.0831  -24.8269  -41.3129 H         1 UNK         0.0786 
     94 H94        23.3314  -24.8229  -40.0772 H         1 UNK         0.0786 
     95 H95        24.5525  -26.6836  -40.2800 H         1 UNK         0.3172 
     96 H96        26.1549  -27.4853  -41.5518 H         1 UNK         0.0595 
     97 H97        24.1500  -28.7721  -43.4823 H         1 UNK         0.0839 
     98 H98        25.8493  -28.4560  -43.7710 H         1 UNK         0.0839 
     99 H99        24.7278  -27.1141  -43.6237 H         1 UNK         0.0839 
    100 H100       27.3287  -29.4798  -41.9370 H         1 UNK         0.2998 
    101 H101       27.1322  -31.1977  -39.7492 H         1 UNK         0.0822 
    102 H102       28.7079  -31.5471  -42.3582 H         1 UNK         0.0787 
    103 H103       29.2513  -30.6688  -40.9269 H         1 UNK         0.0787 
    104 H104       29.0254  -32.4070  -40.8581 H         1 UNK         0.0787 
    105 H105       25.4231  -31.5190  -42.7060 H         1 UNK         0.3055 
    106 H106       25.1038  -34.3755  -42.7806 H         1 UNK         0.1106 
    107 H107       23.2924  -33.8126  -44.4284 H         1 UNK         0.0828 
    108 H108       23.4641  -32.1071  -44.0278 H         1 UNK         0.0828 
    109 H109       24.7915  -32.9775  -44.7944 H         1 UNK         0.0828 
    110 H110       23.4286  -31.8352  -40.9234 H         1 UNK         0.2931 
    111 H111       22.0157  -33.8271  -39.4374 H         1 UNK         0.0412 
    112 H112       23.4077  -30.6976  -39.3861 H         1 UNK         0.3472 
    113 H113       22.6467  -30.2695  -37.8779 H         1 UNK         0.3472 
    114 H114       19.6592  -33.0712  -39.9023 H         1 UNK         0.0970 
    115 H115       20.4127  -33.9452  -41.1841 H         1 UNK         0.0970 
    116 H116       19.4418  -33.3733  -43.3270 H         1 UNK         0.0612 
    117 H117       21.1077  -32.8957  -43.5446 H         1 UNK         0.0612 
@<TRIPOS>BOND
     1    1    2 1    
     2    1   62 1    
     3    1   63 1    
     4    1   64 1    
     5    2    3 2    
     6    2    4 am   BACKBONE|DICT|INTERRES
     7    4    5 1    
     8    4   65 1    
     9    5    6 1    
    10    5   25 1    
    11    5   66 1    
    12    6    7 1    
    13    6   67 1    
    14    6   68 1    
    15    7    8 1    
    16    8    9 1    
    17    8   69 1    
    18    8   70 1    
    19    9   10 ar   
    20    9   14 ar   
    21   10   11 ar   
    22   10   71 1    
    23   11   12 ar   
    24   11   61 1    
    25   12   13 ar   
    26   12   72 1    
    27   13   14 ar   
    28   13   15 1    
    29   14   73 1    
    30   15   16 1    
    31   15   74 1    
    32   15   75 1    
    33   16   17 1    
    34   17   18 1    
    35   17   76 1    
    36   17   77 1    
    37   18   19 1    
    38   18   27 1    
    39   18   78 1    
    40   19   20 am   BACKBONE|DICT|INTERRES
    41   19   79 1    
    42   20   21 2    
    43   20   22 1    
    44   22   23 1    
    45   22   24 1    
    46   22   80 1    
    47   23   81 1    
    48   23   82 1    
    49   23   83 1    
    50   24   25 am   BACKBONE|DICT|INTERRES
    51   24   84 1    
    52   25   26 2    
    53   27   28 2    
    54   27   29 am   BACKBONE|DICT|INTERRES
    55   29   30 1    
    56   29   85 1    
    57   30   31 1    
    58   30   32 1    
    59   30   86 1    
    60   31   87 1    
    61   31   88 1    
    62   31   89 1    
    63   32   33 2    
    64   32   34 am   BACKBONE|DICT|INTERRES
    65   34   35 1    
    66   34   90 1    
    67   35   36 1    
    68   35   37 1    
    69   35   91 1    
    70   36   92 1    
    71   36   93 1    
    72   36   94 1    
    73   37   38 2    
    74   37   39 am   BACKBONE|DICT|INTERRES
    75   39   40 1    
    76   39   95 1    
    77   40   41 1    
    78   40   42 1    
    79   40   96 1    
    80   41   97 1    
    81   41   98 1    
    82   41   99 1    
    83   42   43 2    
    84   42   44 am   BACKBONE|DICT|INTERRES
    85   44   45 1    
    86   44  100 1    
    87   45   46 1    
    88   45   47 1    
    89   45  101 1    
    90   46  102 1    
    91   46  103 1    
    92   46  104 1    
    93   47   48 2    
    94   47   49 am   BACKBONE|DICT|INTERRES
    95   49   50 1    
    96   49  105 1    
    97   50   51 1    
    98   50   52 1    
    99   50  106 1    
   100   51  107 1    
   101   51  108 1    
   102   51  109 1    
   103   52   53 2    
   104   52   54 am   BACKBONE|DICT|INTERRES
   105   54   55 1    
   106   54  110 1    
   107   55   56 1    
   108   55   59 1    
   109   55  111 1    
   110   56   57 am   BACKBONE|DICT|INTERRES
   111   56   58 2    
   112   57  112 1    
   113   57  113 1    
   114   59   60 1    
   115   59  114 1    
   116   59  115 1    
   117   60   61 1    
   118   61  116 1    
   119   61  117 1    
@<TRIPOS>SUBSTRUCTURE
     1 UNK         1 GROUP             0       ****    0 ROOT    
