@<TRIPOS>MOLECULE
3R8
117   119    1
SMALL
USER_CHARGES


@<TRIPOS>ATOM
      1 CA         20.3975  -32.1546  -48.6492 C.3       0 UNK        -0.2013 
      2 C          19.7671  -30.9354  -47.9921 C.2       0 UNK         0.4866 
      3 O          19.6182  -29.9043  -48.6482 O.2       0 UNK        -0.5176 
      4 N          19.3933  -31.0530  -46.7096 N.am      1 UNK        -0.4884 
      5 CA         18.7923  -30.0061  -45.8743 C.3       1 UNK         0.0853 
      6 C6         17.4192  -29.5470  -46.4464 C.3       10 UNK        -0.0849 
      7 S7         16.3360  -28.6725  -45.2742 S.3       10 UNK        -0.2776 
      8 C8         15.8647  -29.9944  -44.0999 C.3       10 UNK         0.0316 
      9 C9         16.6370  -29.9467  -42.7812 C.ar      10 UNK        -0.0863 
     10 C10        16.9569  -31.1315  -42.1105 C.ar      10 UNK        -0.1009 
     11 C11        17.5951  -31.0922  -40.8664 C.ar      10 UNK        -0.0712 
     12 C12        17.9361  -29.8578  -40.3043 C.ar      10 UNK        -0.0894 
     13 C13        17.6440  -28.6611  -40.9650 C.ar      10 UNK        -0.0745 
     14 C14        16.9751  -28.7226  -42.1943 C.ar      10 UNK        -0.0972 
     15 C15        18.0616  -27.3387  -40.3105 C.3       10 UNK         0.0209 
     16 S16        17.7738  -25.8475  -41.3284 S.3       10 UNK        -0.2568 
     17 C17        19.3062  -24.8891  -41.0961 C.3       10 UNK        -0.0983 
     18 CA         20.4963  -25.3294  -41.9954 C.3       3 UNK         0.0876 
     19 N          20.1000  -25.6235  -43.3766 N.am      3 UNK        -0.4424 
     20 C          20.8921  -26.1836  -44.2996 C.2       2 UNK         0.4918 
     21 O          22.0577  -26.5234  -44.0901 O.2       2 UNK        -0.4875 
     22 CA         20.2600  -26.4004  -45.6876 C.3       2 UNK         0.0481 
     23 CB         21.3134  -26.3855  -46.8154 C.3       2 UNK        -0.1831 
     24 N          19.4401  -27.6173  -45.7662 N.am      2 UNK        -0.4498 
     25 C          19.8295  -28.8909  -45.5923 C.2       1 UNK         0.5027 
     26 O          20.9628  -29.2254  -45.2361 O.2       1 UNK        -0.4969 
     27 C          21.6061  -24.2574  -41.9426 C.2       3 UNK         0.5005 
     28 O          21.4336  -23.1754  -42.5109 O.2       3 UNK        -0.5279 
     29 N          22.6939  -24.5579  -41.2300 N.am      4 UNK        -0.4463 
     30 CA         23.7866  -23.6461  -40.9037 C.3       4 UNK         0.0283 
     31 CB         24.8497  -23.6798  -42.0228 C.3       4 UNK        -0.1875 
     32 C          24.3001  -24.0398  -39.5096 C.2       4 UNK         0.4949 
     33 O          23.4934  -24.1414  -38.5837 O.2       4 UNK        -0.5039 
     34 N          25.6078  -24.3047  -39.3762 N.am      5 UNK        -0.4663 
     35 CA         26.2150  -24.9017  -38.1764 C.3       5 UNK         0.0242 
     36 CB         27.7403  -24.7209  -38.2430 C.3       5 UNK        -0.1982 
     37 C          25.8542  -26.3924  -37.9981 C.2       5 UNK         0.5017 
     38 O          25.9860  -26.9257  -36.8962 O.2       5 UNK        -0.5012 
     39 N          25.3991  -27.0218  -39.0850 N.am      6 UNK        -0.4439 
     40 CA         24.8376  -28.3629  -39.1771 C.3       6 UNK         0.0297 
     41 CB         25.9668  -29.3870  -39.4097 C.3       6 UNK        -0.2006 
     42 C          23.7979  -28.3364  -40.3119 C.2       6 UNK         0.4892 
     43 O          23.3880  -27.2505  -40.7335 O.2       6 UNK        -0.5089 
     44 N          23.3942  -29.5117  -40.7983 N.am      7 UNK        -0.4243 
     45 CA         22.5217  -29.6856  -41.9556 C.3       7 UNK         0.0196 
     46 CB         21.0522  -29.5044  -41.5458 C.3       7 UNK        -0.2007 
     47 C          22.7550  -31.0846  -42.5270 C.2       7 UNK         0.5020 
     48 O          23.1966  -31.9785  -41.7991 O.2       7 UNK        -0.5147 
     49 N          22.4281  -31.2640  -43.8092 N.am      8 UNK        -0.4734 
     50 CA         22.4675  -32.5526  -44.4971 C.3       8 UNK         0.0238 
     51 CB         22.8680  -32.3221  -45.9650 C.3       8 UNK        -0.1912 
     52 C          21.1034  -33.2428  -44.3454 C.2       8 UNK         0.5038 
     53 O          20.3187  -33.2745  -45.2944 O.2       8 UNK        -0.5046 
     54 N          20.8241  -33.7339  -43.1333 N.am      9 UNK        -0.4200 
     55 CA         19.5491  -34.3661  -42.7532 C.3       9 UNK         0.0839 
     56 C          19.2514  -35.7300  -43.4434 C.2       9 UNK         0.5513 
     57 N          20.2210  -36.3904  -44.0651 N.am      9 UNK        -0.7519 
     58 O          18.1155  -36.1960  -43.4115 O.2       9 UNK        -0.4960 
     59 C59        19.4127  -34.5000  -41.2148 C.3       10 UNK        -0.0876 
     60 S60        19.6109  -32.9143  -40.3322 S.3       10 UNK        -0.2414 
     61 C61        17.8870  -32.3761  -40.1042 C.3       10 UNK         0.0169 
     62 H62        21.4278  -31.9391  -48.9307 H         1 UNK         0.0903 
     63 H63        20.3991  -33.0206  -47.9877 H         1 UNK         0.0903 
     64 H64        19.8467  -32.4214  -49.5507 H         1 UNK         0.0903 
     65 H65        19.6180  -31.9181  -46.2170 H         1 UNK         0.3096 
     66 H66        18.6125  -30.4798  -44.9081 H         1 UNK         0.1121 
     67 H67        17.5527  -28.9171  -47.3276 H         1 UNK         0.0849 
     68 H68        16.8638  -30.4162  -46.8030 H         1 UNK         0.0849 
     69 H69        14.8036  -29.8864  -43.8719 H         1 UNK         0.0865 
     70 H70        15.9747  -30.9693  -44.5774 H         1 UNK         0.0865 
     71 H71        16.6847  -32.0855  -42.5413 H         1 UNK         0.1346 
     72 H72        18.4371  -29.8310  -39.3460 H         1 UNK         0.1412 
     73 H73        16.7008  -27.8141  -42.7075 H         1 UNK         0.1426 
     74 H74        19.1181  -27.3963  -40.0484 H         1 UNK         0.0716 
     75 H75        17.5189  -27.2220  -39.3716 H         1 UNK         0.0716 
     76 H76        19.0417  -23.8484  -41.2957 H         1 UNK         0.0695 
     77 H77        19.5918  -24.9259  -40.0430 H         1 UNK         0.0695 
     78 H78        20.8992  -26.2561  -41.5847 H         1 UNK         0.0983 
     79 H79        19.1537  -25.3730  -43.6223 H         1 UNK         0.3095 
     80 H80        19.5842  -25.5631  -45.8689 H         1 UNK         0.0454 
     81 H81        21.8848  -25.4567  -46.8010 H         1 UNK         0.0851 
     82 H82        20.8451  -26.4646  -47.7963 H         1 UNK         0.0851 
     83 H83        22.0268  -27.2048  -46.7200 H         1 UNK         0.0851 
     84 H84        18.4671  -27.4694  -45.9999 H         1 UNK         0.2976 
     85 H85        22.7864  -25.4976  -40.8443 H         1 UNK         0.3116 
     86 H86        23.3994  -22.6287  -40.8184 H         1 UNK         0.0646 
     87 H87        25.2694  -24.6776  -42.1578 H         1 UNK         0.0847 
     88 H88        24.4180  -23.3781  -42.9773 H         1 UNK         0.0847 
     89 H89        25.6688  -22.9897  -41.8169 H         1 UNK         0.0847 
     90 H90        26.2118  -24.1775  -40.1761 H         1 UNK         0.3040 
     91 H91        25.8423  -24.3702  -37.2977 H         1 UNK         0.1015 
     92 H92        28.2203  -25.1266  -37.3511 H         1 UNK         0.0786 
     93 H93        28.0132  -23.6671  -38.3039 H         1 UNK         0.0786 
     94 H94        28.1713  -25.2315  -39.1051 H         1 UNK         0.0786 
     95 H95        25.2530  -26.4691  -39.9195 H         1 UNK         0.3172 
     96 H96        24.3119  -28.5999  -38.2501 H         1 UNK         0.0595 
     97 H97        26.4555  -29.2354  -40.3730 H         1 UNK         0.0839 
     98 H98        25.5909  -30.4103  -39.3865 H         1 UNK         0.0839 
     99 H99        26.7310  -29.3146  -38.6355 H         1 UNK         0.0839 
    100 H100       23.7775  -30.3771  -40.4375 H         1 UNK         0.2998 
    101 H101       22.7820  -28.9499  -42.7208 H         1 UNK         0.0822 
    102 H102       20.3803  -29.6568  -42.3916 H         1 UNK         0.0787 
    103 H103       20.8693  -28.5029  -41.1648 H         1 UNK         0.0787 
    104 H104       20.7684  -30.2120  -40.7676 H         1 UNK         0.0787 
    105 H105       22.0082  -30.4901  -44.3233 H         1 UNK         0.3055 
    106 H106       23.2211  -33.2039  -44.0479 H         1 UNK         0.1106 
    107 H107       23.8967  -31.9695  -46.0387 H         1 UNK         0.0828 
    108 H108       22.7994  -33.2441  -46.5440 H         1 UNK         0.0828 
    109 H109       22.2327  -31.5792  -46.4449 H         1 UNK         0.0828 
    110 H110       21.5027  -33.6158  -42.3930 H         1 UNK         0.2931 
    111 H111       18.7594  -33.6896  -43.0864 H         1 UNK         0.0412 
    112 H112       20.0129  -37.2708  -44.5099 H         1 UNK         0.3472 
    113 H113       21.1558  -36.0170  -44.0977 H         1 UNK         0.3472 
    114 H114       18.4542  -34.9472  -40.9453 H         1 UNK         0.0970 
    115 H115       20.1710  -35.1866  -40.8336 H         1 UNK         0.0970 
    116 H116       17.7122  -32.2155  -39.0393 H         1 UNK         0.0612 
    117 H117       17.1891  -33.1578  -40.4057 H         1 UNK         0.0612 
@<TRIPOS>BOND
     1    1    2 1    
     2    1   62 1    
     3    1   63 1    
     4    1   64 1    
     5    2    3 2    
     6    2    4 am   BACKBONE|DICT|INTERRES
     7    4    5 1    
     8    4   65 1    
     9    5    6 1    
    10    5   25 1    
    11    5   66 1    
    12    6    7 1    
    13    6   67 1    
    14    6   68 1    
    15    7    8 1    
    16    8    9 1    
    17    8   69 1    
    18    8   70 1    
    19    9   10 ar   
    20    9   14 ar   
    21   10   11 ar   
    22   10   71 1    
    23   11   12 ar   
    24   11   61 1    
    25   12   13 ar   
    26   12   72 1    
    27   13   14 ar   
    28   13   15 1    
    29   14   73 1    
    30   15   16 1    
    31   15   74 1    
    32   15   75 1    
    33   16   17 1    
    34   17   18 1    
    35   17   76 1    
    36   17   77 1    
    37   18   19 1    
    38   18   27 1    
    39   18   78 1    
    40   19   20 am   BACKBONE|DICT|INTERRES
    41   19   79 1    
    42   20   21 2    
    43   20   22 1    
    44   22   23 1    
    45   22   24 1    
    46   22   80 1    
    47   23   81 1    
    48   23   82 1    
    49   23   83 1    
    50   24   25 am   BACKBONE|DICT|INTERRES
    51   24   84 1    
    52   25   26 2    
    53   27   28 2    
    54   27   29 am   BACKBONE|DICT|INTERRES
    55   29   30 1    
    56   29   85 1    
    57   30   31 1    
    58   30   32 1    
    59   30   86 1    
    60   31   87 1    
    61   31   88 1    
    62   31   89 1    
    63   32   33 2    
    64   32   34 am   BACKBONE|DICT|INTERRES
    65   34   35 1    
    66   34   90 1    
    67   35   36 1    
    68   35   37 1    
    69   35   91 1    
    70   36   92 1    
    71   36   93 1    
    72   36   94 1    
    73   37   38 2    
    74   37   39 am   BACKBONE|DICT|INTERRES
    75   39   40 1    
    76   39   95 1    
    77   40   41 1    
    78   40   42 1    
    79   40   96 1    
    80   41   97 1    
    81   41   98 1    
    82   41   99 1    
    83   42   43 2    
    84   42   44 am   BACKBONE|DICT|INTERRES
    85   44   45 1    
    86   44  100 1    
    87   45   46 1    
    88   45   47 1    
    89   45  101 1    
    90   46  102 1    
    91   46  103 1    
    92   46  104 1    
    93   47   48 2    
    94   47   49 am   BACKBONE|DICT|INTERRES
    95   49   50 1    
    96   49  105 1    
    97   50   51 1    
    98   50   52 1    
    99   50  106 1    
   100   51  107 1    
   101   51  108 1    
   102   51  109 1    
   103   52   53 2    
   104   52   54 am   BACKBONE|DICT|INTERRES
   105   54   55 1    
   106   54  110 1    
   107   55   56 1    
   108   55   59 1    
   109   55  111 1    
   110   56   57 am   BACKBONE|DICT|INTERRES
   111   56   58 2    
   112   57  112 1    
   113   57  113 1    
   114   59   60 1    
   115   59  114 1    
   116   59  115 1    
   117   60   61 1    
   118   61  116 1    
   119   61  117 1    
@<TRIPOS>SUBSTRUCTURE
     1 UNK         1 GROUP             0       ****    0 ROOT    
