@<TRIPOS>MOLECULE
3R8
117   119    1
SMALL
USER_CHARGES


@<TRIPOS>ATOM
      1 CA         13.2629  -28.0345  -47.3041 C.3       0 UNK        -0.2013 
      2 C          14.5324  -27.8827  -46.4803 C.2       0 UNK         0.4866 
      3 O          15.3861  -28.7704  -46.4978 O.2       0 UNK        -0.5176 
      4 N          14.6754  -26.7591  -45.7662 N.am      1 UNK        -0.4884 
      5 CA         15.8124  -26.4353  -44.8927 C.3       1 UNK         0.0853 
      6 C6         15.4011  -25.4532  -43.7656 C.3       10 UNK        -0.0849 
      7 S7         14.3201  -26.2902  -42.5564 S.3       10 UNK        -0.2776 
      8 C8         15.3530  -26.3183  -41.0500 C.3       10 UNK         0.0316 
      9 C9         16.7576  -26.8756  -41.2704 C.ar      10 UNK        -0.0863 
     10 C10        16.9476  -28.1751  -41.7538 C.ar      10 UNK        -0.1009 
     11 C11        18.2390  -28.6821  -41.9284 C.ar      10 UNK        -0.0712 
     12 C12        19.3394  -27.8950  -41.5814 C.ar      10 UNK        -0.0894 
     13 C13        19.1709  -26.5848  -41.1221 C.ar      10 UNK        -0.0745 
     14 C14        17.8734  -26.0866  -40.9674 C.ar      10 UNK        -0.0972 
     15 C15        20.3612  -25.6985  -40.7508 C.3       10 UNK         0.0209 
     16 S16        21.8906  -26.0092  -41.7055 S.3       10 UNK        -0.2568 
     17 C17        21.4062  -25.4911  -43.3866 C.3       10 UNK        -0.0983 
     18 CA         21.2413  -26.6924  -44.3508 C.3       3 UNK         0.0876 
     19 N          20.3549  -26.3614  -45.4664 N.am      3 UNK        -0.4424 
     20 C          19.8569  -27.2455  -46.3389 C.2       2 UNK         0.4918 
     21 O          20.1260  -28.4482  -46.3383 O.2       2 UNK        -0.4875 
     22 CA         18.7893  -26.7035  -47.3018 C.3       2 UNK         0.0481 
     23 CB         18.7360  -27.4917  -48.6223 C.3       2 UNK        -0.1831 
     24 N          17.4949  -26.8004  -46.6329 N.am      2 UNK        -0.4498 
     25 C          17.0404  -25.9573  -45.6974 C.2       1 UNK         0.5027 
     26 O          17.5667  -24.8691  -45.4545 O.2       1 UNK        -0.4969 
     27 C          22.5945  -27.2539  -44.8318 C.2       3 UNK         0.5005 
     28 O          23.1714  -26.7297  -45.7889 O.2       3 UNK        -0.5279 
     29 N          23.0679  -28.3067  -44.1571 N.am      4 UNK        -0.4463 
     30 CA         24.2910  -29.0352  -44.4649 C.3       4 UNK         0.0283 
     31 CB         24.0357  -30.0185  -45.6232 C.3       4 UNK        -0.1875 
     32 C          24.7478  -29.7875  -43.2121 C.2       4 UNK         0.4949 
     33 O          23.9404  -30.0218  -42.3057 O.2       4 UNK        -0.5039 
     34 N          26.0340  -30.1656  -43.2078 N.am      5 UNK        -0.4663 
     35 CA         26.7131  -31.0020  -42.2085 C.3       5 UNK         0.0242 
     36 CB         26.2054  -32.4555  -42.3130 C.3       5 UNK        -0.1982 
     37 C          26.6288  -30.4433  -40.7747 C.2       5 UNK         0.5017 
     38 O          26.4042  -31.2038  -39.8341 O.2       5 UNK        -0.5012 
     39 N          26.7706  -29.1155  -40.6400 N.am      6 UNK        -0.4439 
     40 CA         26.6479  -28.3449  -39.3929 C.3       6 UNK         0.0297 
     41 CB         27.8342  -28.6395  -38.4496 C.3       6 UNK        -0.2006 
     42 C          25.2753  -28.5292  -38.7094 C.2       6 UNK         0.4892 
     43 O          25.2066  -28.6802  -37.4886 O.2       6 UNK        -0.5089 
     44 N          24.2166  -28.5288  -39.5328 N.am      7 UNK        -0.4243 
     45 CA         22.8053  -28.7344  -39.1889 C.3       7 UNK         0.0196 
     46 CB         22.3091  -27.7085  -38.1471 C.3       7 UNK        -0.2007 
     47 C          22.4457  -30.1860  -38.8188 C.2       7 UNK         0.5020 
     48 O          21.3636  -30.4121  -38.2762 O.2       7 UNK        -0.5147 
     49 N          23.3108  -31.1563  -39.1536 N.am      8 UNK        -0.4734 
     50 CA         22.9839  -32.5869  -39.0917 C.3       8 UNK         0.0238 
     51 CB         24.2687  -33.4169  -38.9449 C.3       8 UNK        -0.1912 
     52 C          22.1623  -33.0568  -40.3081 C.2       8 UNK         0.5038 
     53 O          21.5844  -34.1425  -40.2474 O.2       8 UNK        -0.5046 
     54 N          22.1175  -32.2413  -41.3733 N.am      9 UNK        -0.4200 
     55 CA         21.3126  -32.4257  -42.5946 C.3       9 UNK         0.0839 
     56 C          21.8304  -33.5331  -43.5599 C.2       9 UNK         0.5513 
     57 N          23.0072  -34.1080  -43.3455 N.am      9 UNK        -0.7519 
     58 O          21.1679  -33.8566  -44.5423 O.2       9 UNK        -0.4960 
     59 C59        19.7808  -32.5470  -42.3246 C.3       10 UNK        -0.0876 
     60 S60        19.1219  -31.2121  -41.2662 S.3       10 UNK        -0.2414 
     61 C61        18.4661  -30.0668  -42.5143 C.3       10 UNK         0.0169 
     62 H62        12.5995  -27.1770  -47.1936 H         1 UNK         0.0903 
     63 H63        13.5112  -28.1381  -48.3600 H         1 UNK         0.0903 
     64 H64        12.7191  -28.9260  -46.9927 H         1 UNK         0.0903 
     65 H65        13.9489  -26.0579  -45.8042 H         1 UNK         0.3096 
     66 H66        16.1407  -27.3586  -44.4093 H         1 UNK         0.1121 
     67 H67        16.2726  -25.0552  -43.2431 H         1 UNK         0.0849 
     68 H68        14.8802  -24.5864  -44.1757 H         1 UNK         0.0849 
     69 H69        14.8508  -26.9209  -40.2920 H         1 UNK         0.0865 
     70 H70        15.3991  -25.3052  -40.6471 H         1 UNK         0.0865 
     71 H71        16.0893  -28.7847  -42.0022 H         1 UNK         0.1346 
     72 H72        20.3306  -28.3123  -41.6812 H         1 UNK         0.1412 
     73 H73        17.7322  -25.0809  -40.5947 H         1 UNK         0.1426 
     74 H74        20.5775  -25.8451  -39.6928 H         1 UNK         0.0716 
     75 H75        20.0964  -24.6460  -40.8642 H         1 UNK         0.0716 
     76 H76        22.1400  -24.7773  -43.7660 H         1 UNK         0.0695 
     77 H77        20.4683  -24.9379  -43.3121 H         1 UNK         0.0695 
     78 H78        20.7294  -27.4945  -43.8207 H         1 UNK         0.0983 
     79 H79        20.0466  -25.4012  -45.5270 H         1 UNK         0.3095 
     80 H80        19.0116  -25.6599  -47.5347 H         1 UNK         0.0454 
     81 H81        18.4799  -28.5400  -48.4627 H         1 UNK         0.0851 
     82 H82        19.7011  -27.4651  -49.1297 H         1 UNK         0.0851 
     83 H83        17.9986  -27.0692  -49.3048 H         1 UNK         0.0851 
     84 H84        16.9834  -27.6710  -46.7508 H         1 UNK         0.2976 
     85 H85        22.5877  -28.6474  -43.3335 H         1 UNK         0.3116 
     86 H86        25.0708  -28.3243  -44.7465 H         1 UNK         0.0646 
     87 H87        23.2586  -30.7417  -45.3715 H         1 UNK         0.0847 
     88 H88        24.9365  -30.5812  -45.8713 H         1 UNK         0.0847 
     89 H89        23.7239  -29.4970  -46.5282 H         1 UNK         0.0847 
     90 H90        26.6036  -29.8978  -43.9996 H         1 UNK         0.3040 
     91 H91        27.7736  -31.0042  -42.4660 H         1 UNK         0.1015 
     92 H92        25.1507  -32.5285  -42.0507 H         1 UNK         0.0786 
     93 H93        26.7587  -33.1172  -41.6452 H         1 UNK         0.0786 
     94 H94        26.3250  -32.8453  -43.3239 H         1 UNK         0.0786 
     95 H95        26.9379  -28.5768  -41.4791 H         1 UNK         0.3172 
     96 H96        26.7064  -27.2924  -39.6745 H         1 UNK         0.0595 
     97 H97        27.8122  -27.9845  -37.5778 H         1 UNK         0.0839 
     98 H98        28.7892  -28.4789  -38.9495 H         1 UNK         0.0839 
     99 H99        27.8155  -29.6666  -38.0833 H         1 UNK         0.0839 
    100 H100       24.4015  -28.4544  -40.5244 H         1 UNK         0.2998 
    101 H101       22.2587  -28.5397  -40.1118 H         1 UNK         0.0822 
    102 H102       21.2222  -27.7370  -38.0612 H         1 UNK         0.0787 
    103 H103       22.7151  -27.9066  -37.1550 H         1 UNK         0.0787 
    104 H104       22.5851  -26.6922  -38.4279 H         1 UNK         0.0787 
    105 H105       24.2076  -30.9064  -39.5542 H         1 UNK         0.3055 
    106 H106       22.3722  -32.7678  -38.2048 H         1 UNK         0.1106 
    107 H107       24.0335  -34.4681  -38.7733 H         1 UNK         0.0828 
    108 H108       24.8899  -33.3689  -39.8376 H         1 UNK         0.0828 
    109 H109       24.8685  -33.0768  -38.1004 H         1 UNK         0.0828 
    110 H110       22.6800  -31.3984  -41.3584 H         1 UNK         0.2931 
    111 H111       21.4578  -31.4991  -43.1513 H         1 UNK         0.0412 
    112 H112       23.5541  -33.8601  -42.5384 H         1 UNK         0.3472 
    113 H113       23.3348  -34.8156  -43.9840 H         1 UNK         0.3472 
    114 H114       19.2252  -32.5553  -43.2641 H         1 UNK         0.0970 
    115 H115       19.5553  -33.5001  -41.8438 H         1 UNK         0.0970 
    116 H116       17.5421  -30.4743  -42.9273 H         1 UNK         0.0612 
    117 H117       19.1710  -29.9871  -43.3437 H         1 UNK         0.0612 
@<TRIPOS>BOND
     1    1    2 1    
     2    1   62 1    
     3    1   63 1    
     4    1   64 1    
     5    2    3 2    
     6    2    4 am   BACKBONE|DICT|INTERRES
     7    4    5 1    
     8    4   65 1    
     9    5    6 1    
    10    5   25 1    
    11    5   66 1    
    12    6    7 1    
    13    6   67 1    
    14    6   68 1    
    15    7    8 1    
    16    8    9 1    
    17    8   69 1    
    18    8   70 1    
    19    9   10 ar   
    20    9   14 ar   
    21   10   11 ar   
    22   10   71 1    
    23   11   12 ar   
    24   11   61 1    
    25   12   13 ar   
    26   12   72 1    
    27   13   14 ar   
    28   13   15 1    
    29   14   73 1    
    30   15   16 1    
    31   15   74 1    
    32   15   75 1    
    33   16   17 1    
    34   17   18 1    
    35   17   76 1    
    36   17   77 1    
    37   18   19 1    
    38   18   27 1    
    39   18   78 1    
    40   19   20 am   BACKBONE|DICT|INTERRES
    41   19   79 1    
    42   20   21 2    
    43   20   22 1    
    44   22   23 1    
    45   22   24 1    
    46   22   80 1    
    47   23   81 1    
    48   23   82 1    
    49   23   83 1    
    50   24   25 am   BACKBONE|DICT|INTERRES
    51   24   84 1    
    52   25   26 2    
    53   27   28 2    
    54   27   29 am   BACKBONE|DICT|INTERRES
    55   29   30 1    
    56   29   85 1    
    57   30   31 1    
    58   30   32 1    
    59   30   86 1    
    60   31   87 1    
    61   31   88 1    
    62   31   89 1    
    63   32   33 2    
    64   32   34 am   BACKBONE|DICT|INTERRES
    65   34   35 1    
    66   34   90 1    
    67   35   36 1    
    68   35   37 1    
    69   35   91 1    
    70   36   92 1    
    71   36   93 1    
    72   36   94 1    
    73   37   38 2    
    74   37   39 am   BACKBONE|DICT|INTERRES
    75   39   40 1    
    76   39   95 1    
    77   40   41 1    
    78   40   42 1    
    79   40   96 1    
    80   41   97 1    
    81   41   98 1    
    82   41   99 1    
    83   42   43 2    
    84   42   44 am   BACKBONE|DICT|INTERRES
    85   44   45 1    
    86   44  100 1    
    87   45   46 1    
    88   45   47 1    
    89   45  101 1    
    90   46  102 1    
    91   46  103 1    
    92   46  104 1    
    93   47   48 2    
    94   47   49 am   BACKBONE|DICT|INTERRES
    95   49   50 1    
    96   49  105 1    
    97   50   51 1    
    98   50   52 1    
    99   50  106 1    
   100   51  107 1    
   101   51  108 1    
   102   51  109 1    
   103   52   53 2    
   104   52   54 am   BACKBONE|DICT|INTERRES
   105   54   55 1    
   106   54  110 1    
   107   55   56 1    
   108   55   59 1    
   109   55  111 1    
   110   56   57 am   BACKBONE|DICT|INTERRES
   111   56   58 2    
   112   57  112 1    
   113   57  113 1    
   114   59   60 1    
   115   59  114 1    
   116   59  115 1    
   117   60   61 1    
   118   61  116 1    
   119   61  117 1    
@<TRIPOS>SUBSTRUCTURE
     1 UNK         1 GROUP             0       ****    0 ROOT    
