@<TRIPOS>MOLECULE
3R8
117   119    1
SMALL
USER_CHARGES


@<TRIPOS>ATOM
      1 CA         17.1106  -28.3729  -37.7845 C.3       0 UNK        -0.2013 
      2 C          17.2501  -27.7065  -39.1453 C.2       0 UNK         0.4866 
      3 O          17.2860  -26.4777  -39.2236 O.2       0 UNK        -0.5176 
      4 N          17.3186  -28.5058  -40.2164 N.am      1 UNK        -0.4884 
      5 CA         17.5589  -28.0497  -41.5897 C.3       1 UNK         0.0853 
      6 C6         17.0906  -29.1186  -42.6092 C.3       10 UNK        -0.0849 
      7 S7         16.6754  -28.3872  -44.2315 S.3       10 UNK        -0.2776 
      8 C8         16.6653  -29.8451  -45.3277 C.3       10 UNK         0.0316 
      9 C9         17.9699  -30.6311  -45.2848 C.ar      10 UNK        -0.0863 
     10 C10        17.9576  -31.9863  -44.9482 C.ar      10 UNK        -0.1009 
     11 C11        19.1506  -32.7097  -44.8638 C.ar      10 UNK        -0.0712 
     12 C12        20.3635  -32.0755  -45.1514 C.ar      10 UNK        -0.0894 
     13 C13        20.3893  -30.7222  -45.5053 C.ar      10 UNK        -0.0745 
     14 C14        19.1883  -30.0067  -45.5645 C.ar      10 UNK        -0.0972 
     15 C15        21.7142  -30.0197  -45.7730 C.3       10 UNK         0.0209 
     16 S16        21.7067  -29.1157  -47.3567 S.3       10 UNK        -0.2568 
     17 C17        23.0725  -27.9364  -47.1059 C.3       10 UNK        -0.0983 
     18 CA         22.5704  -26.5600  -46.5832 C.3       3 UNK         0.0876 
     19 N          22.0944  -26.6416  -45.2040 N.am      3 UNK        -0.4424 
     20 C          20.8383  -26.4802  -44.7840 C.2       2 UNK         0.4918 
     21 O          19.8629  -26.3050  -45.5175 O.2       2 UNK        -0.4875 
     22 CA         20.6631  -26.4886  -43.2634 C.3       2 UNK         0.0481 
     23 CB         20.8955  -25.0833  -42.6796 C.3       2 UNK        -0.1831 
     24 N          19.3279  -26.9559  -42.9056 N.am      2 UNK        -0.4498 
     25 C          19.0389  -27.6425  -41.7946 C.2       1 UNK         0.5027 
     26 O          19.8924  -27.9522  -40.9587 O.2       1 UNK        -0.4969 
     27 C          23.6414  -25.4517  -46.5787 C.2       3 UNK         0.5005 
     28 O          23.3125  -24.3071  -46.2581 O.2       3 UNK        -0.5279 
     29 N          24.9051  -25.7931  -46.8757 N.am      4 UNK        -0.4463 
     30 CA         26.0659  -24.9095  -46.6941 C.3       4 UNK         0.0283 
     31 CB         27.2722  -25.4925  -47.4479 C.3       4 UNK        -0.1875 
     32 C          26.4158  -24.6868  -45.2080 C.2       4 UNK         0.4949 
     33 O          27.0218  -23.6705  -44.8687 O.2       4 UNK        -0.5039 
     34 N          26.0107  -25.6345  -44.3571 N.am      5 UNK        -0.4663 
     35 CA         26.0497  -25.5882  -42.9006 C.3       5 UNK         0.0242 
     36 CB         27.3271  -26.2880  -42.4029 C.3       5 UNK        -0.1982 
     37 C          24.7828  -26.2843  -42.3795 C.2       5 UNK         0.5017 
     38 O          24.0495  -26.8869  -43.1722 O.2       5 UNK        -0.5012 
     39 N          24.5425  -26.1900  -41.0655 N.am      6 UNK        -0.4439 
     40 CA         23.4369  -26.8597  -40.3738 C.3       6 UNK         0.0297 
     41 CB         23.3537  -26.3486  -38.9269 C.3       6 UNK        -0.2006 
     42 C          23.5879  -28.3902  -40.3989 C.2       6 UNK         0.4892 
     43 O          24.7004  -28.8935  -40.2223 O.2       6 UNK        -0.5089 
     44 N          22.4673  -29.0900  -40.5947 N.am      7 UNK        -0.4243 
     45 CA         22.3747  -30.5467  -40.6070 C.3       7 UNK         0.0196 
     46 CB         21.6194  -30.9743  -41.8788 C.3       7 UNK        -0.2007 
     47 C          21.6290  -31.0315  -39.3568 C.2       7 UNK         0.5020 
     48 O          20.9034  -30.2634  -38.7219 O.2       7 UNK        -0.5147 
     49 N          21.7844  -32.3251  -39.0495 N.am      8 UNK        -0.4734 
     50 CA         21.0236  -33.0177  -38.0008 C.3       8 UNK         0.0238 
     51 CB         21.7711  -34.3025  -37.6061 C.3       8 UNK        -0.1912 
     52 C          19.5761  -33.3430  -38.4225 C.2       8 UNK         0.5038 
     53 O          18.7599  -33.6775  -37.5631 O.2       8 UNK        -0.5046 
     54 N          19.3021  -33.2640  -39.7308 N.am      9 UNK        -0.4200 
     55 CA         18.0097  -33.4996  -40.3831 C.3       9 UNK         0.0839 
     56 C          16.8962  -32.5556  -39.8556 C.2       9 UNK         0.5513 
     57 N          15.7334  -33.0902  -39.5111 N.am      9 UNK        -0.7519 
     58 O          17.0659  -31.3390  -39.8125 O.2       9 UNK        -0.4960 
     59 C59        18.1354  -33.3495  -41.9203 C.3       10 UNK        -0.0876 
     60 S60        19.4578  -34.3717  -42.6587 S.3       10 UNK        -0.2414 
     61 C61        19.1220  -34.1712  -44.4388 C.3       10 UNK         0.0169 
     62 H62        17.9375  -28.0791  -37.1384 H         1 UNK         0.0903 
     63 H63        16.1788  -28.0680  -37.3092 H         1 UNK         0.0903 
     64 H64        17.1140  -29.4600  -37.8609 H         1 UNK         0.0903 
     65 H65        17.3004  -29.5155  -40.0809 H         1 UNK         0.3096 
     66 H66        16.9568  -27.1493  -41.7335 H         1 UNK         0.1121 
     67 H67        16.1890  -29.6169  -42.2485 H         1 UNK         0.0849 
     68 H68        17.8416  -29.9031  -42.7141 H         1 UNK         0.0849 
     69 H69        15.8196  -30.4787  -45.0557 H         1 UNK         0.0865 
     70 H70        16.4845  -29.5161  -46.3518 H         1 UNK         0.0865 
     71 H71        17.0196  -32.4763  -44.7256 H         1 UNK         0.1346 
     72 H72        21.2869  -32.6338  -45.0792 H         1 UNK         0.1412 
     73 H73        19.2018  -28.9556  -45.8195 H         1 UNK         0.1426 
     74 H74        22.5405  -30.7321  -45.7817 H         1 UNK         0.0716 
     75 H75        21.9077  -29.3336  -44.9491 H         1 UNK         0.0716 
     76 H76        23.8117  -28.3749  -46.4325 H         1 UNK         0.0695 
     77 H77        23.5593  -27.8233  -48.0764 H         1 UNK         0.0695 
     78 H78        21.7708  -26.2077  -47.2389 H         1 UNK         0.0983 
     79 H79        22.8215  -26.7366  -44.4959 H         1 UNK         0.3095 
     80 H80        21.4019  -27.1804  -42.8550 H         1 UNK         0.0454 
     81 H81        20.7760  -25.0743  -41.5964 H         1 UNK         0.0851 
     82 H82        21.9044  -24.7307  -42.8980 H         1 UNK         0.0851 
     83 H83        20.1978  -24.3562  -43.0968 H         1 UNK         0.0851 
     84 H84        18.6117  -26.8037  -43.6064 H         1 UNK         0.2976 
     85 H85        25.0998  -26.7450  -47.1522 H         1 UNK         0.3116 
     86 H86        25.8299  -23.9354  -47.1281 H         1 UNK         0.0646 
     87 H87        28.1415  -24.8401  -47.3540 H         1 UNK         0.0847 
     88 H88        27.0632  -25.5981  -48.5125 H         1 UNK         0.0847 
     89 H89        27.5581  -26.4714  -47.0610 H         1 UNK         0.0847 
     90 H90        25.4680  -26.4068  -44.7197 H         1 UNK         0.3040 
     91 H91        26.0349  -24.5496  -42.5621 H         1 UNK         0.1015 
     92 H92        28.2209  -25.8124  -42.8071 H         1 UNK         0.0786 
     93 H93        27.3481  -27.3395  -42.6929 H         1 UNK         0.0786 
     94 H94        27.4046  -26.2473  -41.3159 H         1 UNK         0.0786 
     95 H95        25.2103  -25.7061  -40.4830 H         1 UNK         0.3172 
     96 H96        22.5096  -26.5918  -40.8793 H         1 UNK         0.0595 
     97 H97        23.1956  -25.2705  -38.8934 H         1 UNK         0.0839 
     98 H98        24.2606  -26.5755  -38.3649 H         1 UNK         0.0839 
     99 H99        22.5191  -26.8132  -38.3994 H         1 UNK         0.0839 
    100 H100       21.5726  -28.6029  -40.6483 H         1 UNK         0.2998 
    101 H101       23.3700  -30.9962  -40.6177 H         1 UNK         0.0822 
    102 H102       22.1204  -30.6065  -42.7739 H         1 UNK         0.0787 
    103 H103       21.5671  -32.0599  -41.9660 H         1 UNK         0.0787 
    104 H104       20.5965  -30.5946  -41.8922 H         1 UNK         0.0787 
    105 H105       22.4099  -32.8914  -39.6062 H         1 UNK         0.3055 
    106 H106       20.9655  -32.3702  -37.1225 H         1 UNK         0.1106 
    107 H107       22.7766  -34.0829  -37.2466 H         1 UNK         0.0828 
    108 H108       21.2503  -34.8260  -36.8030 H         1 UNK         0.0828 
    109 H109       21.8560  -34.9956  -38.4440 H         1 UNK         0.0828 
    110 H110       20.0494  -32.9859  -40.3467 H         1 UNK         0.2931 
    111 H111       17.7283  -34.5312  -40.1630 H         1 UNK         0.0412 
    112 H112       15.5841  -34.0865  -39.5533 H         1 UNK         0.3472 
    113 H113       14.9948  -32.4866  -39.1853 H         1 UNK         0.3472 
    114 H114       18.3359  -32.3073  -42.1757 H         1 UNK         0.0970 
    115 H115       17.1901  -33.6099  -42.4004 H         1 UNK         0.0970 
    116 H116       19.8656  -34.7344  -45.0046 H         1 UNK         0.0612 
    117 H117       18.1554  -34.6194  -44.6743 H         1 UNK         0.0612 
@<TRIPOS>BOND
     1    1    2 1    
     2    1   62 1    
     3    1   63 1    
     4    1   64 1    
     5    2    3 2    
     6    2    4 am   BACKBONE|DICT|INTERRES
     7    4    5 1    
     8    4   65 1    
     9    5    6 1    
    10    5   25 1    
    11    5   66 1    
    12    6    7 1    
    13    6   67 1    
    14    6   68 1    
    15    7    8 1    
    16    8    9 1    
    17    8   69 1    
    18    8   70 1    
    19    9   10 ar   
    20    9   14 ar   
    21   10   11 ar   
    22   10   71 1    
    23   11   12 ar   
    24   11   61 1    
    25   12   13 ar   
    26   12   72 1    
    27   13   14 ar   
    28   13   15 1    
    29   14   73 1    
    30   15   16 1    
    31   15   74 1    
    32   15   75 1    
    33   16   17 1    
    34   17   18 1    
    35   17   76 1    
    36   17   77 1    
    37   18   19 1    
    38   18   27 1    
    39   18   78 1    
    40   19   20 am   BACKBONE|DICT|INTERRES
    41   19   79 1    
    42   20   21 2    
    43   20   22 1    
    44   22   23 1    
    45   22   24 1    
    46   22   80 1    
    47   23   81 1    
    48   23   82 1    
    49   23   83 1    
    50   24   25 am   BACKBONE|DICT|INTERRES
    51   24   84 1    
    52   25   26 2    
    53   27   28 2    
    54   27   29 am   BACKBONE|DICT|INTERRES
    55   29   30 1    
    56   29   85 1    
    57   30   31 1    
    58   30   32 1    
    59   30   86 1    
    60   31   87 1    
    61   31   88 1    
    62   31   89 1    
    63   32   33 2    
    64   32   34 am   BACKBONE|DICT|INTERRES
    65   34   35 1    
    66   34   90 1    
    67   35   36 1    
    68   35   37 1    
    69   35   91 1    
    70   36   92 1    
    71   36   93 1    
    72   36   94 1    
    73   37   38 2    
    74   37   39 am   BACKBONE|DICT|INTERRES
    75   39   40 1    
    76   39   95 1    
    77   40   41 1    
    78   40   42 1    
    79   40   96 1    
    80   41   97 1    
    81   41   98 1    
    82   41   99 1    
    83   42   43 2    
    84   42   44 am   BACKBONE|DICT|INTERRES
    85   44   45 1    
    86   44  100 1    
    87   45   46 1    
    88   45   47 1    
    89   45  101 1    
    90   46  102 1    
    91   46  103 1    
    92   46  104 1    
    93   47   48 2    
    94   47   49 am   BACKBONE|DICT|INTERRES
    95   49   50 1    
    96   49  105 1    
    97   50   51 1    
    98   50   52 1    
    99   50  106 1    
   100   51  107 1    
   101   51  108 1    
   102   51  109 1    
   103   52   53 2    
   104   52   54 am   BACKBONE|DICT|INTERRES
   105   54   55 1    
   106   54  110 1    
   107   55   56 1    
   108   55   59 1    
   109   55  111 1    
   110   56   57 am   BACKBONE|DICT|INTERRES
   111   56   58 2    
   112   57  112 1    
   113   57  113 1    
   114   59   60 1    
   115   59  114 1    
   116   59  115 1    
   117   60   61 1    
   118   61  116 1    
   119   61  117 1    
@<TRIPOS>SUBSTRUCTURE
     1 UNK         1 GROUP             0       ****    0 ROOT    
