@<TRIPOS>MOLECULE
3R8
117   119    1
SMALL
USER_CHARGES


@<TRIPOS>ATOM
      1 CA         19.4948  -23.1017  -48.6295 C.3       0 UNK        -0.2013 
      2 C          19.5389  -24.5707  -48.2364 C.2       0 UNK         0.4866 
      3 O          20.4350  -25.2936  -48.6720 O.2       0 UNK        -0.5176 
      4 N          18.5764  -25.0182  -47.4180 N.am      1 UNK        -0.4884 
      5 CA         18.4680  -26.4017  -46.9315 C.3       1 UNK         0.0853 
      6 C6         17.0642  -26.6887  -46.3208 C.3       10 UNK        -0.0849 
      7 S7         16.1336  -27.9625  -47.2339 S.3       10 UNK        -0.2776 
      8 C8         16.9002  -29.5130  -46.6355 C.3       10 UNK         0.0316 
      9 C9         16.7264  -29.8392  -45.1491 C.ar      10 UNK        -0.0863 
     10 C10        17.5521  -30.8211  -44.5914 C.ar      10 UNK        -0.1009 
     11 C11        17.4348  -31.1805  -43.2461 C.ar      10 UNK        -0.0712 
     12 C12        16.4826  -30.5484  -42.4466 C.ar      10 UNK        -0.0894 
     13 C13        15.6753  -29.5386  -42.9751 C.ar      10 UNK        -0.0745 
     14 C14        15.7796  -29.2082  -44.3301 C.ar      10 UNK        -0.0972 
     15 C15        14.7236  -28.7740  -42.0677 C.3       10 UNK         0.0209 
     16 S16        15.6144  -27.9063  -40.7320 S.3       10 UNK        -0.2568 
     17 C17        16.7840  -26.8470  -41.6569 C.3       10 UNK        -0.0983 
     18 CA         18.2466  -27.3744  -41.6460 C.3       3 UNK         0.0876 
     19 N          19.0680  -26.6318  -42.6104 N.am      3 UNK        -0.4424 
     20 C          20.3781  -26.7773  -42.8723 C.2       2 UNK         0.4918 
     21 O          21.1302  -27.5551  -42.2802 O.2       2 UNK        -0.4875 
     22 CA         20.9383  -25.8770  -43.9938 C.3       2 UNK         0.0481 
     23 CB         22.3498  -26.2989  -44.4547 C.3       2 UNK        -0.1831 
     24 N          20.0179  -25.7643  -45.1337 N.am      2 UNK        -0.4498 
     25 C          19.5756  -26.7624  -45.9181 C.2       1 UNK         0.5027 
     26 O          19.9720  -27.9253  -45.8481 O.2       1 UNK        -0.4969 
     27 C          18.8694  -27.3514  -40.2336 C.2       3 UNK         0.5005 
     28 O          18.7527  -26.3436  -39.5330 O.2       3 UNK        -0.5279 
     29 N          19.5751  -28.4387  -39.8834 N.am      4 UNK        -0.4463 
     30 CA         20.3694  -28.6446  -38.6634 C.3       4 UNK         0.0283 
     31 CB         19.4583  -28.6770  -37.4187 C.3       4 UNK        -0.1875 
     32 C          21.5554  -27.6679  -38.4896 C.2       4 UNK         0.4949 
     33 O          22.1524  -27.6349  -37.4126 O.2       4 UNK        -0.5039 
     34 N          21.8887  -26.9011  -39.5362 N.am      5 UNK        -0.4663 
     35 CA         23.0059  -25.9567  -39.5639 C.3       5 UNK         0.0242 
     36 CB         22.6307  -24.7395  -40.4246 C.3       5 UNK        -0.1982 
     37 C          24.2749  -26.6309  -40.0985 C.2       5 UNK         0.5017 
     38 O          25.3615  -26.3679  -39.5821 O.2       5 UNK        -0.5012 
     39 N          24.1132  -27.5048  -41.1017 N.am      6 UNK        -0.4439 
     40 CA         25.1616  -28.4023  -41.5803 C.3       6 UNK         0.0297 
     41 CB         24.8715  -28.7929  -43.0387 C.3       6 UNK        -0.2006 
     42 C          25.2024  -29.6449  -40.6819 C.2       6 UNK         0.4892 
     43 O          24.1417  -30.1697  -40.3377 O.2       6 UNK        -0.5089 
     44 N          26.4114  -30.1189  -40.3523 N.am      7 UNK        -0.4243 
     45 CA         26.6406  -31.2807  -39.4815 C.3       7 UNK         0.0196 
     46 CB         28.1448  -31.4185  -39.1962 C.3       7 UNK        -0.2007 
     47 C          26.0743  -32.5982  -40.0413 C.2       7 UNK         0.5020 
     48 O          25.5996  -33.4320  -39.2705 O.2       7 UNK        -0.5147 
     49 N          26.1113  -32.7455  -41.3716 N.am      8 UNK        -0.4734 
     50 CA         25.5116  -33.8649  -42.1041 C.3       8 UNK         0.0238 
     51 CB         26.3732  -34.1553  -43.3456 C.3       8 UNK        -0.1912 
     52 C          24.0494  -33.5995  -42.5137 C.2       8 UNK         0.5038 
     53 O          23.4152  -34.5022  -43.0612 O.2       8 UNK        -0.5046 
     54 N          23.5477  -32.3782  -42.2739 N.am      9 UNK        -0.4200 
     55 CA         22.2312  -31.8807  -42.7030 C.3       9 UNK         0.0839 
     56 C          22.0502  -31.8211  -44.2536 C.2       9 UNK         0.5513 
     57 N          23.1168  -31.6181  -45.0193 N.am      9 UNK        -0.7519 
     58 O          20.9491  -31.9564  -44.7778 O.2       9 UNK        -0.4960 
     59 C59        21.0681  -32.5737  -41.9361 C.3       10 UNK        -0.0876 
     60 S60        19.6636  -31.4422  -41.6560 S.3       10 UNK        -0.2414 
     61 C61        18.3559  -32.2292  -42.6479 C.3       10 UNK         0.0169 
     62 H62        19.4122  -23.0056  -49.7118 H         1 UNK         0.0903 
     63 H63        18.6496  -22.5824  -48.1781 H         1 UNK         0.0903 
     64 H64        20.4092  -22.6009  -48.3121 H         1 UNK         0.0903 
     65 H65        17.8557  -24.3801  -47.1099 H         1 UNK         0.3096 
     66 H66        18.6278  -27.0538  -47.7937 H         1 UNK         0.1121 
     67 H67        17.1115  -26.9771  -45.2690 H         1 UNK         0.0849 
     68 H68        16.4466  -25.7892  -46.3243 H         1 UNK         0.0849 
     69 H69        16.4807  -30.3385  -47.2120 H         1 UNK         0.0865 
     70 H70        17.9635  -29.4860  -46.8782 H         1 UNK         0.0865 
     71 H71        18.2986  -31.3061  -45.2066 H         1 UNK         0.1346 
     72 H72        16.4044  -30.8072  -41.3992 H         1 UNK         0.1412 
     73 H73        15.1339  -28.4415  -44.7337 H         1 UNK         0.1426 
     74 H74        14.0099  -29.4709  -41.6264 H         1 UNK         0.0716 
     75 H75        14.1384  -28.0478  -42.6341 H         1 UNK         0.0716 
     76 H76        16.7340  -25.8384  -41.2424 H         1 UNK         0.0695 
     77 H77        16.4268  -26.7570  -42.6837 H         1 UNK         0.0695 
     78 H78        18.2336  -28.4081  -41.9957 H         1 UNK         0.0983 
     79 H79        18.5741  -25.9291  -43.1382 H         1 UNK         0.3095 
     80 H80        21.0188  -24.8754  -43.5695 H         1 UNK         0.0454 
     81 H81        22.3722  -27.3321  -44.8030 H         1 UNK         0.0851 
     82 H82        23.0671  -26.2173  -43.6380 H         1 UNK         0.0851 
     83 H83        22.7100  -25.6643  -45.2641 H         1 UNK         0.0851 
     84 H84        19.6383  -24.8430  -45.3031 H         1 UNK         0.2976 
     85 H85        19.6474  -29.1872  -40.5624 H         1 UNK         0.3116 
     86 H86        20.8173  -29.6340  -38.7688 H         1 UNK         0.0646 
     87 H87        19.0230  -27.6994  -37.2098 H         1 UNK         0.0847 
     88 H88        20.0160  -28.9787  -36.5313 H         1 UNK         0.0847 
     89 H89        18.6421  -29.3887  -37.5425 H         1 UNK         0.0847 
     90 H90        21.3771  -27.0351  -40.4019 H         1 UNK         0.3040 
     91 H91        23.2126  -25.6039  -38.5507 H         1 UNK         0.1015 
     92 H92        22.4676  -25.0112  -41.4668 H         1 UNK         0.0786 
     93 H93        23.4249  -23.9920  -40.4051 H         1 UNK         0.0786 
     94 H94        21.7237  -24.2590  -40.0567 H         1 UNK         0.0786 
     95 H95        23.1726  -27.6962  -41.4251 H         1 UNK         0.3172 
     96 H96        26.1284  -27.8953  -41.5427 H         1 UNK         0.0595 
     97 H97        25.5965  -29.5213  -43.4041 H         1 UNK         0.0839 
     98 H98        24.9309  -27.9257  -43.6962 H         1 UNK         0.0839 
     99 H99        23.8786  -29.2280  -43.1541 H         1 UNK         0.0839 
    100 H100       27.2327  -29.6319  -40.6831 H         1 UNK         0.2998 
    101 H101       26.1307  -31.0863  -38.5353 H         1 UNK         0.0822 
    102 H102       28.3401  -32.2623  -38.5326 H         1 UNK         0.0787 
    103 H103       28.7171  -31.5838  -40.1100 H         1 UNK         0.0787 
    104 H104       28.5400  -30.5276  -38.7078 H         1 UNK         0.0787 
    105 H105       26.5402  -32.0152  -41.9221 H         1 UNK         0.3055 
    106 H106       25.5109  -34.7575  -41.4741 H         1 UNK         0.1106 
    107 H107       25.9866  -35.0120  -43.8996 H         1 UNK         0.0828 
    108 H108       26.3956  -33.3080  -44.0319 H         1 UNK         0.0828 
    109 H109       27.4009  -34.3910  -43.0686 H         1 UNK         0.0828 
    110 H110       24.1022  -31.7192  -41.7422 H         1 UNK         0.2931 
    111 H111       22.2392  -30.8351  -42.3928 H         1 UNK         0.0412 
    112 H112       24.0320  -31.5149  -44.6142 H         1 UNK         0.3472 
    113 H113       22.9992  -31.5792  -46.0194 H         1 UNK         0.3472 
    114 H114       20.7536  -33.4901  -42.4381 H         1 UNK         0.0970 
    115 H115       21.4078  -32.8865  -40.9476 H         1 UNK         0.0970 
    116 H116       17.7870  -32.9126  -42.0160 H         1 UNK         0.0612 
    117 H117       18.7904  -32.8355  -43.4434 H         1 UNK         0.0612 
@<TRIPOS>BOND
     1    1    2 1    
     2    1   62 1    
     3    1   63 1    
     4    1   64 1    
     5    2    3 2    
     6    2    4 am   BACKBONE|DICT|INTERRES
     7    4    5 1    
     8    4   65 1    
     9    5    6 1    
    10    5   25 1    
    11    5   66 1    
    12    6    7 1    
    13    6   67 1    
    14    6   68 1    
    15    7    8 1    
    16    8    9 1    
    17    8   69 1    
    18    8   70 1    
    19    9   10 ar   
    20    9   14 ar   
    21   10   11 ar   
    22   10   71 1    
    23   11   12 ar   
    24   11   61 1    
    25   12   13 ar   
    26   12   72 1    
    27   13   14 ar   
    28   13   15 1    
    29   14   73 1    
    30   15   16 1    
    31   15   74 1    
    32   15   75 1    
    33   16   17 1    
    34   17   18 1    
    35   17   76 1    
    36   17   77 1    
    37   18   19 1    
    38   18   27 1    
    39   18   78 1    
    40   19   20 am   BACKBONE|DICT|INTERRES
    41   19   79 1    
    42   20   21 2    
    43   20   22 1    
    44   22   23 1    
    45   22   24 1    
    46   22   80 1    
    47   23   81 1    
    48   23   82 1    
    49   23   83 1    
    50   24   25 am   BACKBONE|DICT|INTERRES
    51   24   84 1    
    52   25   26 2    
    53   27   28 2    
    54   27   29 am   BACKBONE|DICT|INTERRES
    55   29   30 1    
    56   29   85 1    
    57   30   31 1    
    58   30   32 1    
    59   30   86 1    
    60   31   87 1    
    61   31   88 1    
    62   31   89 1    
    63   32   33 2    
    64   32   34 am   BACKBONE|DICT|INTERRES
    65   34   35 1    
    66   34   90 1    
    67   35   36 1    
    68   35   37 1    
    69   35   91 1    
    70   36   92 1    
    71   36   93 1    
    72   36   94 1    
    73   37   38 2    
    74   37   39 am   BACKBONE|DICT|INTERRES
    75   39   40 1    
    76   39   95 1    
    77   40   41 1    
    78   40   42 1    
    79   40   96 1    
    80   41   97 1    
    81   41   98 1    
    82   41   99 1    
    83   42   43 2    
    84   42   44 am   BACKBONE|DICT|INTERRES
    85   44   45 1    
    86   44  100 1    
    87   45   46 1    
    88   45   47 1    
    89   45  101 1    
    90   46  102 1    
    91   46  103 1    
    92   46  104 1    
    93   47   48 2    
    94   47   49 am   BACKBONE|DICT|INTERRES
    95   49   50 1    
    96   49  105 1    
    97   50   51 1    
    98   50   52 1    
    99   50  106 1    
   100   51  107 1    
   101   51  108 1    
   102   51  109 1    
   103   52   53 2    
   104   52   54 am   BACKBONE|DICT|INTERRES
   105   54   55 1    
   106   54  110 1    
   107   55   56 1    
   108   55   59 1    
   109   55  111 1    
   110   56   57 am   BACKBONE|DICT|INTERRES
   111   56   58 2    
   112   57  112 1    
   113   57  113 1    
   114   59   60 1    
   115   59  114 1    
   116   59  115 1    
   117   60   61 1    
   118   61  116 1    
   119   61  117 1    
@<TRIPOS>SUBSTRUCTURE
     1 UNK         1 GROUP             0       ****    0 ROOT    
