@<TRIPOS>MOLECULE
3R8
117   119    1
SMALL
USER_CHARGES


@<TRIPOS>ATOM
      1 CA         15.1610  -23.2796  -47.6374 C.3       0 UNK        -0.2013 
      2 C          16.1066  -24.4710  -47.6041 C.2       0 UNK         0.4866 
      3 O          16.7238  -24.7914  -48.6206 O.2       0 UNK        -0.5176 
      4 N          16.2202  -25.1346  -46.4465 N.am      1 UNK        -0.4884 
      5 CA         17.1358  -26.2566  -46.2155 C.3       1 UNK         0.0853 
      6 C6         16.7276  -27.0564  -44.9523 C.3       10 UNK        -0.0849 
      7 S7         17.2465  -28.8033  -45.0347 S.3       10 UNK        -0.2776 
      8 C8         16.3189  -29.5153  -43.6346 C.3       10 UNK         0.0316 
      9 C9         17.1933  -29.6812  -42.3989 C.ar      10 UNK        -0.0863 
     10 C10        17.5791  -30.9574  -41.9777 C.ar      10 UNK        -0.1009 
     11 C11        18.3820  -31.1244  -40.8444 C.ar      10 UNK        -0.0712 
     12 C12        18.8029  -29.9956  -40.1316 C.ar      10 UNK        -0.0894 
     13 C13        18.4275  -28.7129  -40.5448 C.ar      10 UNK        -0.0745 
     14 C14        17.6078  -28.5652  -41.6674 C.ar      10 UNK        -0.0972 
     15 C15        18.8858  -27.4892  -39.7635 C.3       10 UNK         0.0209 
     16 S16        20.5589  -26.9493  -40.2402 S.3       10 UNK        -0.2568 
     17 C17        20.2699  -26.1155  -41.8368 C.3       10 UNK        -0.0983 
     18 CA         21.4603  -26.2834  -42.8133 C.3       3 UNK         0.0876 
     19 N          21.0442  -26.0443  -44.1908 N.am      3 UNK        -0.4424 
     20 C          21.6321  -26.5607  -45.2740 C.2       2 UNK         0.4918 
     21 O          22.6181  -27.2973  -45.2268 O.2       2 UNK        -0.4875 
     22 CA         20.9827  -26.2205  -46.6324 C.3       2 UNK         0.0481 
     23 CB         21.6551  -26.9552  -47.8072 C.3       2 UNK        -0.1831 
     24 N          19.5447  -26.5156  -46.6506 N.am      2 UNK        -0.4498 
     25 C          18.5884  -25.7481  -46.1113 C.2       1 UNK         0.5027 
     26 O          18.8228  -24.6964  -45.5083 O.2       1 UNK        -0.4969 
     27 C          22.6370  -25.3620  -42.4434 C.2       3 UNK         0.5005 
     28 O          22.5437  -24.1455  -42.6267 O.2       3 UNK        -0.5279 
     29 N          23.6960  -25.9558  -41.8881 N.am      4 UNK        -0.4463 
     30 CA         24.8199  -25.2829  -41.2454 C.3       4 UNK         0.0283 
     31 CB         26.0414  -25.3083  -42.1822 C.3       4 UNK        -0.1875 
     32 C          25.0538  -26.0262  -39.9256 C.2       4 UNK         0.4949 
     33 O          25.9810  -26.8290  -39.8250 O.2       4 UNK        -0.5039 
     34 N          24.1127  -25.8442  -38.9868 N.am      5 UNK        -0.4663 
     35 CA         23.8900  -26.5967  -37.7367 C.3       5 UNK         0.0242 
     36 CB         25.1429  -26.6364  -36.8392 C.3       5 UNK        -0.1982 
     37 C          23.3064  -28.0068  -37.9629 C.2       5 UNK         0.5017 
     38 O          22.5001  -28.4622  -37.1514 O.2       5 UNK        -0.5012 
     39 N          23.6779  -28.6413  -39.0767 N.am      6 UNK        -0.4439 
     40 CA         23.0529  -29.8149  -39.6718 C.3       6 UNK         0.0297 
     41 CB         23.8694  -31.0655  -39.3081 C.3       6 UNK        -0.2006 
     42 C          23.0173  -29.5946  -41.1912 C.2       6 UNK         0.4892 
     43 O          23.7966  -28.7852  -41.7038 O.2       6 UNK        -0.5089 
     44 N          22.1192  -30.3058  -41.8784 N.am      7 UNK        -0.4243 
     45 CA         22.0107  -30.3332  -43.3378 C.3       7 UNK         0.0196 
     46 CB         20.5748  -29.9478  -43.7498 C.3       7 UNK        -0.2007 
     47 C          22.4441  -31.7294  -43.8125 C.2       7 UNK         0.5020 
     48 O          23.5559  -32.1537  -43.4936 O.2       7 UNK        -0.5147 
     49 N          21.5595  -32.4528  -44.5160 N.am      8 UNK        -0.4734 
     50 CA         21.7537  -33.8465  -44.9477 C.3       8 UNK         0.0238 
     51 CB         20.5761  -34.2649  -45.8430 C.3       8 UNK        -0.1912 
     52 C          21.9266  -34.8433  -43.7829 C.2       8 UNK         0.5038 
     53 O          22.5158  -35.9073  -43.9753 O.2       8 UNK        -0.5046 
     54 N          21.4345  -34.4605  -42.5991 N.am      9 UNK        -0.4200 
     55 CA         21.6950  -35.0895  -41.2981 C.3       9 UNK         0.0839 
     56 C          23.1716  -35.0033  -40.8050 C.2       9 UNK         0.5513 
     57 N          24.0379  -34.1877  -41.3959 N.am      9 UNK        -0.7519 
     58 O          23.5401  -35.7064  -39.8677 O.2       9 UNK        -0.4960 
     59 C59        20.7011  -34.5752  -40.2187 C.3       10 UNK        -0.0876 
     60 S60        20.5518  -32.7492  -40.1781 S.3       10 UNK        -0.2414 
     61 C61        18.7560  -32.5290  -40.3854 C.3       10 UNK         0.0169 
     62 H62        15.7091  -22.3732  -47.8931 H         1 UNK         0.0903 
     63 H63        14.3883  -23.4345  -48.3900 H         1 UNK         0.0903 
     64 H64        14.6712  -23.1199  -46.6769 H         1 UNK         0.0903 
     65 H65        15.7183  -24.8021  -45.6352 H         1 UNK         0.3096 
     66 H66        17.0606  -26.9130  -47.0861 H         1 UNK         0.1121 
     67 H67        17.1104  -26.5932  -44.0412 H         1 UNK         0.0849 
     68 H68        15.6406  -27.0535  -44.8545 H         1 UNK         0.0849 
     69 H69        15.4518  -28.9001  -43.3908 H         1 UNK         0.0865 
     70 H70        15.9186  -30.4811  -43.9467 H         1 UNK         0.0865 
     71 H71        17.2506  -31.8246  -42.5342 H         1 UNK         0.1346 
     72 H72        19.4221  -30.1153  -39.2530 H         1 UNK         0.1412 
     73 H73        17.2969  -27.5782  -41.9765 H         1 UNK         0.1426 
     74 H74        18.8872  -27.7209  -38.6973 H         1 UNK         0.0716 
     75 H75        18.1855  -26.6624  -39.8923 H         1 UNK         0.0716 
     76 H76        19.3753  -26.5434  -42.2871 H         1 UNK         0.0695 
     77 H77        20.0384  -25.0635  -41.6588 H         1 UNK         0.0695 
     78 H78        21.7995  -27.3185  -42.7549 H         1 UNK         0.0983 
     79 H79        20.2666  -25.4085  -44.3335 H         1 UNK         0.3095 
     80 H80        21.1217  -25.1494  -46.7930 H         1 UNK         0.0454 
     81 H81        21.5683  -28.0381  -47.7096 H         1 UNK         0.0851 
     82 H82        21.2142  -26.6667  -48.7614 H         1 UNK         0.0851 
     83 H83        22.7183  -26.7171  -47.8606 H         1 UNK         0.0851 
     84 H84        19.2759  -27.3927  -47.0741 H         1 UNK         0.2976 
     85 H85        23.6992  -26.9737  -41.8066 H         1 UNK         0.3116 
     86 H86        24.5737  -24.2449  -41.0113 H         1 UNK         0.0646 
     87 H87        26.3168  -26.3263  -42.4615 H         1 UNK         0.0847 
     88 H88        26.9091  -24.8528  -41.7037 H         1 UNK         0.0847 
     89 H89        25.8457  -24.7529  -43.0995 H         1 UNK         0.0847 
     90 H90        23.3717  -25.1938  -39.2134 H         1 UNK         0.3040 
     91 H91        23.1241  -26.0374  -37.1964 H         1 UNK         0.1015 
     92 H92        25.5437  -25.6369  -36.6711 H         1 UNK         0.0786 
     93 H93        25.9361  -27.2510  -37.2653 H         1 UNK         0.0786 
     94 H94        24.9028  -27.0585  -35.8625 H         1 UNK         0.0786 
     95 H95        24.3599  -28.1853  -39.6746 H         1 UNK         0.3172 
     96 H96        22.0280  -29.9184  -39.3089 H         1 UNK         0.0595 
     97 H97        24.8935  -30.9997  -39.6778 H         1 UNK         0.0839 
     98 H98        23.4257  -31.9630  -39.7379 H         1 UNK         0.0839 
     99 H99        23.9104  -31.2111  -38.2286 H         1 UNK         0.0839 
    100 H100       21.5350  -30.9610  -41.3747 H         1 UNK         0.2998 
    101 H101       22.6987  -29.6168  -43.7908 H         1 UNK         0.0822 
    102 H102       20.2711  -29.0008  -43.3052 H         1 UNK         0.0787 
    103 H103       20.4917  -29.8303  -44.8309 H         1 UNK         0.0787 
    104 H104       19.8451  -30.6921  -43.4360 H         1 UNK         0.0787 
    105 H105       20.6711  -32.0285  -44.7428 H         1 UNK         0.3055 
    106 H106       22.6708  -33.8861  -45.5397 H         1 UNK         0.1106 
    107 H107       19.6265  -34.2242  -45.3079 H         1 UNK         0.0828 
    108 H108       20.4963  -33.6236  -46.7210 H         1 UNK         0.0828 
    109 H109       20.7033  -35.2870  -46.2027 H         1 UNK         0.0828 
    110 H110       20.9667  -33.5684  -42.5534 H         1 UNK         0.2931 
    111 H111       21.4998  -36.1556  -41.4282 H         1 UNK         0.0412 
    112 H112       23.7618  -33.5844  -42.1637 H         1 UNK         0.3472 
    113 H113       24.9878  -34.1623  -41.0619 H         1 UNK         0.3472 
    114 H114       20.9790  -34.9271  -39.2232 H         1 UNK         0.0970 
    115 H115       19.7209  -35.0147  -40.4069 H         1 UNK         0.0970 
    116 H116       18.3887  -33.2637  -41.1035 H         1 UNK         0.0612 
    117 H117       18.2586  -32.7426  -39.4386 H         1 UNK         0.0612 
@<TRIPOS>BOND
     1    1    2 1    
     2    1   62 1    
     3    1   63 1    
     4    1   64 1    
     5    2    3 2    
     6    2    4 am   BACKBONE|DICT|INTERRES
     7    4    5 1    
     8    4   65 1    
     9    5    6 1    
    10    5   25 1    
    11    5   66 1    
    12    6    7 1    
    13    6   67 1    
    14    6   68 1    
    15    7    8 1    
    16    8    9 1    
    17    8   69 1    
    18    8   70 1    
    19    9   10 ar   
    20    9   14 ar   
    21   10   11 ar   
    22   10   71 1    
    23   11   12 ar   
    24   11   61 1    
    25   12   13 ar   
    26   12   72 1    
    27   13   14 ar   
    28   13   15 1    
    29   14   73 1    
    30   15   16 1    
    31   15   74 1    
    32   15   75 1    
    33   16   17 1    
    34   17   18 1    
    35   17   76 1    
    36   17   77 1    
    37   18   19 1    
    38   18   27 1    
    39   18   78 1    
    40   19   20 am   BACKBONE|DICT|INTERRES
    41   19   79 1    
    42   20   21 2    
    43   20   22 1    
    44   22   23 1    
    45   22   24 1    
    46   22   80 1    
    47   23   81 1    
    48   23   82 1    
    49   23   83 1    
    50   24   25 am   BACKBONE|DICT|INTERRES
    51   24   84 1    
    52   25   26 2    
    53   27   28 2    
    54   27   29 am   BACKBONE|DICT|INTERRES
    55   29   30 1    
    56   29   85 1    
    57   30   31 1    
    58   30   32 1    
    59   30   86 1    
    60   31   87 1    
    61   31   88 1    
    62   31   89 1    
    63   32   33 2    
    64   32   34 am   BACKBONE|DICT|INTERRES
    65   34   35 1    
    66   34   90 1    
    67   35   36 1    
    68   35   37 1    
    69   35   91 1    
    70   36   92 1    
    71   36   93 1    
    72   36   94 1    
    73   37   38 2    
    74   37   39 am   BACKBONE|DICT|INTERRES
    75   39   40 1    
    76   39   95 1    
    77   40   41 1    
    78   40   42 1    
    79   40   96 1    
    80   41   97 1    
    81   41   98 1    
    82   41   99 1    
    83   42   43 2    
    84   42   44 am   BACKBONE|DICT|INTERRES
    85   44   45 1    
    86   44  100 1    
    87   45   46 1    
    88   45   47 1    
    89   45  101 1    
    90   46  102 1    
    91   46  103 1    
    92   46  104 1    
    93   47   48 2    
    94   47   49 am   BACKBONE|DICT|INTERRES
    95   49   50 1    
    96   49  105 1    
    97   50   51 1    
    98   50   52 1    
    99   50  106 1    
   100   51  107 1    
   101   51  108 1    
   102   51  109 1    
   103   52   53 2    
   104   52   54 am   BACKBONE|DICT|INTERRES
   105   54   55 1    
   106   54  110 1    
   107   55   56 1    
   108   55   59 1    
   109   55  111 1    
   110   56   57 am   BACKBONE|DICT|INTERRES
   111   56   58 2    
   112   57  112 1    
   113   57  113 1    
   114   59   60 1    
   115   59  114 1    
   116   59  115 1    
   117   60   61 1    
   118   61  116 1    
   119   61  117 1    
@<TRIPOS>SUBSTRUCTURE
     1 UNK         1 GROUP             0       ****    0 ROOT    
