@<TRIPOS>MOLECULE
3R8
117   119    1
SMALL
USER_CHARGES


@<TRIPOS>ATOM
      1 CA         15.1443  -22.5825  -41.5323 C.3       0 UNK        -0.2013 
      2 C          15.8699  -23.1405  -42.7479 C.2       0 UNK         0.4866 
      3 O          16.5510  -22.3914  -43.4486 O.2       0 UNK        -0.5176 
      4 N          15.7151  -24.4446  -43.0053 N.am      1 UNK        -0.4884 
      5 CA         16.3749  -25.1871  -44.0817 C.3       1 UNK         0.0853 
      6 C6         15.4436  -26.2778  -44.6815 C.3       10 UNK        -0.0849 
      7 S7         14.6566  -27.3894  -43.4550 S.3       10 UNK        -0.2776 
      8 C8         14.4098  -28.9125  -44.4240 C.3       10 UNK         0.0316 
      9 C9         15.7320  -29.5912  -44.7468 C.ar      10 UNK        -0.0863 
     10 C10        16.4124  -30.3082  -43.7599 C.ar      10 UNK        -0.1009 
     11 C11        17.6494  -30.8982  -44.0362 C.ar      10 UNK        -0.0712 
     12 C12        18.1993  -30.7788  -45.3168 C.ar      10 UNK        -0.0894 
     13 C13        17.5219  -30.0686  -46.3128 C.ar      10 UNK        -0.0745 
     14 C14        16.2856  -29.4862  -46.0247 C.ar      10 UNK        -0.0972 
     15 C15        18.1209  -29.9058  -47.6995 C.3       10 UNK         0.0209 
     16 S16        19.0714  -28.3577  -47.8267 S.3       10 UNK        -0.2568 
     17 C17        20.6902  -28.8616  -47.1559 C.3       10 UNK        -0.0983 
     18 CA         21.1355  -28.0437  -45.9176 C.3       3 UNK         0.0876 
     19 N          20.1605  -28.1256  -44.8160 N.am      3 UNK        -0.4424 
     20 C          20.2723  -27.5663  -43.6015 C.2       2 UNK         0.4918 
     21 O          21.2834  -26.9884  -43.1983 O.2       2 UNK        -0.4875 
     22 CA         19.0296  -27.6709  -42.6964 C.3       2 UNK         0.0481 
     23 CB         19.3023  -27.1984  -41.2534 C.3       2 UNK        -0.1831 
     24 N          17.8572  -26.9824  -43.2540 N.am      2 UNK        -0.4498 
     25 C          17.7531  -25.6869  -43.5917 C.2       1 UNK         0.5027 
     26 O          18.6830  -24.8826  -43.5135 O.2       1 UNK        -0.4969 
     27 C          22.5841  -28.4410  -45.5527 C.2       3 UNK         0.5005 
     28 O          23.5166  -27.9372  -46.1813 O.2       3 UNK        -0.5279 
     29 N          22.7544  -29.3338  -44.5658 N.am      4 UNK        -0.4463 
     30 CA         24.0568  -29.7857  -44.0676 C.3       4 UNK         0.0283 
     31 CB         23.8580  -30.9976  -43.1456 C.3       4 UNK        -0.1875 
     32 C          24.8694  -28.6875  -43.3556 C.2       4 UNK         0.4949 
     33 O          26.0983  -28.7653  -43.3646 O.2       4 UNK        -0.5039 
     34 N          24.1822  -27.6942  -42.7681 N.am      5 UNK        -0.4663 
     35 CA         24.6802  -26.4897  -42.0844 C.3       5 UNK         0.0242 
     36 CB         25.4135  -25.5602  -43.0710 C.3       5 UNK        -0.1982 
     37 C          25.5315  -26.7451  -40.8257 C.2       5 UNK         0.5017 
     38 O          25.2027  -26.2288  -39.7576 O.2       5 UNK        -0.5012 
     39 N          26.6074  -27.5265  -40.9707 N.am      6 UNK        -0.4439 
     40 CA         27.5301  -27.9292  -39.9051 C.3       6 UNK         0.0297 
     41 CB         28.8776  -28.3130  -40.5384 C.3       6 UNK        -0.2006 
     42 C          26.9908  -29.0869  -39.0436 C.2       6 UNK         0.4892 
     43 O          27.5576  -29.3652  -37.9861 O.2       6 UNK        -0.5089 
     44 N          25.9188  -29.7364  -39.5063 N.am      7 UNK        -0.4243 
     45 CA         25.1736  -30.7841  -38.8199 C.3       7 UNK         0.0196 
     46 CB         25.5663  -32.1520  -39.4058 C.3       7 UNK        -0.2007 
     47 C          23.6793  -30.5068  -39.0182 C.2       7 UNK         0.5020 
     48 O          23.3156  -29.6893  -39.8680 O.2       7 UNK        -0.5147 
     49 N          22.8369  -31.2027  -38.2439 N.am      8 UNK        -0.4734 
     50 CA         21.3750  -31.0896  -38.3095 C.3       8 UNK         0.0238 
     51 CB         20.7426  -31.8704  -37.1459 C.3       8 UNK        -0.1912 
     52 C          20.7876  -31.5508  -39.6543 C.2       8 UNK         0.5038 
     53 O          19.8390  -30.9323  -40.1343 O.2       8 UNK        -0.5046 
     54 N          21.3753  -32.6044  -40.2342 N.am      9 UNK        -0.4200 
     55 CA         21.0885  -33.1427  -41.5675 C.3       9 UNK         0.0839 
     56 C          22.2097  -34.1167  -42.0164 C.2       9 UNK         0.5513 
     57 N          22.1352  -34.6269  -43.2370 N.am      9 UNK        -0.7519 
     58 O          23.1475  -34.4075  -41.2755 O.2       9 UNK        -0.4960 
     59 C59        19.6550  -33.7462  -41.6974 C.3       10 UNK        -0.0876 
     60 S60        18.8544  -33.3104  -43.2795 S.3       10 UNK        -0.2414 
     61 C61        18.4232  -31.5805  -42.9196 C.3       10 UNK         0.0169 
     62 H62        14.5681  -23.3482  -41.0131 H         1 UNK         0.0903 
     63 H63        15.8617  -22.1624  -40.8278 H         1 UNK         0.0903 
     64 H64        14.4597  -21.7904  -41.8347 H         1 UNK         0.0903 
     65 H65        15.1449  -25.0103  -42.3911 H         1 UNK         0.3096 
     66 H66        16.5949  -24.4937  -44.8973 H         1 UNK         0.1121 
     67 H67        15.9853  -26.8527  -45.4324 H         1 UNK         0.0849 
     68 H68        14.6367  -25.7883  -45.2292 H         1 UNK         0.0849 
     69 H69        13.7810  -29.5979  -43.8537 H         1 UNK         0.0865 
     70 H70        13.8562  -28.6795  -45.3352 H         1 UNK         0.0865 
     71 H71        15.9897  -30.3781  -42.7666 H         1 UNK         0.1346 
     72 H72        19.1603  -31.2266  -45.5296 H         1 UNK         0.1412 
     73 H73        15.7651  -28.9310  -46.7937 H         1 UNK         0.1426 
     74 H74        17.3222  -29.8854  -48.4427 H         1 UNK         0.0716 
     75 H75        18.7468  -30.7615  -47.9576 H         1 UNK         0.0716 
     76 H76        21.4122  -28.7440  -47.9669 H         1 UNK         0.0695 
     77 H77        20.6805  -29.9273  -46.9221 H         1 UNK         0.0695 
     78 H78        21.1747  -26.9912  -46.2062 H         1 UNK         0.0983 
     79 H79        19.2794  -28.5580  -45.0583 H         1 UNK         0.3095 
     80 H80        18.7691  -28.7257  -42.6396 H         1 UNK         0.0454 
     81 H81        19.5802  -26.1447  -41.2146 H         1 UNK         0.0851 
     82 H82        20.1191  -27.7677  -40.8070 H         1 UNK         0.0851 
     83 H83        18.4275  -27.3390  -40.6189 H         1 UNK         0.0851 
     84 H84        17.0241  -27.5494  -43.3589 H         1 UNK         0.2976 
     85 H85        21.9338  -29.6951  -44.1031 H         1 UNK         0.3116 
     86 H86        24.6454  -30.1122  -44.9277 H         1 UNK         0.0646 
     87 H87        23.2203  -30.7589  -42.2944 H         1 UNK         0.0847 
     88 H88        24.8119  -31.3499  -42.7510 H         1 UNK         0.0847 
     89 H89        23.4072  -31.8309  -43.6841 H         1 UNK         0.0847 
     90 H90        23.1698  -27.7328  -42.8393 H         1 UNK         0.3040 
     91 H91        23.7862  -25.9616  -41.7472 H         1 UNK         0.1015 
     92 H92        26.3122  -26.0222  -43.4806 H         1 UNK         0.0786 
     93 H93        25.7184  -24.6342  -42.5815 H         1 UNK         0.0786 
     94 H94        24.7689  -25.2877  -43.9069 H         1 UNK         0.0786 
     95 H95        26.7392  -27.9510  -41.8883 H         1 UNK         0.3172 
     96 H96        27.6932  -27.0762  -39.2432 H         1 UNK         0.0595 
     97 H97        28.7770  -29.1610  -41.2171 H         1 UNK         0.0839 
     98 H98        29.6048  -28.5910  -39.7742 H         1 UNK         0.0839 
     99 H99        29.3031  -27.4815  -41.1006 H         1 UNK         0.0839 
    100 H100       25.4601  -29.3747  -40.3323 H         1 UNK         0.2998 
    101 H101       25.3886  -30.7621  -37.7493 H         1 UNK         0.0822 
    102 H102       26.6365  -32.3328  -39.3030 H         1 UNK         0.0787 
    103 H103       25.0515  -32.9654  -38.8933 H         1 UNK         0.0787 
    104 H104       25.3158  -32.2256  -40.4648 H         1 UNK         0.0787 
    105 H105       23.2152  -31.8518  -37.5682 H         1 UNK         0.3055 
    106 H106       21.1180  -30.0341  -38.1926 H         1 UNK         0.1106 
    107 H107       20.9858  -32.9328  -37.1896 H         1 UNK         0.0828 
    108 H108       19.6551  -31.7845  -37.1652 H         1 UNK         0.0828 
    109 H109       21.0777  -31.4875  -36.1818 H         1 UNK         0.0828 
    110 H110       22.1682  -33.0384  -39.7799 H         1 UNK         0.2931 
    111 H111       21.1842  -32.2854  -42.2348 H         1 UNK         0.0412 
    112 H112       22.8534  -35.2610  -43.5507 H         1 UNK         0.3472 
    113 H113       21.3602  -34.4029  -43.8426 H         1 UNK         0.3472 
    114 H114       19.0034  -33.4027  -40.8931 H         1 UNK         0.0970 
    115 H115       19.6689  -34.8331  -41.5960 H         1 UNK         0.0970 
    116 H116       17.8588  -31.5451  -41.9864 H         1 UNK         0.0612 
    117 H117       19.3388  -31.0150  -42.7499 H         1 UNK         0.0612 
@<TRIPOS>BOND
     1    1    2 1    
     2    1   62 1    
     3    1   63 1    
     4    1   64 1    
     5    2    3 2    
     6    2    4 am   BACKBONE|DICT|INTERRES
     7    4    5 1    
     8    4   65 1    
     9    5    6 1    
    10    5   25 1    
    11    5   66 1    
    12    6    7 1    
    13    6   67 1    
    14    6   68 1    
    15    7    8 1    
    16    8    9 1    
    17    8   69 1    
    18    8   70 1    
    19    9   10 ar   
    20    9   14 ar   
    21   10   11 ar   
    22   10   71 1    
    23   11   12 ar   
    24   11   61 1    
    25   12   13 ar   
    26   12   72 1    
    27   13   14 ar   
    28   13   15 1    
    29   14   73 1    
    30   15   16 1    
    31   15   74 1    
    32   15   75 1    
    33   16   17 1    
    34   17   18 1    
    35   17   76 1    
    36   17   77 1    
    37   18   19 1    
    38   18   27 1    
    39   18   78 1    
    40   19   20 am   BACKBONE|DICT|INTERRES
    41   19   79 1    
    42   20   21 2    
    43   20   22 1    
    44   22   23 1    
    45   22   24 1    
    46   22   80 1    
    47   23   81 1    
    48   23   82 1    
    49   23   83 1    
    50   24   25 am   BACKBONE|DICT|INTERRES
    51   24   84 1    
    52   25   26 2    
    53   27   28 2    
    54   27   29 am   BACKBONE|DICT|INTERRES
    55   29   30 1    
    56   29   85 1    
    57   30   31 1    
    58   30   32 1    
    59   30   86 1    
    60   31   87 1    
    61   31   88 1    
    62   31   89 1    
    63   32   33 2    
    64   32   34 am   BACKBONE|DICT|INTERRES
    65   34   35 1    
    66   34   90 1    
    67   35   36 1    
    68   35   37 1    
    69   35   91 1    
    70   36   92 1    
    71   36   93 1    
    72   36   94 1    
    73   37   38 2    
    74   37   39 am   BACKBONE|DICT|INTERRES
    75   39   40 1    
    76   39   95 1    
    77   40   41 1    
    78   40   42 1    
    79   40   96 1    
    80   41   97 1    
    81   41   98 1    
    82   41   99 1    
    83   42   43 2    
    84   42   44 am   BACKBONE|DICT|INTERRES
    85   44   45 1    
    86   44  100 1    
    87   45   46 1    
    88   45   47 1    
    89   45  101 1    
    90   46  102 1    
    91   46  103 1    
    92   46  104 1    
    93   47   48 2    
    94   47   49 am   BACKBONE|DICT|INTERRES
    95   49   50 1    
    96   49  105 1    
    97   50   51 1    
    98   50   52 1    
    99   50  106 1    
   100   51  107 1    
   101   51  108 1    
   102   51  109 1    
   103   52   53 2    
   104   52   54 am   BACKBONE|DICT|INTERRES
   105   54   55 1    
   106   54  110 1    
   107   55   56 1    
   108   55   59 1    
   109   55  111 1    
   110   56   57 am   BACKBONE|DICT|INTERRES
   111   56   58 2    
   112   57  112 1    
   113   57  113 1    
   114   59   60 1    
   115   59  114 1    
   116   59  115 1    
   117   60   61 1    
   118   61  116 1    
   119   61  117 1    
@<TRIPOS>SUBSTRUCTURE
     1 UNK         1 GROUP             0       ****    0 ROOT    
