@<TRIPOS>MOLECULE
3R8
117   119    1
SMALL
USER_CHARGES


@<TRIPOS>ATOM
      1 CA         18.5051  -22.7566  -44.3444 C.3       0 UNK        -0.2013 
      2 C          18.6522  -24.2060  -44.7812 C.2       0 UNK         0.4866 
      3 O          18.8019  -25.0862  -43.9318 O.2       0 UNK        -0.5176 
      4 N          18.6134  -24.4596  -46.0994 N.am      1 UNK        -0.4884 
      5 CA         18.7599  -25.7800  -46.7279 C.3       1 UNK         0.0853 
      6 C6         17.5367  -26.6921  -46.4167 C.3       10 UNK        -0.0849 
      7 S7         17.4148  -28.1438  -47.5148 S.3       10 UNK        -0.2776 
      8 C8         16.0455  -29.0638  -46.7414 C.3       10 UNK         0.0316 
      9 C9         16.4172  -29.6061  -45.3673 C.ar      10 UNK        -0.0863 
     10 C10        17.2379  -30.7313  -45.2539 C.ar      10 UNK        -0.1009 
     11 C11        17.5830  -31.2428  -43.9960 C.ar      10 UNK        -0.0712 
     12 C12        17.0682  -30.6296  -42.8489 C.ar      10 UNK        -0.0894 
     13 C13        16.2445  -29.5035  -42.9473 C.ar      10 UNK        -0.0745 
     14 C14        15.9248  -28.9965  -44.2103 C.ar      10 UNK        -0.0972 
     15 C15        15.6797  -28.8368  -41.6965 C.3       10 UNK         0.0209 
     16 S16        16.9611  -28.3079  -40.5099 S.3       10 UNK        -0.2568 
     17 C17        18.0747  -27.3106  -41.5564 C.3       10 UNK        -0.0983 
     18 CA         19.4521  -28.0046  -41.7288 C.3       3 UNK         0.0876 
     19 N          20.0089  -27.7565  -43.0567 N.am      3 UNK        -0.4424 
     20 C          20.8541  -28.5866  -43.6847 C.2       2 UNK         0.4918 
     21 O          21.2558  -29.6387  -43.1910 O.2       2 UNK        -0.4875 
     22 CA         21.2862  -28.1931  -45.1084 C.3       2 UNK         0.0481 
     23 CB         21.8123  -29.3799  -45.9340 C.3       2 UNK        -0.1831 
     24 N          20.1518  -27.5843  -45.7950 N.am      2 UNK        -0.4498 
     25 C          20.1426  -26.3785  -46.3691 C.2       1 UNK         0.5027 
     26 O          21.1585  -25.7108  -46.5778 O.2       1 UNK        -0.4969 
     27 C          20.4321  -27.5738  -40.6192 C.2       3 UNK         0.5005 
     28 O          21.2364  -26.6596  -40.8242 O.2       3 UNK        -0.5279 
     29 N          20.2877  -28.2050  -39.4434 N.am      4 UNK        -0.4463 
     30 CA         20.9109  -27.8677  -38.1581 C.3       4 UNK         0.0283 
     31 CB         20.1773  -26.6606  -37.5309 C.3       4 UNK        -0.1875 
     32 C          22.4386  -27.6854  -38.2442 C.2       4 UNK         0.4949 
     33 O          23.1574  -28.6764  -38.3658 O.2       4 UNK        -0.5039 
     34 N          22.9045  -26.4303  -38.1832 N.am      5 UNK        -0.4663 
     35 CA         24.3155  -26.0451  -38.2496 C.3       5 UNK         0.0242 
     36 CB         24.4437  -24.5464  -37.9331 C.3       5 UNK        -0.1982 
     37 C          24.9931  -26.3701  -39.5919 C.2       5 UNK         0.5017 
     38 O          26.2083  -26.5683  -39.6100 O.2       5 UNK        -0.5012 
     39 N          24.2179  -26.4590  -40.6827 N.am      6 UNK        -0.4439 
     40 CA         24.6973  -26.8129  -42.0223 C.3       6 UNK         0.0297 
     41 CB         23.8124  -26.1191  -43.0729 C.3       6 UNK        -0.2006 
     42 C          24.7909  -28.3414  -42.2140 C.2       6 UNK         0.4892 
     43 O          24.3032  -28.8700  -43.2118 O.2       6 UNK        -0.5089 
     44 N          25.4181  -29.0181  -41.2411 N.am      7 UNK        -0.4243 
     45 CA         25.7068  -30.4566  -41.1463 C.3       7 UNK         0.0196 
     46 CB         26.5508  -30.9345  -42.3471 C.3       7 UNK        -0.2007 
     47 C          24.4906  -31.3758  -40.9151 C.2       7 UNK         0.5020 
     48 O          24.6946  -32.5806  -40.7606 O.2       7 UNK        -0.5147 
     49 N          23.2654  -30.8291  -40.8879 N.am      8 UNK        -0.4734 
     50 CA         21.9852  -31.5256  -40.6694 C.3       8 UNK         0.0238 
     51 CB         21.8559  -31.9597  -39.1942 C.3       8 UNK        -0.1912 
     52 C          21.7415  -32.6906  -41.6539 C.2       8 UNK         0.5038 
     53 O          21.1904  -33.7218  -41.2633 O.2       8 UNK        -0.5046 
     54 N          22.1895  -32.5083  -42.9028 N.am      9 UNK        -0.4200 
     55 CA         22.2234  -33.5087  -43.9831 C.3       9 UNK         0.0839 
     56 C          23.1732  -34.7199  -43.7240 C.2       9 UNK         0.5513 
     57 N          24.0735  -34.6744  -42.7487 N.am      9 UNK        -0.7519 
     58 O          23.1215  -35.7130  -44.4455 O.2       9 UNK        -0.4960 
     59 C59        20.8083  -33.9500  -44.4583 C.3       10 UNK        -0.0876 
     60 S60        19.8218  -32.5482  -45.0786 S.3       10 UNK        -0.2414 
     61 C61        18.4790  -32.4712  -43.8486 C.3       10 UNK         0.0169 
     62 H62        19.3883  -22.4423  -43.7888 H         1 UNK         0.0903 
     63 H63        18.3801  -22.0841  -45.1929 H         1 UNK         0.0903 
     64 H64        17.6373  -22.6484  -43.6943 H         1 UNK         0.0903 
     65 H65        18.5251  -23.6859  -46.7442 H         1 UNK         0.3096 
     66 H66        18.7815  -25.6034  -47.8048 H         1 UNK         0.1121 
     67 H67        16.6166  -26.1197  -46.5456 H         1 UNK         0.0849 
     68 H68        17.5386  -27.0064  -45.3721 H         1 UNK         0.0849 
     69 H69        15.1659  -28.4209  -46.6811 H         1 UNK         0.0865 
     70 H70        15.7675  -29.8941  -47.3924 H         1 UNK         0.0865 
     71 H71        17.6096  -31.2047  -46.1521 H         1 UNK         0.1346 
     72 H72        17.3112  -31.0249  -41.8721 H         1 UNK         0.1412 
     73 H73        15.2856  -28.1280  -44.2943 H         1 UNK         0.1426 
     74 H74        15.0059  -29.5348  -41.1981 H         1 UNK         0.0716 
     75 H75        15.0772  -27.9664  -41.9609 H         1 UNK         0.0716 
     76 H76        18.1694  -26.3086  -41.1321 H         1 UNK         0.0695 
     77 H77        17.5955  -27.1599  -42.5248 H         1 UNK         0.0695 
     78 H78        19.3096  -29.0846  -41.6468 H         1 UNK         0.0983 
     79 H79        19.7481  -26.8753  -43.4880 H         1 UNK         0.3095 
     80 H80        22.0979  -27.4735  -45.0002 H         1 UNK         0.0454 
     81 H81        22.1688  -29.0527  -46.9103 H         1 UNK         0.0851 
     82 H82        21.0382  -30.1287  -46.0954 H         1 UNK         0.0851 
     83 H83        22.6480  -29.8690  -45.4314 H         1 UNK         0.0851 
     84 H84        19.2681  -28.0675  -45.6939 H         1 UNK         0.2976 
     85 H85        19.5927  -28.9371  -39.3938 H         1 UNK         0.3116 
     86 H86        20.7483  -28.7245  -37.5024 H         1 UNK         0.0646 
     87 H87        20.2079  -25.7784  -38.1716 H         1 UNK         0.0847 
     88 H88        20.6092  -26.3906  -36.5660 H         1 UNK         0.0847 
     89 H89        19.1275  -26.8944  -37.3527 H         1 UNK         0.0847 
     90 H90        22.2332  -25.6792  -38.1148 H         1 UNK         0.3040 
     91 H91        24.8478  -26.6060  -37.4781 H         1 UNK         0.1015 
     92 H92        23.9100  -23.9331  -38.6604 H         1 UNK         0.0786 
     93 H93        25.4885  -24.2324  -37.9465 H         1 UNK         0.0786 
     94 H94        24.0510  -24.3138  -36.9430 H         1 UNK         0.0786 
     95 H95        23.2107  -26.3608  -40.5763 H         1 UNK         0.3172 
     96 H96        25.7091  -26.4233  -42.1526 H         1 UNK         0.0595 
     97 H97        22.7706  -26.4221  -42.9833 H         1 UNK         0.0839 
     98 H98        24.1416  -26.3549  -44.0857 H         1 UNK         0.0839 
     99 H99        23.8510  -25.0350  -42.9668 H         1 UNK         0.0839 
    100 H100       25.7652  -28.4611  -40.4679 H         1 UNK         0.2998 
    101 H101       26.3242  -30.5655  -40.2534 H         1 UNK         0.0822 
    102 H102       27.4341  -30.3112  -42.4859 H         1 UNK         0.0787 
    103 H103       26.8987  -31.9576  -42.1986 H         1 UNK         0.0787 
    104 H104       25.9800  -30.9220  -43.2761 H         1 UNK         0.0787 
    105 H105       23.1991  -29.8371  -41.0696 H         1 UNK         0.3055 
    106 H106       21.1969  -30.7989  -40.8648 H         1 UNK         0.1106 
    107 H107       20.8671  -32.3724  -38.9907 H         1 UNK         0.0828 
    108 H108       22.5883  -32.7245  -38.9339 H         1 UNK         0.0828 
    109 H109       21.9972  -31.1172  -38.5181 H         1 UNK         0.0828 
    110 H110       22.5691  -31.5985  -43.1301 H         1 UNK         0.2931 
    111 H111       22.6878  -32.9874  -44.8209 H         1 UNK         0.0412 
    112 H112       24.1436  -33.8735  -42.1284 H         1 UNK         0.3472 
    113 H113       24.6836  -35.4640  -42.6102 H         1 UNK         0.3472 
    114 H114       20.2741  -34.4692  -43.6613 H         1 UNK         0.0970 
    115 H115       20.8857  -34.6655  -45.2786 H         1 UNK         0.0970 
    116 H116       18.9263  -32.4854  -42.8536 H         1 UNK         0.0612 
    117 H117       17.8657  -33.3689  -43.9330 H         1 UNK         0.0612 
@<TRIPOS>BOND
     1    1    2 1    
     2    1   62 1    
     3    1   63 1    
     4    1   64 1    
     5    2    3 2    
     6    2    4 am   BACKBONE|DICT|INTERRES
     7    4    5 1    
     8    4   65 1    
     9    5    6 1    
    10    5   25 1    
    11    5   66 1    
    12    6    7 1    
    13    6   67 1    
    14    6   68 1    
    15    7    8 1    
    16    8    9 1    
    17    8   69 1    
    18    8   70 1    
    19    9   10 ar   
    20    9   14 ar   
    21   10   11 ar   
    22   10   71 1    
    23   11   12 ar   
    24   11   61 1    
    25   12   13 ar   
    26   12   72 1    
    27   13   14 ar   
    28   13   15 1    
    29   14   73 1    
    30   15   16 1    
    31   15   74 1    
    32   15   75 1    
    33   16   17 1    
    34   17   18 1    
    35   17   76 1    
    36   17   77 1    
    37   18   19 1    
    38   18   27 1    
    39   18   78 1    
    40   19   20 am   BACKBONE|DICT|INTERRES
    41   19   79 1    
    42   20   21 2    
    43   20   22 1    
    44   22   23 1    
    45   22   24 1    
    46   22   80 1    
    47   23   81 1    
    48   23   82 1    
    49   23   83 1    
    50   24   25 am   BACKBONE|DICT|INTERRES
    51   24   84 1    
    52   25   26 2    
    53   27   28 2    
    54   27   29 am   BACKBONE|DICT|INTERRES
    55   29   30 1    
    56   29   85 1    
    57   30   31 1    
    58   30   32 1    
    59   30   86 1    
    60   31   87 1    
    61   31   88 1    
    62   31   89 1    
    63   32   33 2    
    64   32   34 am   BACKBONE|DICT|INTERRES
    65   34   35 1    
    66   34   90 1    
    67   35   36 1    
    68   35   37 1    
    69   35   91 1    
    70   36   92 1    
    71   36   93 1    
    72   36   94 1    
    73   37   38 2    
    74   37   39 am   BACKBONE|DICT|INTERRES
    75   39   40 1    
    76   39   95 1    
    77   40   41 1    
    78   40   42 1    
    79   40   96 1    
    80   41   97 1    
    81   41   98 1    
    82   41   99 1    
    83   42   43 2    
    84   42   44 am   BACKBONE|DICT|INTERRES
    85   44   45 1    
    86   44  100 1    
    87   45   46 1    
    88   45   47 1    
    89   45  101 1    
    90   46  102 1    
    91   46  103 1    
    92   46  104 1    
    93   47   48 2    
    94   47   49 am   BACKBONE|DICT|INTERRES
    95   49   50 1    
    96   49  105 1    
    97   50   51 1    
    98   50   52 1    
    99   50  106 1    
   100   51  107 1    
   101   51  108 1    
   102   51  109 1    
   103   52   53 2    
   104   52   54 am   BACKBONE|DICT|INTERRES
   105   54   55 1    
   106   54  110 1    
   107   55   56 1    
   108   55   59 1    
   109   55  111 1    
   110   56   57 am   BACKBONE|DICT|INTERRES
   111   56   58 2    
   112   57  112 1    
   113   57  113 1    
   114   59   60 1    
   115   59  114 1    
   116   59  115 1    
   117   60   61 1    
   118   61  116 1    
   119   61  117 1    
@<TRIPOS>SUBSTRUCTURE
     1 UNK         1 GROUP             0       ****    0 ROOT    
