@<TRIPOS>MOLECULE
3R8
117   119    1
SMALL
USER_CHARGES


@<TRIPOS>ATOM
      1 CA         16.8014  -23.0732  -47.8638 C.3       0 UNK        -0.2013 
      2 C          18.1733  -23.7299  -47.8413 C.2       0 UNK         0.4866 
      3 O          19.1673  -23.0851  -48.1748 O.2       0 UNK        -0.5176 
      4 N          18.2382  -25.0064  -47.4419 N.am      1 UNK        -0.4884 
      5 CA         19.4686  -25.8081  -47.3692 C.3       1 UNK         0.0853 
      6 C6         19.1791  -27.3072  -47.6484 C.3       10 UNK        -0.0849 
      7 S7         18.0936  -28.0950  -46.4064 S.3       10 UNK        -0.2776 
      8 C8         19.2505  -29.2827  -45.6312 C.3       10 UNK         0.0316 
      9 C9         18.8431  -29.7931  -44.2470 C.ar      10 UNK        -0.0863 
     10 C10        19.8045  -30.4542  -43.4746 C.ar      10 UNK        -0.1009 
     11 C11        19.5100  -30.8933  -42.1798 C.ar      10 UNK        -0.0712 
     12 C12        18.2378  -30.6639  -41.6501 C.ar      10 UNK        -0.0894 
     13 C13        17.2678  -30.0002  -42.4057 C.ar      10 UNK        -0.0745 
     14 C14        17.5636  -29.5966  -43.7103 C.ar      10 UNK        -0.0972 
     15 C15        15.9279  -29.6398  -41.7857 C.3       10 UNK         0.0209 
     16 S16        16.1105  -28.2958  -40.5663 S.3       10 UNK        -0.2568 
     17 C17        16.7929  -26.9203  -41.5669 C.3       10 UNK        -0.0983 
     18 CA         18.3443  -26.8711  -41.6508 C.3       3 UNK         0.0876 
     19 N          18.8012  -25.7944  -42.5352 N.am      3 UNK        -0.4424 
     20 C          20.0769  -25.5568  -42.8751 C.2       2 UNK         0.4918 
     21 O          21.0336  -26.2264  -42.4794 O.2       2 UNK        -0.4875 
     22 CA         20.2946  -24.3790  -43.8408 C.3       2 UNK         0.0481 
     23 CB         21.7581  -23.8880  -43.8828 C.3       2 UNK        -0.1831 
     24 N          19.7874  -24.6962  -45.1815 N.am      2 UNK        -0.4498 
     25 C          20.2674  -25.5934  -46.0600 C.2       1 UNK         0.5027 
     26 O          21.2933  -26.2497  -45.8817 O.2       1 UNK        -0.4969 
     27 C          19.0283  -26.8156  -40.2692 C.2       3 UNK         0.5005 
     28 O          19.1777  -25.7315  -39.6991 O.2       3 UNK        -0.5279 
     29 N          19.4740  -27.9892  -39.7966 N.am      4 UNK        -0.4463 
     30 CA         20.2730  -28.2643  -38.5943 C.3       4 UNK         0.0283 
     31 CB         19.5632  -27.7906  -37.3115 C.3       4 UNK        -0.1875 
     32 C          21.7163  -27.7319  -38.6640 C.2       4 UNK         0.4949 
     33 O          22.6341  -28.4470  -38.2645 O.2       4 UNK        -0.5039 
     34 N          21.8983  -26.5107  -39.1813 N.am      5 UNK        -0.4663 
     35 CA         23.1850  -25.8304  -39.3397 C.3       5 UNK         0.0242 
     36 CB         22.9378  -24.3726  -39.7573 C.3       5 UNK        -0.1982 
     37 C          24.1347  -26.5272  -40.3283 C.2       5 UNK         0.5017 
     38 O          25.3367  -26.5770  -40.0648 O.2       5 UNK        -0.5012 
     39 N          23.5885  -27.0561  -41.4343 N.am      6 UNK        -0.4439 
     40 CA         24.3347  -27.8090  -42.4480 C.3       6 UNK         0.0297 
     41 CB         23.4401  -28.0543  -43.6737 C.3       6 UNK        -0.2006 
     42 C          24.8960  -29.1423  -41.9259 C.2       6 UNK         0.4892 
     43 O          26.0013  -29.5206  -42.3131 O.2       6 UNK        -0.5089 
     44 N          24.1144  -29.8257  -41.0737 N.am      7 UNK        -0.4243 
     45 CA         24.4158  -31.0889  -40.3794 C.3       7 UNK         0.0196 
     46 CB         25.5523  -30.8746  -39.3582 C.3       7 UNK        -0.2007 
     47 C          24.6864  -32.3086  -41.2906 C.2       7 UNK         0.5020 
     48 O          25.1173  -33.3482  -40.7916 O.2       7 UNK        -0.5147 
     49 N          24.4211  -32.1844  -42.5981 N.am      8 UNK        -0.4734 
     50 CA         24.6580  -33.2231  -43.6078 C.3       8 UNK         0.0238 
     51 CB         24.7970  -32.5461  -44.9820 C.3       8 UNK        -0.1912 
     52 C          23.5641  -34.3057  -43.6529 C.2       8 UNK         0.5038 
     53 O          23.7760  -35.3492  -44.2724 O.2       8 UNK        -0.5046 
     54 N          22.4134  -34.0262  -43.0318 N.am      9 UNK        -0.4200 
     55 CA         21.2499  -34.9134  -42.9320 C.3       9 UNK         0.0839 
     56 C          21.4984  -36.1775  -42.0604 C.2       9 UNK         0.5513 
     57 N          20.7206  -37.2313  -42.2702 N.am      9 UNK        -0.7519 
     58 O          22.3625  -36.2082  -41.1864 O.2       9 UNK        -0.4960 
     59 C59        19.9880  -34.1223  -42.4957 C.3       10 UNK        -0.0876 
     60 S60        20.1372  -33.2829  -40.8754 S.3       10 UNK        -0.2414 
     61 C61        20.5802  -31.5773  -41.3406 C.3       10 UNK         0.0169 
     62 H62        16.0168  -23.7548  -47.5354 H         1 UNK         0.0903 
     63 H63        16.7905  -22.2024  -47.2086 H         1 UNK         0.0903 
     64 H64        16.5612  -22.7422  -48.8738 H         1 UNK         0.0903 
     65 H65        17.3937  -25.4936  -47.1724 H         1 UNK         0.3096 
     66 H66        20.1351  -25.4687  -48.1657 H         1 UNK         0.1121 
     67 H67        18.6975  -27.4074  -48.6223 H         1 UNK         0.0849 
     68 H68        20.1135  -27.8648  -47.7366 H         1 UNK         0.0849 
     69 H69        19.3824  -30.1340  -46.3002 H         1 UNK         0.0865 
     70 H70        20.2267  -28.8031  -45.5396 H         1 UNK         0.0865 
     71 H71        20.7942  -30.6130  -43.8811 H         1 UNK         0.1346 
     72 H72        18.0098  -30.9789  -40.6404 H         1 UNK         0.1412 
     73 H73        16.8026  -29.0809  -44.2775 H         1 UNK         0.1426 
     74 H74        15.5074  -30.5167  -41.2913 H         1 UNK         0.0716 
     75 H75        15.2082  -29.3407  -42.5493 H         1 UNK         0.0716 
     76 H76        16.3681  -26.9826  -42.5701 H         1 UNK         0.0695 
     77 H77        16.4169  -25.9877  -41.1425 H         1 UNK         0.0695 
     78 H78        18.6956  -27.7800  -42.1338 H         1 UNK         0.0983 
     79 H79        18.0850  -25.1816  -42.8942 H         1 UNK         0.3095 
     80 H80        19.6895  -23.5488  -43.4732 H         1 UNK         0.0454 
     81 H81        22.4547  -24.6801  -44.1578 H         1 UNK         0.0851 
     82 H82        21.8822  -23.0720  -44.5944 H         1 UNK         0.0851 
     83 H83        22.0681  -23.5145  -42.9073 H         1 UNK         0.0851 
     84 H84        18.9370  -24.2220  -45.4503 H         1 UNK         0.2976 
     85 H85        19.2880  -28.8028  -40.3671 H         1 UNK         0.3116 
     86 H86        20.3458  -29.3516  -38.5375 H         1 UNK         0.0646 
     87 H87        19.4828  -26.7044  -37.2628 H         1 UNK         0.0847 
     88 H88        18.5576  -28.2048  -37.2388 H         1 UNK         0.0847 
     89 H89        20.1115  -28.1118  -36.4251 H         1 UNK         0.0847 
     90 H90        21.0655  -26.0044  -39.4710 H         1 UNK         0.3040 
     91 H91        23.6785  -25.8279  -38.3652 H         1 UNK         0.1015 
     92 H92        23.8788  -23.8383  -39.8965 H         1 UNK         0.0786 
     93 H93        22.3689  -23.8347  -38.9987 H         1 UNK         0.0786 
     94 H94        22.3842  -24.3135  -40.6941 H         1 UNK         0.0786 
     95 H95        22.6023  -26.8856  -41.6217 H         1 UNK         0.3172 
     96 H96        25.1810  -27.1954  -42.7636 H         1 UNK         0.0595 
     97 H97        22.5299  -28.5960  -43.4140 H         1 UNK         0.0839 
     98 H98        23.9632  -28.6330  -44.4362 H         1 UNK         0.0839 
     99 H99        23.1430  -27.1130  -44.1351 H         1 UNK         0.0839 
    100 H100       23.2403  -29.3907  -40.8144 H         1 UNK         0.2998 
    101 H101       23.5158  -31.3383  -39.8152 H         1 UNK         0.0822 
    102 H102       25.6933  -31.7567  -38.7323 H         1 UNK         0.0787 
    103 H103       25.3312  -30.0399  -38.6924 H         1 UNK         0.0787 
    104 H104       26.5036  -30.6686  -39.8497 H         1 UNK         0.0787 
    105 H105       24.1101  -31.2848  -42.9335 H         1 UNK         0.3055 
    106 H106       25.5995  -33.7272  -43.3771 H         1 UNK         0.1106 
    107 H107       25.6104  -31.8199  -44.9861 H         1 UNK         0.0828 
    108 H108       25.0175  -33.2796  -45.7590 H         1 UNK         0.0828 
    109 H109       23.8821  -32.0286  -45.2735 H         1 UNK         0.0828 
    110 H110       22.3600  -33.1715  -42.5026 H         1 UNK         0.2931 
    111 H111       21.0607  -35.2749  -43.9450 H         1 UNK         0.0412 
    112 H112       20.8560  -38.0589  -41.7102 H         1 UNK         0.3472 
    113 H113       20.0060  -37.2208  -42.9817 H         1 UNK         0.3472 
    114 H114       19.7355  -33.3911  -43.2640 H         1 UNK         0.0970 
    115 H115       19.1238  -34.7874  -42.4498 H         1 UNK         0.0970 
    116 H116       20.7374  -31.0004  -40.4287 H         1 UNK         0.0612 
    117 H117       21.5367  -31.5825  -41.8625 H         1 UNK         0.0612 
@<TRIPOS>BOND
     1    1    2 1    
     2    1   62 1    
     3    1   63 1    
     4    1   64 1    
     5    2    3 2    
     6    2    4 am   BACKBONE|DICT|INTERRES
     7    4    5 1    
     8    4   65 1    
     9    5    6 1    
    10    5   25 1    
    11    5   66 1    
    12    6    7 1    
    13    6   67 1    
    14    6   68 1    
    15    7    8 1    
    16    8    9 1    
    17    8   69 1    
    18    8   70 1    
    19    9   10 ar   
    20    9   14 ar   
    21   10   11 ar   
    22   10   71 1    
    23   11   12 ar   
    24   11   61 1    
    25   12   13 ar   
    26   12   72 1    
    27   13   14 ar   
    28   13   15 1    
    29   14   73 1    
    30   15   16 1    
    31   15   74 1    
    32   15   75 1    
    33   16   17 1    
    34   17   18 1    
    35   17   76 1    
    36   17   77 1    
    37   18   19 1    
    38   18   27 1    
    39   18   78 1    
    40   19   20 am   BACKBONE|DICT|INTERRES
    41   19   79 1    
    42   20   21 2    
    43   20   22 1    
    44   22   23 1    
    45   22   24 1    
    46   22   80 1    
    47   23   81 1    
    48   23   82 1    
    49   23   83 1    
    50   24   25 am   BACKBONE|DICT|INTERRES
    51   24   84 1    
    52   25   26 2    
    53   27   28 2    
    54   27   29 am   BACKBONE|DICT|INTERRES
    55   29   30 1    
    56   29   85 1    
    57   30   31 1    
    58   30   32 1    
    59   30   86 1    
    60   31   87 1    
    61   31   88 1    
    62   31   89 1    
    63   32   33 2    
    64   32   34 am   BACKBONE|DICT|INTERRES
    65   34   35 1    
    66   34   90 1    
    67   35   36 1    
    68   35   37 1    
    69   35   91 1    
    70   36   92 1    
    71   36   93 1    
    72   36   94 1    
    73   37   38 2    
    74   37   39 am   BACKBONE|DICT|INTERRES
    75   39   40 1    
    76   39   95 1    
    77   40   41 1    
    78   40   42 1    
    79   40   96 1    
    80   41   97 1    
    81   41   98 1    
    82   41   99 1    
    83   42   43 2    
    84   42   44 am   BACKBONE|DICT|INTERRES
    85   44   45 1    
    86   44  100 1    
    87   45   46 1    
    88   45   47 1    
    89   45  101 1    
    90   46  102 1    
    91   46  103 1    
    92   46  104 1    
    93   47   48 2    
    94   47   49 am   BACKBONE|DICT|INTERRES
    95   49   50 1    
    96   49  105 1    
    97   50   51 1    
    98   50   52 1    
    99   50  106 1    
   100   51  107 1    
   101   51  108 1    
   102   51  109 1    
   103   52   53 2    
   104   52   54 am   BACKBONE|DICT|INTERRES
   105   54   55 1    
   106   54  110 1    
   107   55   56 1    
   108   55   59 1    
   109   55  111 1    
   110   56   57 am   BACKBONE|DICT|INTERRES
   111   56   58 2    
   112   57  112 1    
   113   57  113 1    
   114   59   60 1    
   115   59  114 1    
   116   59  115 1    
   117   60   61 1    
   118   61  116 1    
   119   61  117 1    
@<TRIPOS>SUBSTRUCTURE
     1 UNK         1 GROUP             0       ****    0 ROOT    
