@<TRIPOS>MOLECULE
3R8
117   119    1
SMALL
USER_CHARGES


@<TRIPOS>ATOM
      1 CA         20.4623  -24.1973  -49.6681 C.3       0 UNK        -0.2013 
      2 C          20.8998  -24.6596  -48.2866 C.2       0 UNK         0.4866 
      3 O          21.6538  -23.9550  -47.6148 O.2       0 UNK        -0.5176 
      4 N          20.4421  -25.8431  -47.8623 N.am      1 UNK        -0.4884 
      5 CA         20.6961  -26.4164  -46.5378 C.3       1 UNK         0.0853 
      6 C6         20.4700  -27.9543  -46.5013 C.3       10 UNK        -0.0849 
      7 S7         19.0019  -28.5806  -47.3947 S.3       10 UNK        -0.2776 
      8 C8         17.6571  -28.4261  -46.1648 C.3       10 UNK         0.0316 
      9 C9         17.7327  -29.3201  -44.9234 C.ar      10 UNK        -0.0863 
     10 C10        18.6685  -30.3526  -44.7622 C.ar      10 UNK        -0.1009 
     11 C11        18.6720  -31.1359  -43.6025 C.ar      10 UNK        -0.0712 
     12 C12        17.7267  -30.8967  -42.6029 C.ar      10 UNK        -0.0894 
     13 C13        16.7883  -29.8749  -42.7485 C.ar      10 UNK        -0.0745 
     14 C14        16.7963  -29.0962  -43.9088 C.ar      10 UNK        -0.0972 
     15 C15        15.7592  -29.6137  -41.6596 C.3       10 UNK         0.0209 
     16 S16        16.0498  -28.0208  -40.8320 S.3       10 UNK        -0.2568 
     17 C17        17.4493  -28.3938  -39.7160 C.3       10 UNK        -0.0983 
     18 CA         18.8640  -28.1950  -40.3342 C.3       3 UNK         0.0876 
     19 N          18.9352  -27.0167  -41.2020 N.am      3 UNK        -0.4424 
     20 C          19.9862  -26.6255  -41.9304 C.2       2 UNK         0.4918 
     21 O          21.1193  -27.1160  -41.8664 O.2       2 UNK        -0.4875 
     22 CA         19.7216  -25.5061  -42.9394 C.3       2 UNK         0.0481 
     23 CB         20.3089  -24.1680  -42.4631 C.3       2 UNK        -0.1831 
     24 N          20.3556  -25.9222  -44.1817 N.am      2 UNK        -0.4498 
     25 C          19.9079  -25.6993  -45.4204 C.2       1 UNK         0.5027 
     26 O          18.9175  -25.0123  -45.6839 O.2       1 UNK        -0.4969 
     27 C          19.9379  -28.1491  -39.2298 C.2       3 UNK         0.5005 
     28 O          19.8439  -27.3052  -38.3361 O.2       3 UNK        -0.5279 
     29 N          20.9658  -29.0018  -39.3429 N.am      4 UNK        -0.4463 
     30 CA         22.1665  -29.1244  -38.5006 C.3       4 UNK         0.0283 
     31 CB         21.8080  -29.4422  -37.0365 C.3       4 UNK        -0.1875 
     32 C          23.1385  -27.9323  -38.5922 C.2       4 UNK         0.4949 
     33 O          24.3469  -28.1377  -38.4807 O.2       4 UNK        -0.5039 
     34 N          22.6107  -26.7212  -38.8050 N.am      5 UNK        -0.4663 
     35 CA         23.3533  -25.4710  -38.9597 C.3       5 UNK         0.0242 
     36 CB         22.3633  -24.2958  -38.9548 C.3       5 UNK        -0.1982 
     37 C          24.2384  -25.4289  -40.2164 C.2       5 UNK         0.5017 
     38 O          25.3057  -24.8162  -40.1656 O.2       5 UNK        -0.5012 
     39 N          23.7940  -26.0742  -41.3042 N.am      6 UNK        -0.4439 
     40 CA         24.5485  -26.1943  -42.5545 C.3       6 UNK         0.0297 
     41 CB         23.9777  -25.2359  -43.6115 C.3       6 UNK        -0.2006 
     42 C          24.6058  -27.6358  -43.0819 C.2       6 UNK         0.4892 
     43 O          25.5903  -27.9718  -43.7413 O.2       6 UNK        -0.5089 
     44 N          23.5958  -28.4696  -42.7932 N.am      7 UNK        -0.4243 
     45 CA         23.5839  -29.8846  -43.1621 C.3       7 UNK         0.0196 
     46 CB         22.8929  -30.0706  -44.5228 C.3       7 UNK        -0.2007 
     47 C          22.8620  -30.6832  -42.0765 C.2       7 UNK         0.5020 
     48 O          21.7701  -30.2919  -41.6620 O.2       7 UNK        -0.5147 
     49 N          23.4643  -31.8008  -41.6564 N.am      8 UNK        -0.4734 
     50 CA         22.9040  -32.7121  -40.6527 C.3       8 UNK         0.0238 
     51 CB         24.0496  -33.2617  -39.7862 C.3       8 UNK        -0.1912 
     52 C          22.0907  -33.8668  -41.2654 C.2       8 UNK         0.5038 
     53 O          21.3743  -34.5379  -40.5224 O.2       8 UNK        -0.5046 
     54 N          22.2123  -34.0851  -42.5855 N.am      9 UNK        -0.4200 
     55 CA         21.5609  -35.1664  -43.3541 C.3       9 UNK         0.0839 
     56 C          22.0480  -36.6023  -42.9769 C.2       9 UNK         0.5513 
     57 N          23.1989  -36.7620  -42.3338 N.am      9 UNK        -0.7519 
     58 O          21.3978  -37.5928  -43.3014 O.2       9 UNK        -0.4960 
     59 C59        20.0051  -35.0392  -43.3918 C.3       10 UNK        -0.0876 
     60 S60        19.3988  -33.6771  -44.4460 S.3       10 UNK        -0.2414 
     61 C61        19.7129  -32.2238  -43.4047 C.3       10 UNK         0.0169 
     62 H62        19.8094  -24.9227  -50.1531 H         1 UNK         0.0903 
     63 H63        19.9238  -23.2530  -49.5937 H         1 UNK         0.0903 
     64 H64        21.3323  -24.0448  -50.3062 H         1 UNK         0.0903 
     65 H65        19.8053  -26.3751  -48.4394 H         1 UNK         0.3096 
     66 H66        21.7521  -26.2423  -46.3163 H         1 UNK         0.1121 
     67 H67        20.4510  -28.3266  -45.4775 H         1 UNK         0.0849 
     68 H68        21.3338  -28.4385  -46.9591 H         1 UNK         0.0849 
     69 H69        17.5829  -27.3840  -45.8542 H         1 UNK         0.0865 
     70 H70        16.7205  -28.6491  -46.6775 H         1 UNK         0.0865 
     71 H71        19.3985  -30.5605  -45.5311 H         1 UNK         0.1346 
     72 H72        17.7274  -31.5012  -41.7061 H         1 UNK         0.1412 
     73 H73        16.0648  -28.3065  -44.0183 H         1 UNK         0.1426 
     74 H74        15.7469  -30.4169  -40.9212 H         1 UNK         0.0716 
     75 H75        14.7655  -29.5981  -42.1094 H         1 UNK         0.0716 
     76 H76        17.3453  -29.4116  -39.3361 H         1 UNK         0.0695 
     77 H77        17.3134  -27.7417  -38.8508 H         1 UNK         0.0695 
     78 H78        19.0733  -29.0553  -40.9726 H         1 UNK         0.0983 
     79 H79        18.0547  -26.5384  -41.3256 H         1 UNK         0.3095 
     80 H80        18.6448  -25.4008  -43.0897 H         1 UNK         0.0454 
     81 H81        21.3811  -24.2372  -42.2776 H         1 UNK         0.0851 
     82 H82        19.8355  -23.8432  -41.5359 H         1 UNK         0.0851 
     83 H83        20.1489  -23.3821  -43.2012 H         1 UNK         0.0851 
     84 H84        21.1345  -26.5514  -44.0407 H         1 UNK         0.2976 
     85 H85        21.0205  -29.5531  -40.2004 H         1 UNK         0.3116 
     86 H86        22.7076  -29.9853  -38.8954 H         1 UNK         0.0646 
     87 H87        21.2935  -28.6127  -36.5509 H         1 UNK         0.0847 
     88 H88        22.7071  -29.6473  -36.4542 H         1 UNK         0.0847 
     89 H89        21.1688  -30.3222  -36.9665 H         1 UNK         0.0847 
     90 H90        21.5968  -26.6633  -38.8108 H         1 UNK         0.3040 
     91 H91        24.0129  -25.3684  -38.0953 H         1 UNK         0.1015 
     92 H92        21.6373  -24.3777  -39.7632 H         1 UNK         0.0786 
     93 H93        22.8828  -23.3442  -39.0750 H         1 UNK         0.0786 
     94 H94        21.8123  -24.2470  -38.0153 H         1 UNK         0.0786 
     95 H95        22.8853  -26.5251  -41.2636 H         1 UNK         0.3172 
     96 H96        25.5877  -25.9060  -42.3821 H         1 UNK         0.0595 
     97 H97        22.9427  -25.4668  -43.8480 H         1 UNK         0.0839 
     98 H98        24.5458  -25.2956  -44.5408 H         1 UNK         0.0839 
     99 H99        24.0212  -24.2011  -43.2718 H         1 UNK         0.0839 
    100 H100       22.7866  -28.1529  -42.2680 H         1 UNK         0.2998 
    101 H101       24.6098  -30.2527  -43.2356 H         1 UNK         0.0822 
    102 H102       23.3657  -29.4681  -45.2984 H         1 UNK         0.0787 
    103 H103       22.9389  -31.1111  -44.8462 H         1 UNK         0.0787 
    104 H104       21.8411  -29.7932  -44.4714 H         1 UNK         0.0787 
    105 H105       24.3680  -32.0452  -42.0377 H         1 UNK         0.3055 
    106 H106       22.2227  -32.1640  -39.9978 H         1 UNK         0.1106 
    107 H107       23.6691  -33.9264  -39.0092 H         1 UNK         0.0828 
    108 H108       24.7701  -33.8292  -40.3760 H         1 UNK         0.0828 
    109 H109       24.5863  -32.4565  -39.2841 H         1 UNK         0.0828 
    110 H110       22.8326  -33.4888  -43.1113 H         1 UNK         0.2931 
    111 H111       21.9142  -35.0387  -44.3779 H         1 UNK         0.0412 
    112 H112       23.5107  -37.6933  -42.1062 H         1 UNK         0.3472 
    113 H113       23.7573  -35.9654  -42.0748 H         1 UNK         0.3472 
    114 H114       19.5550  -35.9421  -43.8072 H         1 UNK         0.0970 
    115 H115       19.5850  -34.9480  -42.3897 H         1 UNK         0.0970 
    116 H116       19.7468  -32.5162  -42.3550 H         1 UNK         0.0612 
    117 H117       20.6980  -31.8327  -43.6509 H         1 UNK         0.0612 
@<TRIPOS>BOND
     1    1    2 1    
     2    1   62 1    
     3    1   63 1    
     4    1   64 1    
     5    2    3 2    
     6    2    4 am   BACKBONE|DICT|INTERRES
     7    4    5 1    
     8    4   65 1    
     9    5    6 1    
    10    5   25 1    
    11    5   66 1    
    12    6    7 1    
    13    6   67 1    
    14    6   68 1    
    15    7    8 1    
    16    8    9 1    
    17    8   69 1    
    18    8   70 1    
    19    9   10 ar   
    20    9   14 ar   
    21   10   11 ar   
    22   10   71 1    
    23   11   12 ar   
    24   11   61 1    
    25   12   13 ar   
    26   12   72 1    
    27   13   14 ar   
    28   13   15 1    
    29   14   73 1    
    30   15   16 1    
    31   15   74 1    
    32   15   75 1    
    33   16   17 1    
    34   17   18 1    
    35   17   76 1    
    36   17   77 1    
    37   18   19 1    
    38   18   27 1    
    39   18   78 1    
    40   19   20 am   BACKBONE|DICT|INTERRES
    41   19   79 1    
    42   20   21 2    
    43   20   22 1    
    44   22   23 1    
    45   22   24 1    
    46   22   80 1    
    47   23   81 1    
    48   23   82 1    
    49   23   83 1    
    50   24   25 am   BACKBONE|DICT|INTERRES
    51   24   84 1    
    52   25   26 2    
    53   27   28 2    
    54   27   29 am   BACKBONE|DICT|INTERRES
    55   29   30 1    
    56   29   85 1    
    57   30   31 1    
    58   30   32 1    
    59   30   86 1    
    60   31   87 1    
    61   31   88 1    
    62   31   89 1    
    63   32   33 2    
    64   32   34 am   BACKBONE|DICT|INTERRES
    65   34   35 1    
    66   34   90 1    
    67   35   36 1    
    68   35   37 1    
    69   35   91 1    
    70   36   92 1    
    71   36   93 1    
    72   36   94 1    
    73   37   38 2    
    74   37   39 am   BACKBONE|DICT|INTERRES
    75   39   40 1    
    76   39   95 1    
    77   40   41 1    
    78   40   42 1    
    79   40   96 1    
    80   41   97 1    
    81   41   98 1    
    82   41   99 1    
    83   42   43 2    
    84   42   44 am   BACKBONE|DICT|INTERRES
    85   44   45 1    
    86   44  100 1    
    87   45   46 1    
    88   45   47 1    
    89   45  101 1    
    90   46  102 1    
    91   46  103 1    
    92   46  104 1    
    93   47   48 2    
    94   47   49 am   BACKBONE|DICT|INTERRES
    95   49   50 1    
    96   49  105 1    
    97   50   51 1    
    98   50   52 1    
    99   50  106 1    
   100   51  107 1    
   101   51  108 1    
   102   51  109 1    
   103   52   53 2    
   104   52   54 am   BACKBONE|DICT|INTERRES
   105   54   55 1    
   106   54  110 1    
   107   55   56 1    
   108   55   59 1    
   109   55  111 1    
   110   56   57 am   BACKBONE|DICT|INTERRES
   111   56   58 2    
   112   57  112 1    
   113   57  113 1    
   114   59   60 1    
   115   59  114 1    
   116   59  115 1    
   117   60   61 1    
   118   61  116 1    
   119   61  117 1    
@<TRIPOS>SUBSTRUCTURE
     1 UNK         1 GROUP             0       ****    0 ROOT    
