@<TRIPOS>MOLECULE
3R8
117   119    1
SMALL
USER_CHARGES


@<TRIPOS>ATOM
      1 CA         15.8824  -28.5359  -39.9717 C.3       0 UNK        -0.2013 
      2 C          16.8611  -28.2939  -41.1102 C.2       0 UNK         0.4866 
      3 O          16.4730  -28.3644  -42.2768 O.2       0 UNK        -0.5176 
      4 N          18.1275  -27.9993  -40.7852 N.am      1 UNK        -0.4884 
      5 CA         19.2202  -27.7728  -41.7381 C.3       1 UNK         0.0853 
      6 C6         20.5970  -28.0987  -41.0994 C.3       10 UNK        -0.0849 
      7 S7         21.9382  -28.3584  -42.3143 S.3       10 UNK        -0.2776 
      8 C8         21.8362  -30.1507  -42.6268 C.3       10 UNK         0.0316 
      9 C9         20.7206  -30.4464  -43.6147 C.ar      10 UNK        -0.0863 
     10 C10        19.4886  -30.9406  -43.1787 C.ar      10 UNK        -0.1009 
     11 C11        18.4267  -31.1122  -44.0782 C.ar      10 UNK        -0.0712 
     12 C12        18.6204  -30.7697  -45.4223 C.ar      10 UNK        -0.0894 
     13 C13        19.8521  -30.2818  -45.8712 C.ar      10 UNK        -0.0745 
     14 C14        20.9067  -30.1563  -44.9662 C.ar      10 UNK        -0.0972 
     15 C15        20.0415  -29.8757  -47.3272 C.3       10 UNK         0.0209 
     16 S16        19.5711  -28.1365  -47.6255 S.3       10 UNK        -0.2568 
     17 C17        21.0031  -27.2221  -46.9500 C.3       10 UNK        -0.0983 
     18 CA         20.6583  -25.8026  -46.4287 C.3       3 UNK         0.0876 
     19 N          19.5238  -25.8171  -45.5012 N.am      3 UNK        -0.4424 
     20 C          18.8511  -24.7380  -45.0771 C.2       2 UNK         0.4918 
     21 O          19.0498  -23.5974  -45.4952 O.2       2 UNK        -0.4875 
     22 CA         17.8009  -24.9655  -43.9729 C.3       2 UNK         0.0481 
     23 CB         16.3938  -25.0604  -44.5826 C.3       2 UNK        -0.1831 
     24 N          18.0544  -26.1602  -43.1603 N.am      2 UNK        -0.4498 
     25 C          19.1324  -26.3789  -42.3941 C.2       1 UNK         0.5027 
     26 O          20.0275  -25.5488  -42.2303 O.2       1 UNK        -0.4969 
     27 C          21.9208  -25.1591  -45.8058 C.2       3 UNK         0.5005 
     28 O          22.7950  -24.7214  -46.5550 O.2       3 UNK        -0.5279 
     29 N          22.0064  -25.1376  -44.4622 N.am      4 UNK        -0.4463 
     30 CA         23.1191  -24.6453  -43.6376 C.3       4 UNK         0.0283 
     31 CB         23.2806  -23.1181  -43.7884 C.3       4 UNK        -0.1875 
     32 C          24.4392  -25.4127  -43.8585 C.2       4 UNK         0.4949 
     33 O          25.5186  -24.8383  -43.7076 O.2       4 UNK        -0.5039 
     34 N          24.3311  -26.6988  -44.2176 N.am      5 UNK        -0.4663 
     35 CA         25.4635  -27.5803  -44.5071 C.3       5 UNK         0.0242 
     36 CB         24.9718  -28.7611  -45.3604 C.3       5 UNK        -0.1982 
     37 C          26.1681  -28.0917  -43.2397 C.2       5 UNK         0.5017 
     38 O          27.3811  -28.3019  -43.2703 O.2       5 UNK        -0.5012 
     39 N          25.3990  -28.2921  -42.1634 N.am      6 UNK        -0.4439 
     40 CA         25.8331  -28.8147  -40.8700 C.3       6 UNK         0.0297 
     41 CB         26.2379  -30.3051  -40.9873 C.3       6 UNK        -0.2006 
     42 C          24.7017  -28.5470  -39.8639 C.2       6 UNK         0.4892 
     43 O          24.2371  -27.4091  -39.7757 O.2       6 UNK        -0.5089 
     44 N          24.2566  -29.5867  -39.1523 N.am      7 UNK        -0.4243 
     45 CA         23.0784  -29.5995  -38.2947 C.3       7 UNK         0.0196 
     46 CB         23.4554  -29.1761  -36.8645 C.3       7 UNK        -0.2007 
     47 C          22.5100  -31.0226  -38.3270 C.2       7 UNK         0.5020 
     48 O          23.2942  -31.9734  -38.3815 O.2       7 UNK        -0.5147 
     49 N          21.1737  -31.1252  -38.2777 N.am      8 UNK        -0.4734 
     50 CA         20.3368  -32.3318  -38.3941 C.3       8 UNK         0.0238 
     51 CB         20.6907  -33.3788  -37.3185 C.3       8 UNK        -0.1912 
     52 C          20.3496  -32.9571  -39.8041 C.2       8 UNK         0.5038 
     53 O          21.3816  -32.9764  -40.4758 O.2       8 UNK        -0.5046 
     54 N          19.1876  -33.4668  -40.2285 N.am      9 UNK        -0.4200 
     55 CA         18.9797  -34.0725  -41.5569 C.3       9 UNK         0.0839 
     56 C          19.4529  -35.5508  -41.6748 C.2       9 UNK         0.5513 
     57 N          19.8921  -36.2000  -40.6030 N.am      9 UNK        -0.7519 
     58 O          19.4251  -36.1192  -42.7632 O.2       9 UNK        -0.4960 
     59 C59        17.5155  -33.9108  -42.0487 C.3       10 UNK        -0.0876 
     60 S60        16.8791  -32.2007  -41.9307 S.3       10 UNK        -0.2414 
     61 C61        17.0379  -31.5967  -43.6497 C.3       10 UNK         0.0169 
     62 H62        15.0562  -27.8280  -40.0302 H         1 UNK         0.0903 
     63 H63        15.4739  -29.5439  -40.0415 H         1 UNK         0.0903 
     64 H64        16.3550  -28.4280  -38.9957 H         1 UNK         0.0903 
     65 H65        18.3720  -27.9013  -39.8099 H         1 UNK         0.3096 
     66 H66        19.0725  -28.4707  -42.5601 H         1 UNK         0.1121 
     67 H67        20.5180  -29.0026  -40.4946 H         1 UNK         0.0849 
     68 H68        20.9018  -27.3099  -40.4089 H         1 UNK         0.0849 
     69 H69        22.7866  -30.4994  -43.0331 H         1 UNK         0.0865 
     70 H70        21.6928  -30.6874  -41.6893 H         1 UNK         0.0865 
     71 H71        19.3555  -31.1434  -42.1266 H         1 UNK         0.1346 
     72 H72        17.8010  -30.8665  -46.1218 H         1 UNK         0.1412 
     73 H73        21.8657  -29.7893  -45.3019 H         1 UNK         0.1426 
     74 H74        19.4326  -30.5165  -47.9666 H         1 UNK         0.0716 
     75 H75        21.0755  -30.0334  -47.6384 H         1 UNK         0.0716 
     76 H76        21.7583  -27.1622  -47.7362 H         1 UNK         0.0695 
     77 H77        21.4531  -27.8032  -46.1482 H         1 UNK         0.0695 
     78 H78        20.3740  -25.1865  -47.2847 H         1 UNK         0.0983 
     79 H79        19.2548  -26.7225  -45.1458 H         1 UNK         0.3095 
     80 H80        17.8305  -24.1005  -43.3075 H         1 UNK         0.0454 
     81 H81        16.1619  -24.1714  -45.1708 H         1 UNK         0.0851 
     82 H82        15.6304  -25.1431  -43.8088 H         1 UNK         0.0851 
     83 H83        16.2973  -25.9231  -45.2431 H         1 UNK         0.0851 
     84 H84        17.3471  -26.8914  -43.1754 H         1 UNK         0.2976 
     85 H85        21.2195  -25.4898  -43.9271 H         1 UNK         0.3116 
     86 H86        22.8317  -24.8431  -42.6037 H         1 UNK         0.0646 
     87 H87        23.6339  -22.8443  -44.7829 H         1 UNK         0.0847 
     88 H88        22.3375  -22.6008  -43.6125 H         1 UNK         0.0847 
     89 H89        24.0015  -22.7274  -43.0692 H         1 UNK         0.0847 
     90 H90        23.4053  -27.0941  -44.2955 H         1 UNK         0.3040 
     91 H91        26.1984  -27.0201  -45.0902 H         1 UNK         0.1015 
     92 H92        25.8021  -29.4121  -45.6378 H         1 UNK         0.0786 
     93 H93        24.5076  -28.4178  -46.2853 H         1 UNK         0.0786 
     94 H94        24.2454  -29.3724  -44.8245 H         1 UNK         0.0786 
     95 H95        24.4215  -28.0291  -42.2106 H         1 UNK         0.3172 
     96 H96        26.6993  -28.2397  -40.5373 H         1 UNK         0.0595 
     97 H97        27.0658  -30.4413  -41.6827 H         1 UNK         0.0839 
     98 H98        25.4115  -30.9245  -41.3390 H         1 UNK         0.0839 
     99 H99        26.5752  -30.7031  -40.0294 H         1 UNK         0.0839 
    100 H100       24.6610  -30.5034  -39.3009 H         1 UNK         0.2998 
    101 H101       22.3340  -28.9082  -38.6952 H         1 UNK         0.0822 
    102 H102       22.5835  -29.1920  -36.2095 H         1 UNK         0.0787 
    103 H103       24.2028  -29.8426  -36.4319 H         1 UNK         0.0787 
    104 H104       23.8584  -28.1633  -36.8446 H         1 UNK         0.0787 
    105 H105       20.6506  -30.2632  -38.2116 H         1 UNK         0.3055 
    106 H106       19.3179  -31.9926  -38.1977 H         1 UNK         0.1106 
    107 H107       20.6925  -32.9395  -36.3210 H         1 UNK         0.0828 
    108 H108       19.9638  -34.1918  -37.3118 H         1 UNK         0.0828 
    109 H109       21.6700  -33.8267  -37.4897 H         1 UNK         0.0828 
    110 H110       18.3772  -33.4366  -39.6274 H         1 UNK         0.2931 
    111 H111       19.6056  -33.5301  -42.2663 H         1 UNK         0.0412 
    112 H112       20.1984  -37.1560  -40.6954 H         1 UNK         0.3472 
    113 H113       19.9285  -35.7421  -39.7069 H         1 UNK         0.3472 
    114 H114       17.4212  -34.2560  -43.0800 H         1 UNK         0.0970 
    115 H115       16.8522  -34.5485  -41.4616 H         1 UNK         0.0970 
    116 H116       16.6933  -32.3734  -44.3338 H         1 UNK         0.0612 
    117 H117       16.3459  -30.7616  -43.7663 H         1 UNK         0.0612 
@<TRIPOS>BOND
     1    1    2 1    
     2    1   62 1    
     3    1   63 1    
     4    1   64 1    
     5    2    3 2    
     6    2    4 am   BACKBONE|DICT|INTERRES
     7    4    5 1    
     8    4   65 1    
     9    5    6 1    
    10    5   25 1    
    11    5   66 1    
    12    6    7 1    
    13    6   67 1    
    14    6   68 1    
    15    7    8 1    
    16    8    9 1    
    17    8   69 1    
    18    8   70 1    
    19    9   10 ar   
    20    9   14 ar   
    21   10   11 ar   
    22   10   71 1    
    23   11   12 ar   
    24   11   61 1    
    25   12   13 ar   
    26   12   72 1    
    27   13   14 ar   
    28   13   15 1    
    29   14   73 1    
    30   15   16 1    
    31   15   74 1    
    32   15   75 1    
    33   16   17 1    
    34   17   18 1    
    35   17   76 1    
    36   17   77 1    
    37   18   19 1    
    38   18   27 1    
    39   18   78 1    
    40   19   20 am   BACKBONE|DICT|INTERRES
    41   19   79 1    
    42   20   21 2    
    43   20   22 1    
    44   22   23 1    
    45   22   24 1    
    46   22   80 1    
    47   23   81 1    
    48   23   82 1    
    49   23   83 1    
    50   24   25 am   BACKBONE|DICT|INTERRES
    51   24   84 1    
    52   25   26 2    
    53   27   28 2    
    54   27   29 am   BACKBONE|DICT|INTERRES
    55   29   30 1    
    56   29   85 1    
    57   30   31 1    
    58   30   32 1    
    59   30   86 1    
    60   31   87 1    
    61   31   88 1    
    62   31   89 1    
    63   32   33 2    
    64   32   34 am   BACKBONE|DICT|INTERRES
    65   34   35 1    
    66   34   90 1    
    67   35   36 1    
    68   35   37 1    
    69   35   91 1    
    70   36   92 1    
    71   36   93 1    
    72   36   94 1    
    73   37   38 2    
    74   37   39 am   BACKBONE|DICT|INTERRES
    75   39   40 1    
    76   39   95 1    
    77   40   41 1    
    78   40   42 1    
    79   40   96 1    
    80   41   97 1    
    81   41   98 1    
    82   41   99 1    
    83   42   43 2    
    84   42   44 am   BACKBONE|DICT|INTERRES
    85   44   45 1    
    86   44  100 1    
    87   45   46 1    
    88   45   47 1    
    89   45  101 1    
    90   46  102 1    
    91   46  103 1    
    92   46  104 1    
    93   47   48 2    
    94   47   49 am   BACKBONE|DICT|INTERRES
    95   49   50 1    
    96   49  105 1    
    97   50   51 1    
    98   50   52 1    
    99   50  106 1    
   100   51  107 1    
   101   51  108 1    
   102   51  109 1    
   103   52   53 2    
   104   52   54 am   BACKBONE|DICT|INTERRES
   105   54   55 1    
   106   54  110 1    
   107   55   56 1    
   108   55   59 1    
   109   55  111 1    
   110   56   57 am   BACKBONE|DICT|INTERRES
   111   56   58 2    
   112   57  112 1    
   113   57  113 1    
   114   59   60 1    
   115   59  114 1    
   116   59  115 1    
   117   60   61 1    
   118   61  116 1    
   119   61  117 1    
@<TRIPOS>SUBSTRUCTURE
     1 UNK         1 GROUP             0       ****    0 ROOT    
