@<TRIPOS>MOLECULE
3R8
117   119    1
SMALL
USER_CHARGES


@<TRIPOS>ATOM
      1 CA         22.3728  -29.9579  -47.8323 C.3       0 UNK        -0.2013 
      2 C          21.0883  -29.7005  -47.0604 C.2       0 UNK         0.4866 
      3 O          20.0254  -30.1641  -47.4729 O.2       0 UNK        -0.5176 
      4 N          21.1716  -28.9594  -45.9500 N.am      1 UNK        -0.4884 
      5 CA         20.0280  -28.5533  -45.1404 C.3       1 UNK         0.0853 
      6 C6         19.3499  -27.2987  -45.7496 C.3       10 UNK        -0.0849 
      7 S7         17.9216  -26.6460  -44.8265 S.3       10 UNK        -0.2776 
      8 C8         16.6544  -27.9102  -45.1600 C.3       10 UNK         0.0316 
      9 C9         16.5738  -28.9015  -44.0106 C.ar      10 UNK        -0.0863 
     10 C10        16.9295  -30.2427  -44.1809 C.ar      10 UNK        -0.1009 
     11 C11        16.8556  -31.1427  -43.1093 C.ar      10 UNK        -0.0712 
     12 C12        16.4095  -30.6780  -41.8630 C.ar      10 UNK        -0.0894 
     13 C13        16.0210  -29.3433  -41.6902 C.ar      10 UNK        -0.0745 
     14 C14        16.1057  -28.4660  -42.7708 C.ar      10 UNK        -0.0972 
     15 C15        15.4225  -28.8594  -40.3732 C.3       10 UNK         0.0209 
     16 S16        16.6581  -28.2304  -39.1900 S.3       10 UNK        -0.2568 
     17 C17        17.1819  -26.6280  -39.9098 C.3       10 UNK        -0.0983 
     18 CA         18.7238  -26.5415  -40.0256 C.3       3 UNK         0.0876 
     19 N          19.2609  -27.6550  -40.8023 N.am      3 UNK        -0.4424 
     20 C          20.4199  -28.2632  -40.5426 C.2       2 UNK         0.4918 
     21 O          21.1831  -27.9529  -39.6277 O.2       2 UNK        -0.4875 
     22 CA         20.7708  -29.4469  -41.4494 C.3       2 UNK         0.0481 
     23 CB         20.2996  -30.7494  -40.7769 C.3       2 UNK        -0.1831 
     24 N          20.2551  -29.3461  -42.8258 N.am      2 UNK        -0.4498 
     25 C          20.5359  -28.3663  -43.7022 C.2       1 UNK         0.5027 
     26 O          21.1912  -27.3607  -43.4266 O.2       1 UNK        -0.4969 
     27 C          19.2138  -25.1787  -40.5655 C.2       3 UNK         0.5005 
     28 O          18.9911  -24.1653  -39.9008 O.2       3 UNK        -0.5279 
     29 N          19.8863  -25.1661  -41.7287 N.am      4 UNK        -0.4463 
     30 CA         20.5468  -23.9918  -42.3027 C.3       4 UNK         0.0283 
     31 CB         20.2682  -23.9208  -43.8123 C.3       4 UNK        -0.1875 
     32 C          22.0590  -24.0324  -42.0355 C.2       4 UNK         0.4949 
     33 O          22.6197  -23.0222  -41.6101 O.2       4 UNK        -0.5039 
     34 N          22.6883  -25.1906  -42.2717 N.am      5 UNK        -0.4663 
     35 CA         24.0997  -25.4581  -42.0066 C.3       5 UNK         0.0242 
     36 CB         24.8557  -25.5766  -43.3403 C.3       5 UNK        -0.1982 
     37 C          24.1752  -26.7628  -41.2097 C.2       5 UNK         0.5017 
     38 O          23.6487  -27.7718  -41.6777 O.2       5 UNK        -0.5012 
     39 N          24.7993  -26.7090  -40.0247 N.am      6 UNK        -0.4439 
     40 CA         24.8194  -27.7526  -38.9923 C.3       6 UNK         0.0297 
     41 CB         25.8337  -27.3639  -37.9025 C.3       6 UNK        -0.2006 
     42 C          25.0951  -29.1755  -39.5150 C.2       6 UNK         0.4892 
     43 O          26.2287  -29.4796  -39.8916 O.2       6 UNK        -0.5089 
     44 N          24.0382  -30.0015  -39.5164 N.am      7 UNK        -0.4243 
     45 CA         24.0043  -31.4170  -39.9077 C.3       7 UNK         0.0196 
     46 CB         24.8605  -32.2677  -38.9445 C.3       7 UNK        -0.2007 
     47 C          24.3377  -31.6894  -41.3909 C.2       7 UNK         0.5020 
     48 O          24.7390  -32.8055  -41.7217 O.2       7 UNK        -0.5147 
     49 N          24.1486  -30.6952  -42.2710 N.am      8 UNK        -0.4734 
     50 CA         24.4414  -30.7985  -43.7061 C.3       8 UNK         0.0238 
     51 CB         24.5615  -29.3828  -44.2930 C.3       8 UNK        -0.1912 
     52 C          23.4366  -31.6389  -44.5209 C.2       8 UNK         0.5038 
     53 O          23.7417  -31.9591  -45.6695 O.2       8 UNK        -0.5046 
     54 N          22.2647  -31.9541  -43.9488 N.am      9 UNK        -0.4200 
     55 CA         21.1970  -32.7563  -44.5757 C.3       9 UNK         0.0839 
     56 C          21.6638  -34.1831  -44.9790 C.2       9 UNK         0.5513 
     57 N          21.2874  -34.6527  -46.1604 N.am      9 UNK        -0.7519 
     58 O          22.3271  -34.8768  -44.2113 O.2       9 UNK        -0.4960 
     59 C59        19.9381  -32.8172  -43.6696 C.3       10 UNK        -0.0876 
     60 S60        18.3819  -33.0507  -44.5816 S.3       10 UNK        -0.2414 
     61 C61        17.1516  -32.6353  -43.2901 C.3       10 UNK         0.0169 
     62 H62        23.2449  -29.5483  -47.3240 H         1 UNK         0.0903 
     63 H63        22.5266  -31.0296  -47.9559 H         1 UNK         0.0903 
     64 H64        22.3125  -29.5065  -48.8222 H         1 UNK         0.0903 
     65 H65        22.0627  -28.5967  -45.6393 H         1 UNK         0.3096 
     66 H66        19.3041  -29.3675  -45.1384 H         1 UNK         0.1121 
     67 H67        19.0210  -27.5140  -46.7675 H         1 UNK         0.0849 
     68 H68        20.0784  -26.4928  -45.8486 H         1 UNK         0.0849 
     69 H69        15.6871  -27.4185  -45.2739 H         1 UNK         0.0865 
     70 H70        16.8531  -28.4132  -46.1078 H         1 UNK         0.0865 
     71 H71        17.2413  -30.5875  -45.1572 H         1 UNK         0.1346 
     72 H72        16.3197  -31.3674  -41.0344 H         1 UNK         0.1412 
     73 H73        15.7870  -27.4388  -42.6602 H         1 UNK         0.1426 
     74 H74        14.8831  -29.6811  -39.8999 H         1 UNK         0.0716 
     75 H75        14.6773  -28.0839  -40.5577 H         1 UNK         0.0716 
     76 H76        16.8063  -25.8346  -39.2611 H         1 UNK         0.0695 
     77 H77        16.7115  -26.4702  -40.8790 H         1 UNK         0.0695 
     78 H78        19.1171  -26.6086  -39.0083 H         1 UNK         0.0983 
     79 H79        18.6768  -28.0111  -41.5450 H         1 UNK         0.3095 
     80 H80        21.8547  -29.4872  -41.5127 H         1 UNK         0.0454 
     81 H81        19.2249  -30.8988  -40.8851 H         1 UNK         0.0851 
     82 H82        20.5097  -30.7402  -39.7059 H         1 UNK         0.0851 
     83 H83        20.8146  -31.6219  -41.1736 H         1 UNK         0.0851 
     84 H84        19.6519  -30.0943  -43.1321 H         1 UNK         0.2976 
     85 H85        20.0622  -26.0481  -42.1950 H         1 UNK         0.3116 
     86 H86        20.1504  -23.0798  -41.8513 H         1 UNK         0.0646 
     87 H87        19.1986  -23.8735  -44.0164 H         1 UNK         0.0847 
     88 H88        20.6729  -24.7839  -44.3400 H         1 UNK         0.0847 
     89 H89        20.7220  -23.0308  -44.2500 H         1 UNK         0.0847 
     90 H90        22.1611  -25.9953  -42.6080 H         1 UNK         0.3040 
     91 H91        24.5438  -24.6514  -41.4193 H         1 UNK         0.1015 
     92 H92        25.9033  -25.8314  -43.1757 H         1 UNK         0.0786 
     93 H93        24.8306  -24.6365  -43.8915 H         1 UNK         0.0786 
     94 H94        24.4257  -26.3484  -43.9797 H         1 UNK         0.0786 
     95 H95        25.2242  -25.8323  -39.7601 H         1 UNK         0.3172 
     96 H96        23.8297  -27.7474  -38.5307 H         1 UNK         0.0595 
     97 H97        26.8421  -27.2665  -38.3068 H         1 UNK         0.0839 
     98 H98        25.8709  -28.1194  -37.1162 H         1 UNK         0.0839 
     99 H99        25.5685  -26.4192  -37.4274 H         1 UNK         0.0839 
    100 H100       23.1509  -29.6080  -39.2303 H         1 UNK         0.2998 
    101 H101       22.9694  -31.7350  -39.7788 H         1 UNK         0.0822 
    102 H102       24.5940  -32.0797  -37.9044 H         1 UNK         0.0787 
    103 H103       24.7150  -33.3335  -39.1249 H         1 UNK         0.0787 
    104 H104       25.9250  -32.0619  -39.0609 H         1 UNK         0.0787 
    105 H105       23.8734  -29.7773  -41.9300 H         1 UNK         0.3055 
    106 H106       25.4125  -31.2869  -43.8159 H         1 UNK         0.1106 
    107 H107       23.6317  -28.8239  -44.1891 H         1 UNK         0.0828 
    108 H108       24.8156  -29.4129  -45.3531 H         1 UNK         0.0828 
    109 H109       25.3461  -28.8155  -43.7919 H         1 UNK         0.0828 
    110 H110       22.1314  -31.6830  -42.9885 H         1 UNK         0.2931 
    111 H111       20.9290  -32.2195  -45.4874 H         1 UNK         0.0412 
    112 H112       21.5678  -35.5819  -46.4331 H         1 UNK         0.3472 
    113 H113       20.7183  -34.0976  -46.7806 H         1 UNK         0.3472 
    114 H114       20.0325  -33.5811  -42.8946 H         1 UNK         0.0970 
    115 H115       19.8132  -31.8761  -43.1513 H         1 UNK         0.0970 
    116 H116       17.4743  -33.0742  -42.3446 H         1 UNK         0.0612 
    117 H117       16.2146  -33.1291  -43.5503 H         1 UNK         0.0612 
@<TRIPOS>BOND
     1    1    2 1    
     2    1   62 1    
     3    1   63 1    
     4    1   64 1    
     5    2    3 2    
     6    2    4 am   BACKBONE|DICT|INTERRES
     7    4    5 1    
     8    4   65 1    
     9    5    6 1    
    10    5   25 1    
    11    5   66 1    
    12    6    7 1    
    13    6   67 1    
    14    6   68 1    
    15    7    8 1    
    16    8    9 1    
    17    8   69 1    
    18    8   70 1    
    19    9   10 ar   
    20    9   14 ar   
    21   10   11 ar   
    22   10   71 1    
    23   11   12 ar   
    24   11   61 1    
    25   12   13 ar   
    26   12   72 1    
    27   13   14 ar   
    28   13   15 1    
    29   14   73 1    
    30   15   16 1    
    31   15   74 1    
    32   15   75 1    
    33   16   17 1    
    34   17   18 1    
    35   17   76 1    
    36   17   77 1    
    37   18   19 1    
    38   18   27 1    
    39   18   78 1    
    40   19   20 am   BACKBONE|DICT|INTERRES
    41   19   79 1    
    42   20   21 2    
    43   20   22 1    
    44   22   23 1    
    45   22   24 1    
    46   22   80 1    
    47   23   81 1    
    48   23   82 1    
    49   23   83 1    
    50   24   25 am   BACKBONE|DICT|INTERRES
    51   24   84 1    
    52   25   26 2    
    53   27   28 2    
    54   27   29 am   BACKBONE|DICT|INTERRES
    55   29   30 1    
    56   29   85 1    
    57   30   31 1    
    58   30   32 1    
    59   30   86 1    
    60   31   87 1    
    61   31   88 1    
    62   31   89 1    
    63   32   33 2    
    64   32   34 am   BACKBONE|DICT|INTERRES
    65   34   35 1    
    66   34   90 1    
    67   35   36 1    
    68   35   37 1    
    69   35   91 1    
    70   36   92 1    
    71   36   93 1    
    72   36   94 1    
    73   37   38 2    
    74   37   39 am   BACKBONE|DICT|INTERRES
    75   39   40 1    
    76   39   95 1    
    77   40   41 1    
    78   40   42 1    
    79   40   96 1    
    80   41   97 1    
    81   41   98 1    
    82   41   99 1    
    83   42   43 2    
    84   42   44 am   BACKBONE|DICT|INTERRES
    85   44   45 1    
    86   44  100 1    
    87   45   46 1    
    88   45   47 1    
    89   45  101 1    
    90   46  102 1    
    91   46  103 1    
    92   46  104 1    
    93   47   48 2    
    94   47   49 am   BACKBONE|DICT|INTERRES
    95   49   50 1    
    96   49  105 1    
    97   50   51 1    
    98   50   52 1    
    99   50  106 1    
   100   51  107 1    
   101   51  108 1    
   102   51  109 1    
   103   52   53 2    
   104   52   54 am   BACKBONE|DICT|INTERRES
   105   54   55 1    
   106   54  110 1    
   107   55   56 1    
   108   55   59 1    
   109   55  111 1    
   110   56   57 am   BACKBONE|DICT|INTERRES
   111   56   58 2    
   112   57  112 1    
   113   57  113 1    
   114   59   60 1    
   115   59  114 1    
   116   59  115 1    
   117   60   61 1    
   118   61  116 1    
   119   61  117 1    
@<TRIPOS>SUBSTRUCTURE
     1 UNK         1 GROUP             0       ****    0 ROOT    
