@<TRIPOS>MOLECULE
3R8
117   119    1
SMALL
USER_CHARGES


@<TRIPOS>ATOM
      1 CA         16.2716  -23.3966  -43.9939 C.3       0 UNK        -0.2013 
      2 C          16.1567  -24.9061  -44.1840 C.2       0 UNK         0.4866 
      3 O          15.5397  -25.5754  -43.3591 O.2       0 UNK        -0.5176 
      4 N          16.7260  -25.4971  -45.2442 N.am      1 UNK        -0.4884 
      5 CA         17.5535  -24.8783  -46.2911 C.3       1 UNK         0.0853 
      6 C6         17.6675  -25.8179  -47.5218 C.3       10 UNK        -0.0849 
      7 S7         18.5506  -27.3906  -47.1978 S.3       10 UNK        -0.2776 
      8 C8         17.2046  -28.5493  -46.7908 C.3       10 UNK         0.0316 
      9 C9         17.5327  -29.3304  -45.5253 C.ar      10 UNK        -0.0863 
     10 C10        18.5072  -30.3334  -45.5612 C.ar      10 UNK        -0.1009 
     11 C11        18.8256  -31.0577  -44.4095 C.ar      10 UNK        -0.0712 
     12 C12        18.1453  -30.7834  -43.2186 C.ar      10 UNK        -0.0894 
     13 C13        17.1787  -29.7746  -43.1620 C.ar      10 UNK        -0.0745 
     14 C14        16.8735  -29.0540  -44.3216 C.ar      10 UNK        -0.0972 
     15 C15        16.4628  -29.4644  -41.8502 C.3       10 UNK         0.0209 
     16 S16        17.6093  -29.0670  -40.4836 S.3       10 UNK        -0.2568 
     17 C17        18.4548  -27.5848  -41.1249 C.3       10 UNK        -0.0983 
     18 CA         19.8277  -27.9420  -41.7573 C.3       3 UNK         0.0876 
     19 N          20.1996  -27.0273  -42.8391 N.am      3 UNK        -0.4424 
     20 C          20.6275  -25.7602  -42.7334 C.2       2 UNK         0.4918 
     21 O          20.9010  -25.1991  -41.6731 O.2       2 UNK        -0.4875 
     22 CA         20.6905  -24.9708  -44.0442 C.3       2 UNK         0.0481 
     23 CB         21.8490  -25.4473  -44.9422 C.3       2 UNK        -0.1831 
     24 N          19.4055  -25.1258  -44.7177 N.am      2 UNK        -0.4498 
     25 C          18.9470  -24.4491  -45.7756 C.2       1 UNK         0.5027 
     26 O          19.5550  -23.5345  -46.3322 O.2       1 UNK        -0.4969 
     27 C          20.9720  -28.1736  -40.7519 C.2       3 UNK         0.5005 
     28 O          21.8169  -29.0324  -41.0051 O.2       3 UNK        -0.5279 
     29 N          21.0370  -27.3842  -39.6708 N.am      4 UNK        -0.4463 
     30 CA         22.1512  -27.3772  -38.7162 C.3       4 UNK         0.0283 
     31 CB         21.8258  -26.4327  -37.5492 C.3       4 UNK        -0.1875 
     32 C          23.4919  -26.9914  -39.3684 C.2       4 UNK         0.4949 
     33 O          24.5223  -27.5671  -39.0208 O.2       4 UNK        -0.5039 
     34 N          23.4470  -26.0823  -40.3541 N.am      5 UNK        -0.4663 
     35 CA         24.5950  -25.7048  -41.1861 C.3       5 UNK         0.0242 
     36 CB         24.3205  -24.3425  -41.8438 C.3       5 UNK        -0.1982 
     37 C          24.9669  -26.7707  -42.2375 C.2       5 UNK         0.5017 
     38 O          26.0596  -26.6973  -42.7988 O.2       5 UNK        -0.5012 
     39 N          24.0789  -27.7499  -42.4636 N.am      6 UNK        -0.4439 
     40 CA         24.3092  -28.9473  -43.2765 C.3       6 UNK         0.0297 
     41 CB         23.0979  -29.1698  -44.2024 C.3       6 UNK        -0.2006 
     42 C          24.5775  -30.1827  -42.3922 C.2       6 UNK         0.4892 
     43 O          24.4562  -31.3070  -42.8806 O.2       6 UNK        -0.5089 
     44 N          24.9080  -29.9606  -41.1078 N.am      7 UNK        -0.4243 
     45 CA         25.2135  -30.9566  -40.0737 C.3       7 UNK         0.0196 
     46 CB         26.5609  -31.6463  -40.3765 C.3       7 UNK        -0.2007 
     47 C          24.0720  -31.9635  -39.8291 C.2       7 UNK         0.5020 
     48 O          24.3400  -33.1407  -39.5827 O.2       7 UNK        -0.5147 
     49 N          22.8178  -31.4956  -39.9373 N.am      8 UNK        -0.4734 
     50 CA         21.5750  -32.2751  -39.8353 C.3       8 UNK         0.0238 
     51 CB         21.3489  -32.7587  -38.3874 C.3       8 UNK        -0.1912 
     52 C          21.4977  -33.4142  -40.8734 C.2       8 UNK         0.5038 
     53 O          20.9827  -34.4923  -40.5720 O.2       8 UNK        -0.5046 
     54 N          22.0332  -33.1391  -42.0698 N.am      9 UNK        -0.4200 
     55 CA         22.1845  -34.0466  -43.2179 C.3       9 UNK         0.0839 
     56 C          23.3565  -35.0636  -43.0680 C.2       9 UNK         0.5513 
     57 N          24.1879  -34.9914  -42.0343 N.am      9 UNK        -0.7519 
     58 O          23.5336  -35.9265  -43.9243 O.2       9 UNK        -0.4960 
     59 C59        20.8658  -34.7445  -43.6786 C.3       10 UNK        -0.0876 
     60 S60        19.3555  -33.7199  -43.8393 S.3       10 UNK        -0.2414 
     61 C61        19.9371  -32.0984  -44.4353 C.3       10 UNK         0.0169 
     62 H62        17.2873  -23.1155  -43.7177 H         1 UNK         0.0903 
     63 H63        15.9872  -22.8579  -44.8968 H         1 UNK         0.0903 
     64 H64        15.6086  -23.0649  -43.1950 H         1 UNK         0.0903 
     65 H65        16.6176  -26.4947  -45.3415 H         1 UNK         0.3096 
     66 H66        17.0515  -23.9695  -46.6286 H         1 UNK         0.1121 
     67 H67        18.1932  -25.3040  -48.3290 H         1 UNK         0.0849 
     68 H68        16.6758  -26.0333  -47.9227 H         1 UNK         0.0849 
     69 H69        16.2556  -28.0231  -46.6819 H         1 UNK         0.0865 
     70 H70        17.0691  -29.2418  -47.6230 H         1 UNK         0.0865 
     71 H71        19.0297  -30.5353  -46.4866 H         1 UNK         0.1346 
     72 H72        18.3889  -31.3396  -42.3236 H         1 UNK         0.1412 
     73 H73        16.1173  -28.2821  -44.2821 H         1 UNK         0.1426 
     74 H74        15.7647  -28.6346  -41.9743 H         1 UNK         0.0716 
     75 H75        15.8633  -30.3297  -41.5647 H         1 UNK         0.0716 
     76 H76        18.5388  -26.8392  -40.3336 H         1 UNK         0.0695 
     77 H77        17.8040  -27.1297  -41.8738 H         1 UNK         0.0695 
     78 H78        19.7206  -28.8981  -42.2657 H         1 UNK         0.0983 
     79 H79        20.0783  -27.4068  -43.7674 H         1 UNK         0.3095 
     80 H80        20.8368  -23.9172  -43.7979 H         1 UNK         0.0454 
     81 H81        22.0261  -24.7469  -45.7582 H         1 UNK         0.0851 
     82 H82        21.6399  -26.4198  -45.3873 H         1 UNK         0.0851 
     83 H83        22.7828  -25.5343  -44.3868 H         1 UNK         0.0851 
     84 H84        18.7836  -25.8133  -44.3153 H         1 UNK         0.2976 
     85 H85        20.3352  -26.6660  -39.5594 H         1 UNK         0.3116 
     86 H86        22.2555  -28.3895  -38.3196 H         1 UNK         0.0646 
     87 H87        20.9200  -26.7425  -37.0279 H         1 UNK         0.0847 
     88 H88        22.6335  -26.4276  -36.8158 H         1 UNK         0.0847 
     89 H89        21.6858  -25.4048  -37.8864 H         1 UNK         0.0847 
     90 H90        22.5498  -25.6742  -40.6011 H         1 UNK         0.3040 
     91 H91        25.4657  -25.5909  -40.5359 H         1 UNK         0.1015 
     92 H92        23.4288  -24.3609  -42.4682 H         1 UNK         0.0786 
     93 H93        25.1556  -24.0351  -42.4750 H         1 UNK         0.0786 
     94 H94        24.1822  -23.5645  -41.0928 H         1 UNK         0.0786 
     95 H95        23.2305  -27.7673  -41.9098 H         1 UNK         0.3172 
     96 H96        25.1914  -28.8119  -43.9050 H         1 UNK         0.0595 
     97 H97        22.1808  -29.3466  -43.6407 H         1 UNK         0.0839 
     98 H98        23.2513  -30.0332  -44.8512 H         1 UNK         0.0839 
     99 H99        22.9375  -28.3117  -44.8526 H         1 UNK         0.0839 
    100 H100       24.9365  -29.0002  -40.7908 H         1 UNK         0.2998 
    101 H101       25.3275  -30.4015  -39.1413 H         1 UNK         0.0822 
    102 H102       26.8655  -32.2924  -39.5523 H         1 UNK         0.0787 
    103 H103       26.5039  -32.2663  -41.2721 H         1 UNK         0.0787 
    104 H104       27.3563  -30.9159  -40.5239 H         1 UNK         0.0787 
    105 H105       22.6882  -30.5236  -40.2129 H         1 UNK         0.3055 
    106 H106       20.7626  -31.5900  -40.0844 H         1 UNK         0.1106 
    107 H107       20.3691  -33.2254  -38.2797 H         1 UNK         0.0828 
    108 H108       22.0940  -33.4952  -38.0851 H         1 UNK         0.0828 
    109 H109       21.3902  -31.9292  -37.6817 H         1 UNK         0.0828 
    110 H110       22.5126  -32.2540  -42.1741 H         1 UNK         0.2931 
    111 H111       22.5005  -33.3971  -44.0347 H         1 UNK         0.0412 
    112 H112       24.9437  -35.6542  -41.9668 H         1 UNK         0.3472 
    113 H113       24.0696  -34.2908  -41.3120 H         1 UNK         0.3472 
    114 H114       20.6237  -35.5603  -42.9954 H         1 UNK         0.0970 
    115 H115       21.0280  -35.2210  -44.6470 H         1 UNK         0.0970 
    116 H116       20.3418  -32.2179  -45.4414 H         1 UNK         0.0612 
    117 H117       20.7474  -31.7207  -43.8152 H         1 UNK         0.0612 
@<TRIPOS>BOND
     1    1    2 1    
     2    1   62 1    
     3    1   63 1    
     4    1   64 1    
     5    2    3 2    
     6    2    4 am   BACKBONE|DICT|INTERRES
     7    4    5 1    
     8    4   65 1    
     9    5    6 1    
    10    5   25 1    
    11    5   66 1    
    12    6    7 1    
    13    6   67 1    
    14    6   68 1    
    15    7    8 1    
    16    8    9 1    
    17    8   69 1    
    18    8   70 1    
    19    9   10 ar   
    20    9   14 ar   
    21   10   11 ar   
    22   10   71 1    
    23   11   12 ar   
    24   11   61 1    
    25   12   13 ar   
    26   12   72 1    
    27   13   14 ar   
    28   13   15 1    
    29   14   73 1    
    30   15   16 1    
    31   15   74 1    
    32   15   75 1    
    33   16   17 1    
    34   17   18 1    
    35   17   76 1    
    36   17   77 1    
    37   18   19 1    
    38   18   27 1    
    39   18   78 1    
    40   19   20 am   BACKBONE|DICT|INTERRES
    41   19   79 1    
    42   20   21 2    
    43   20   22 1    
    44   22   23 1    
    45   22   24 1    
    46   22   80 1    
    47   23   81 1    
    48   23   82 1    
    49   23   83 1    
    50   24   25 am   BACKBONE|DICT|INTERRES
    51   24   84 1    
    52   25   26 2    
    53   27   28 2    
    54   27   29 am   BACKBONE|DICT|INTERRES
    55   29   30 1    
    56   29   85 1    
    57   30   31 1    
    58   30   32 1    
    59   30   86 1    
    60   31   87 1    
    61   31   88 1    
    62   31   89 1    
    63   32   33 2    
    64   32   34 am   BACKBONE|DICT|INTERRES
    65   34   35 1    
    66   34   90 1    
    67   35   36 1    
    68   35   37 1    
    69   35   91 1    
    70   36   92 1    
    71   36   93 1    
    72   36   94 1    
    73   37   38 2    
    74   37   39 am   BACKBONE|DICT|INTERRES
    75   39   40 1    
    76   39   95 1    
    77   40   41 1    
    78   40   42 1    
    79   40   96 1    
    80   41   97 1    
    81   41   98 1    
    82   41   99 1    
    83   42   43 2    
    84   42   44 am   BACKBONE|DICT|INTERRES
    85   44   45 1    
    86   44  100 1    
    87   45   46 1    
    88   45   47 1    
    89   45  101 1    
    90   46  102 1    
    91   46  103 1    
    92   46  104 1    
    93   47   48 2    
    94   47   49 am   BACKBONE|DICT|INTERRES
    95   49   50 1    
    96   49  105 1    
    97   50   51 1    
    98   50   52 1    
    99   50  106 1    
   100   51  107 1    
   101   51  108 1    
   102   51  109 1    
   103   52   53 2    
   104   52   54 am   BACKBONE|DICT|INTERRES
   105   54   55 1    
   106   54  110 1    
   107   55   56 1    
   108   55   59 1    
   109   55  111 1    
   110   56   57 am   BACKBONE|DICT|INTERRES
   111   56   58 2    
   112   57  112 1    
   113   57  113 1    
   114   59   60 1    
   115   59  114 1    
   116   59  115 1    
   117   60   61 1    
   118   61  116 1    
   119   61  117 1    
@<TRIPOS>SUBSTRUCTURE
     1 UNK         1 GROUP             0       ****    0 ROOT    
