@<TRIPOS>MOLECULE
3R8
117   119    1
SMALL
USER_CHARGES


@<TRIPOS>ATOM
      1 CA         13.2912  -26.7377  -40.5913 C.3       0 UNK        -0.2013 
      2 C          13.9352  -26.4794  -41.9454 C.2       0 UNK         0.4866 
      3 O          13.3424  -25.8024  -42.7865 O.2       0 UNK        -0.5176 
      4 N          15.1388  -27.0213  -42.1661 N.am      1 UNK        -0.4884 
      5 CA         15.9280  -26.8416  -43.3891 C.3       1 UNK         0.0853 
      6 C6         17.0905  -27.8590  -43.4673 C.3       10 UNK        -0.0849 
      7 S7         16.5068  -29.5795  -43.6415 S.3       10 UNK        -0.2776 
      8 C8         17.1238  -30.0212  -45.3004 C.3       10 UNK         0.0316 
      9 C9         18.6447  -29.9701  -45.3818 C.ar      10 UNK        -0.0863 
     10 C10        19.4170  -30.8791  -44.6563 C.ar      10 UNK        -0.1009 
     11 C11        20.8121  -30.8326  -44.7146 C.ar      10 UNK        -0.0712 
     12 C12        21.4347  -29.8695  -45.5165 C.ar      10 UNK        -0.0894 
     13 C13        20.6778  -28.9444  -46.2461 C.ar      10 UNK        -0.0745 
     14 C14        19.2794  -29.0154  -46.1820 C.ar      10 UNK        -0.0972 
     15 C15        21.3942  -27.9188  -47.1298 C.3       10 UNK         0.0209 
     16 S16        20.4742  -26.3562  -47.3911 S.3       10 UNK        -0.2568 
     17 C17        21.3692  -25.1436  -46.3525 C.3       10 UNK        -0.0983 
     18 CA         20.8060  -24.9443  -44.9156 C.3       3 UNK         0.0876 
     19 N          19.3627  -24.7351  -44.8928 N.am      3 UNK        -0.4424 
     20 C          18.7236  -23.5831  -45.1086 C.2       2 UNK         0.4918 
     21 O          19.3019  -22.5206  -45.3407 O.2       2 UNK        -0.4875 
     22 CA         17.1807  -23.6090  -45.0808 C.3       2 UNK         0.0481 
     23 CB         16.6116  -23.1677  -46.4402 C.3       2 UNK        -0.1831 
     24 N          16.6186  -24.9224  -44.7422 N.am      2 UNK        -0.4498 
     25 C          16.4758  -25.4028  -43.4992 C.2       1 UNK         0.5027 
     26 O          16.7964  -24.7811  -42.4828 O.2       1 UNK        -0.4969 
     27 C          21.1432  -26.1127  -43.9762 C.2       3 UNK         0.5005 
     28 O          20.2358  -26.7710  -43.4600 O.2       3 UNK        -0.5279 
     29 N          22.4430  -26.3524  -43.7827 N.am      4 UNK        -0.4463 
     30 CA         22.9885  -27.5183  -43.1033 C.3       4 UNK         0.0283 
     31 CB         23.1950  -27.2233  -41.6083 C.3       4 UNK        -0.1875 
     32 C          24.3064  -27.8828  -43.7917 C.2       4 UNK         0.4949 
     33 O          25.0045  -26.9911  -44.2805 O.2       4 UNK        -0.5039 
     34 N          24.6164  -29.1807  -43.8159 N.am      5 UNK        -0.4663 
     35 CA         25.8236  -29.7541  -44.4182 C.3       5 UNK         0.0242 
     36 CB         25.4876  -30.2637  -45.8328 C.3       5 UNK        -0.1982 
     37 C          26.4238  -30.8621  -43.5329 C.2       5 UNK         0.5017 
     38 O          27.2526  -31.6393  -44.0086 O.2       5 UNK        -0.5012 
     39 N          25.9920  -30.9259  -42.2690 N.am      6 UNK        -0.4439 
     40 CA         26.3618  -31.9075  -41.2573 C.3       6 UNK         0.0297 
     41 CB         25.6775  -33.2588  -41.5546 C.3       6 UNK        -0.2006 
     42 C          25.9289  -31.3540  -39.8932 C.2       6 UNK         0.4892 
     43 O          25.2646  -30.3150  -39.8356 O.2       6 UNK        -0.5089 
     44 N          26.2891  -32.0718  -38.8215 N.am      7 UNK        -0.4243 
     45 CA         25.8935  -31.7649  -37.4412 C.3       7 UNK         0.0196 
     46 CB         26.7737  -32.5782  -36.4772 C.3       7 UNK        -0.2007 
     47 C          24.3994  -32.0162  -37.1499 C.2       7 UNK         0.5020 
     48 O          23.8945  -31.5166  -36.1438 O.2       7 UNK        -0.5147 
     49 N          23.7306  -32.7924  -38.0137 N.am      8 UNK        -0.4734 
     50 CA         22.2934  -33.0594  -37.9841 C.3       8 UNK         0.0238 
     51 CB         22.0458  -34.4952  -38.4942 C.3       8 UNK        -0.1912 
     52 C          21.5426  -31.9664  -38.7720 C.2       8 UNK         0.5038 
     53 O          21.5680  -30.8065  -38.3578 O.2       8 UNK        -0.5046 
     54 N          20.8860  -32.3477  -39.8777 N.am      9 UNK        -0.4200 
     55 CA         20.1012  -31.4711  -40.7685 C.3       9 UNK         0.0839 
     56 C          18.8394  -30.8472  -40.0948 C.2       9 UNK         0.5513 
     57 N          18.2465  -31.4997  -39.1014 N.am      9 UNK        -0.7519 
     58 O          18.3796  -29.7743  -40.4748 O.2       9 UNK        -0.4960 
     59 C59        20.9705  -30.4202  -41.5189 C.3       10 UNK        -0.0876 
     60 S60        22.3892  -31.1426  -42.4188 S.3       10 UNK        -0.2414 
     61 C61        21.6334  -31.8422  -43.9231 C.3       10 UNK         0.0169 
     62 H62        13.9178  -27.3617  -39.9540 H         1 UNK         0.0903 
     63 H63        13.1146  -25.7949  -40.0742 H         1 UNK         0.0903 
     64 H64        12.3332  -27.2404  -40.7209 H         1 UNK         0.0903 
     65 H65        15.5845  -27.5644  -41.4401 H         1 UNK         0.3096 
     66 H66        15.2623  -27.0109  -44.2389 H         1 UNK         0.1121 
     67 H67        17.7479  -27.6221  -44.3040 H         1 UNK         0.0849 
     68 H68        17.7195  -27.7988  -42.5763 H         1 UNK         0.0849 
     69 H69        16.7869  -31.0293  -45.5463 H         1 UNK         0.0865 
     70 H70        16.6690  -29.3596  -46.0394 H         1 UNK         0.0865 
     71 H71        18.9266  -31.6178  -44.0371 H         1 UNK         0.1346 
     72 H72        22.5132  -29.8429  -45.5740 H         1 UNK         0.1412 
     73 H73        18.6764  -28.3247  -46.7538 H         1 UNK         0.1426 
     74 H74        21.5639  -28.3776  -48.1044 H         1 UNK         0.0716 
     75 H75        22.3818  -27.6973  -46.7228 H         1 UNK         0.0716 
     76 H76        22.4332  -25.3844  -46.3390 H         1 UNK         0.0695 
     77 H77        21.3095  -24.1887  -46.8767 H         1 UNK         0.0695 
     78 H78        21.2812  -24.0628  -44.4788 H         1 UNK         0.0983 
     79 H79        18.8405  -25.5587  -44.6284 H         1 UNK         0.3095 
     80 H80        16.8586  -22.8842  -44.3303 H         1 UNK         0.0454 
     81 H81        16.9587  -22.1680  -46.7052 H         1 UNK         0.0851 
     82 H82        16.9162  -23.8402  -47.2433 H         1 UNK         0.0851 
     83 H83        15.5222  -23.1336  -46.4236 H         1 UNK         0.0851 
     84 H84        16.3414  -25.4993  -45.5242 H         1 UNK         0.2976 
     85 H85        23.1413  -25.7929  -44.2576 H         1 UNK         0.3116 
     86 H86        22.2933  -28.3512  -43.2152 H         1 UNK         0.0646 
     87 H87        23.6016  -28.0934  -41.0906 H         1 UNK         0.0847 
     88 H88        22.2524  -26.9706  -41.1225 H         1 UNK         0.0847 
     89 H89        23.8868  -26.3948  -41.4521 H         1 UNK         0.0847 
     90 H90        23.9735  -29.8432  -43.3957 H         1 UNK         0.3040 
     91 H91        26.5954  -28.9856  -44.5013 H         1 UNK         0.1015 
     92 H92        25.0822  -29.4663  -46.4559 H         1 UNK         0.0786 
     93 H93        24.7575  -31.0734  -45.8044 H         1 UNK         0.0786 
     94 H94        26.3775  -30.6431  -46.3368 H         1 UNK         0.0786 
     95 H95        25.3759  -30.2052  -41.9110 H         1 UNK         0.3172 
     96 H96        27.4469  -32.0286  -41.2551 H         1 UNK         0.0595 
     97 H97        25.9611  -33.6434  -42.5343 H         1 UNK         0.0839 
     98 H98        24.5904  -33.1718  -41.5362 H         1 UNK         0.0839 
     99 H99        25.9586  -34.0190  -40.8254 H         1 UNK         0.0839 
    100 H100       26.8460  -32.9039  -38.9568 H         1 UNK         0.2998 
    101 H101       26.0814  -30.7037  -37.2630 H         1 UNK         0.0822 
    102 H102       27.8311  -32.3530  -36.6180 H         1 UNK         0.0787 
    103 H103       26.5318  -32.3478  -35.4386 H         1 UNK         0.0787 
    104 H104       26.6361  -33.6518  -36.6128 H         1 UNK         0.0787 
    105 H105       24.2348  -33.1355  -38.8173 H         1 UNK         0.3055 
    106 H106       21.9344  -33.0056  -36.9536 H         1 UNK         0.1106 
    107 H107       22.4041  -34.6410  -39.5142 H         1 UNK         0.0828 
    108 H108       22.5562  -35.2234  -37.8632 H         1 UNK         0.0828 
    109 H109       20.9850  -34.7489  -38.4682 H         1 UNK         0.0828 
    110 H110       20.9137  -33.3215  -40.1402 H         1 UNK         0.2931 
    111 H111       19.6929  -32.1345  -41.5312 H         1 UNK         0.0412 
    112 H112       17.4295  -31.0984  -38.6685 H         1 UNK         0.3472 
    113 H113       18.6053  -32.3844  -38.7801 H         1 UNK         0.3472 
    114 H114       21.3648  -29.6908  -40.8100 H         1 UNK         0.0970 
    115 H115       20.3644  -29.8399  -42.2166 H         1 UNK         0.0970 
    116 H116       21.0192  -32.6986  -43.6409 H         1 UNK         0.0612 
    117 H117       22.4271  -32.2377  -44.5585 H         1 UNK         0.0612 
@<TRIPOS>BOND
     1    1    2 1    
     2    1   62 1    
     3    1   63 1    
     4    1   64 1    
     5    2    3 2    
     6    2    4 am   BACKBONE|DICT|INTERRES
     7    4    5 1    
     8    4   65 1    
     9    5    6 1    
    10    5   25 1    
    11    5   66 1    
    12    6    7 1    
    13    6   67 1    
    14    6   68 1    
    15    7    8 1    
    16    8    9 1    
    17    8   69 1    
    18    8   70 1    
    19    9   10 ar   
    20    9   14 ar   
    21   10   11 ar   
    22   10   71 1    
    23   11   12 ar   
    24   11   61 1    
    25   12   13 ar   
    26   12   72 1    
    27   13   14 ar   
    28   13   15 1    
    29   14   73 1    
    30   15   16 1    
    31   15   74 1    
    32   15   75 1    
    33   16   17 1    
    34   17   18 1    
    35   17   76 1    
    36   17   77 1    
    37   18   19 1    
    38   18   27 1    
    39   18   78 1    
    40   19   20 am   BACKBONE|DICT|INTERRES
    41   19   79 1    
    42   20   21 2    
    43   20   22 1    
    44   22   23 1    
    45   22   24 1    
    46   22   80 1    
    47   23   81 1    
    48   23   82 1    
    49   23   83 1    
    50   24   25 am   BACKBONE|DICT|INTERRES
    51   24   84 1    
    52   25   26 2    
    53   27   28 2    
    54   27   29 am   BACKBONE|DICT|INTERRES
    55   29   30 1    
    56   29   85 1    
    57   30   31 1    
    58   30   32 1    
    59   30   86 1    
    60   31   87 1    
    61   31   88 1    
    62   31   89 1    
    63   32   33 2    
    64   32   34 am   BACKBONE|DICT|INTERRES
    65   34   35 1    
    66   34   90 1    
    67   35   36 1    
    68   35   37 1    
    69   35   91 1    
    70   36   92 1    
    71   36   93 1    
    72   36   94 1    
    73   37   38 2    
    74   37   39 am   BACKBONE|DICT|INTERRES
    75   39   40 1    
    76   39   95 1    
    77   40   41 1    
    78   40   42 1    
    79   40   96 1    
    80   41   97 1    
    81   41   98 1    
    82   41   99 1    
    83   42   43 2    
    84   42   44 am   BACKBONE|DICT|INTERRES
    85   44   45 1    
    86   44  100 1    
    87   45   46 1    
    88   45   47 1    
    89   45  101 1    
    90   46  102 1    
    91   46  103 1    
    92   46  104 1    
    93   47   48 2    
    94   47   49 am   BACKBONE|DICT|INTERRES
    95   49   50 1    
    96   49  105 1    
    97   50   51 1    
    98   50   52 1    
    99   50  106 1    
   100   51  107 1    
   101   51  108 1    
   102   51  109 1    
   103   52   53 2    
   104   52   54 am   BACKBONE|DICT|INTERRES
   105   54   55 1    
   106   54  110 1    
   107   55   56 1    
   108   55   59 1    
   109   55  111 1    
   110   56   57 am   BACKBONE|DICT|INTERRES
   111   56   58 2    
   112   57  112 1    
   113   57  113 1    
   114   59   60 1    
   115   59  114 1    
   116   59  115 1    
   117   60   61 1    
   118   61  116 1    
   119   61  117 1    
@<TRIPOS>SUBSTRUCTURE
     1 UNK         1 GROUP             0       ****    0 ROOT    
