@<TRIPOS>MOLECULE
3R8
117   119    1
SMALL
USER_CHARGES


@<TRIPOS>ATOM
      1 CA         13.9807  -24.9950  -48.1284 C.3       0 UNK        -0.2013 
      2 C          15.4632  -25.0951  -47.8010 C.2       0 UNK         0.4866 
      3 O          16.2735  -24.3958  -48.4102 O.2       0 UNK        -0.5176 
      4 N          15.8262  -25.9647  -46.8495 N.am      1 UNK        -0.4884 
      5 CA         17.1966  -26.1400  -46.3601 C.3       1 UNK         0.0853 
      6 C6         17.3405  -27.4774  -45.5922 C.3       10 UNK        -0.0849 
      7 S7         19.0806  -27.9659  -45.3233 S.3       10 UNK        -0.2776 
      8 C8         18.8649  -29.6149  -44.5593 C.3       10 UNK         0.0316 
      9 C9         18.5426  -29.6320  -43.0610 C.ar      10 UNK        -0.0863 
     10 C10        18.5400  -30.8649  -42.4017 C.ar      10 UNK        -0.1009 
     11 C11        18.2848  -30.9479  -41.0300 C.ar      10 UNK        -0.0712 
     12 C12        18.0303  -29.7758  -40.3113 C.ar      10 UNK        -0.0894 
     13 C13        18.0013  -28.5317  -40.9488 C.ar      10 UNK        -0.0745 
     14 C14        18.2459  -28.4762  -42.3266 C.ar      10 UNK        -0.0972 
     15 C15        17.6601  -27.2928  -40.1129 C.3       10 UNK         0.0209 
     16 S16        17.9062  -25.6700  -40.9247 S.3       10 UNK        -0.2568 
     17 C17        19.7053  -25.4103  -40.7521 C.3       10 UNK        -0.0983 
     18 CA         20.5101  -25.7836  -42.0293 C.3       3 UNK         0.0876 
     19 N          20.0450  -25.1325  -43.2632 N.am      3 UNK        -0.4424 
     20 C          19.9821  -23.8159  -43.5104 C.2       2 UNK         0.4918 
     21 O          20.3363  -22.9490  -42.7117 O.2       2 UNK        -0.4875 
     22 CA         19.4761  -23.3863  -44.9021 C.3       2 UNK         0.0481 
     23 CB         20.6278  -22.7857  -45.7259 C.3       2 UNK        -0.1831 
     24 N          18.8671  -24.4800  -45.6679 N.am      2 UNK        -0.4498 
     25 C          17.6177  -24.9332  -45.4933 C.2       1 UNK         0.5027 
     26 O          16.8239  -24.4620  -44.6752 O.2       1 UNK        -0.4969 
     27 C          22.0372  -25.6885  -41.8206 C.2       3 UNK         0.5005 
     28 O          22.5219  -26.0085  -40.7353 O.2       3 UNK        -0.5279 
     29 N          22.7914  -25.3416  -42.8746 N.am      4 UNK        -0.4463 
     30 CA         24.2570  -25.4156  -42.8992 C.3       4 UNK         0.0283 
     31 CB         24.7853  -24.6751  -44.1381 C.3       4 UNK        -0.1875 
     32 C          24.7700  -26.8686  -42.8766 C.2       4 UNK         0.4949 
     33 O          25.8499  -27.1271  -42.3469 O.2       4 UNK        -0.5039 
     34 N          23.9702  -27.7890  -43.4328 N.am      5 UNK        -0.4663 
     35 CA         24.2360  -29.2271  -43.4814 C.3       5 UNK         0.0242 
     36 CB         23.6126  -29.7941  -44.7692 C.3       5 UNK        -0.1982 
     37 C          23.6990  -29.9904  -42.2581 C.2       5 UNK         0.5017 
     38 O          23.8994  -31.2028  -42.1941 O.2       5 UNK        -0.5012 
     39 N          23.0230  -29.3098  -41.3180 N.am      6 UNK        -0.4439 
     40 CA         22.2726  -29.9039  -40.1982 C.3       6 UNK         0.0297 
     41 CB         21.4738  -28.8085  -39.4767 C.3       6 UNK        -0.2006 
     42 C          23.0942  -30.7298  -39.1865 C.2       6 UNK         0.4892 
     43 O          22.5017  -31.4071  -38.3465 O.2       6 UNK        -0.5089 
     44 N          24.4299  -30.6908  -39.2863 N.am      7 UNK        -0.4243 
     45 CA         25.3401  -31.5999  -38.5856 C.3       7 UNK         0.0196 
     46 CB         26.7826  -31.0949  -38.7498 C.3       7 UNK        -0.2007 
     47 C          25.2213  -33.0593  -39.0713 C.2       7 UNK         0.5020 
     48 O          25.4906  -33.9717  -38.2894 O.2       7 UNK        -0.5147 
     49 N          24.8238  -33.2532  -40.3369 N.am      8 UNK        -0.4734 
     50 CA         24.5956  -34.5610  -40.9593 C.3       8 UNK         0.0238 
     51 CB         25.6377  -34.7735  -42.0703 C.3       8 UNK        -0.1912 
     52 C          23.1736  -34.7025  -41.5290 C.2       8 UNK         0.5038 
     53 O          22.6864  -35.8292  -41.6266 O.2       8 UNK        -0.5046 
     54 N          22.5459  -33.5796  -41.9072 N.am      9 UNK        -0.4200 
     55 CA         21.2287  -33.4719  -42.5585 C.3       9 UNK         0.0839 
     56 C          21.1895  -34.0104  -44.0211 C.2       9 UNK         0.5513 
     57 N          22.3228  -34.2102  -44.6835 N.am      9 UNK        -0.7519 
     58 O          20.1163  -34.2150  -44.5823 O.2       9 UNK        -0.4960 
     59 C59        20.0569  -34.0029  -41.6823 C.3       10 UNK        -0.0876 
     60 S60        19.8665  -33.0711  -40.1229 S.3       10 UNK        -0.2414 
     61 C61        18.2272  -32.3005  -40.3282 C.3       10 UNK         0.0169 
     62 H62        13.8115  -25.2309  -49.1788 H         1 UNK         0.0903 
     63 H63        13.3823  -25.6791  -47.5268 H         1 UNK         0.0903 
     64 H64        13.6240  -23.9818  -47.9448 H         1 UNK         0.0903 
     65 H65        15.1137  -26.4866  -46.3588 H         1 UNK         0.3096 
     66 H66        17.8479  -26.1810  -47.2368 H         1 UNK         0.1121 
     67 H67        16.8688  -28.2764  -46.1670 H         1 UNK         0.0849 
     68 H68        16.8066  -27.4415  -44.6410 H         1 UNK         0.0849 
     69 H69        18.0915  -30.1639  -45.0984 H         1 UNK         0.0865 
     70 H70        19.7921  -30.1690  -44.7142 H         1 UNK         0.0865 
     71 H71        18.7309  -31.7671  -42.9647 H         1 UNK         0.1346 
     72 H72        17.8270  -29.8342  -39.2505 H         1 UNK         0.1412 
     73 H73        18.2038  -27.5233  -42.8265 H         1 UNK         0.1426 
     74 H74        18.2253  -27.3124  -39.1798 H         1 UNK         0.0716 
     75 H75        16.6088  -27.3628  -39.8309 H         1 UNK         0.0716 
     76 H76        19.8695  -24.3634  -40.4934 H         1 UNK         0.0695 
     77 H77        20.0545  -25.9818  -39.8909 H         1 UNK         0.0695 
     78 H78        20.3561  -26.8480  -42.1978 H         1 UNK         0.0983 
     79 H79        19.7278  -25.7570  -43.9914 H         1 UNK         0.3095 
     80 H80        18.7276  -22.6059  -44.7494 H         1 UNK         0.0454 
     81 H81        21.0859  -21.9442  -45.2040 H         1 UNK         0.0851 
     82 H82        21.4149  -23.5154  -45.9191 H         1 UNK         0.0851 
     83 H83        20.2743  -22.4109  -46.6866 H         1 UNK         0.0851 
     84 H84        19.4512  -24.9220  -46.3644 H         1 UNK         0.2976 
     85 H85        22.3284  -25.0752  -43.7308 H         1 UNK         0.3116 
     86 H86        24.6413  -24.9124  -42.0091 H         1 UNK         0.0646 
     87 H87        25.8758  -24.6916  -44.1648 H         1 UNK         0.0847 
     88 H88        24.4797  -23.6286  -44.1360 H         1 UNK         0.0847 
     89 H89        24.4310  -25.1278  -45.0650 H         1 UNK         0.0847 
     90 H90        23.1088  -27.4775  -43.8567 H         1 UNK         0.3040 
     91 H91        25.3145  -29.3970  -43.5189 H         1 UNK         0.1015 
     92 H92        24.0134  -29.3001  -45.6545 H         1 UNK         0.0786 
     93 H93        22.5280  -29.6763  -44.7807 H         1 UNK         0.0786 
     94 H94        23.8244  -30.8594  -44.8743 H         1 UNK         0.0786 
     95 H95        22.9692  -28.3045  -41.4076 H         1 UNK         0.3172 
     96 H96        21.5520  -30.5942  -40.6409 H         1 UNK         0.0595 
     97 H97        20.8029  -28.2950  -40.1631 H         1 UNK         0.0839 
     98 H98        22.1278  -28.0663  -39.0180 H         1 UNK         0.0839 
     99 H99        20.8535  -29.2317  -38.6854 H         1 UNK         0.0839 
    100 H100       24.8334  -30.0942  -39.9936 H         1 UNK         0.2998 
    101 H101       25.0871  -31.5830  -37.5233 H         1 UNK         0.0822 
    102 H102       27.4835  -31.7382  -38.2159 H         1 UNK         0.0787 
    103 H103       27.0884  -31.0781  -39.7968 H         1 UNK         0.0787 
    104 H104       26.8991  -30.0879  -38.3485 H         1 UNK         0.0787 
    105 H105       24.6237  -32.4381  -40.9088 H         1 UNK         0.3055 
    106 H106       24.7146  -35.3578  -40.2214 H         1 UNK         0.1106 
    107 H107       25.5782  -33.9972  -42.8342 H         1 UNK         0.0828 
    108 H108       26.6503  -34.7680  -41.6667 H         1 UNK         0.0828 
    109 H109       25.4928  -35.7345  -42.5659 H         1 UNK         0.0828 
    110 H110       23.0575  -32.7023  -41.8645 H         1 UNK         0.2931 
    111 H111       21.0749  -32.3988  -42.6757 H         1 UNK         0.0412 
    112 H112       22.2865  -34.5465  -45.6330 H         1 UNK         0.3472 
    113 H113       23.2106  -34.0266  -44.2454 H         1 UNK         0.3472 
    114 H114       20.2021  -35.0562  -41.4406 H         1 UNK         0.0970 
    115 H115       19.1150  -33.9656  -42.2303 H         1 UNK         0.0970 
    116 H116       17.7889  -32.1857  -39.3357 H         1 UNK         0.0612 
    117 H117       17.5570  -32.9703  -40.8682 H         1 UNK         0.0612 
@<TRIPOS>BOND
     1    1    2 1    
     2    1   62 1    
     3    1   63 1    
     4    1   64 1    
     5    2    3 2    
     6    2    4 am   BACKBONE|DICT|INTERRES
     7    4    5 1    
     8    4   65 1    
     9    5    6 1    
    10    5   25 1    
    11    5   66 1    
    12    6    7 1    
    13    6   67 1    
    14    6   68 1    
    15    7    8 1    
    16    8    9 1    
    17    8   69 1    
    18    8   70 1    
    19    9   10 ar   
    20    9   14 ar   
    21   10   11 ar   
    22   10   71 1    
    23   11   12 ar   
    24   11   61 1    
    25   12   13 ar   
    26   12   72 1    
    27   13   14 ar   
    28   13   15 1    
    29   14   73 1    
    30   15   16 1    
    31   15   74 1    
    32   15   75 1    
    33   16   17 1    
    34   17   18 1    
    35   17   76 1    
    36   17   77 1    
    37   18   19 1    
    38   18   27 1    
    39   18   78 1    
    40   19   20 am   BACKBONE|DICT|INTERRES
    41   19   79 1    
    42   20   21 2    
    43   20   22 1    
    44   22   23 1    
    45   22   24 1    
    46   22   80 1    
    47   23   81 1    
    48   23   82 1    
    49   23   83 1    
    50   24   25 am   BACKBONE|DICT|INTERRES
    51   24   84 1    
    52   25   26 2    
    53   27   28 2    
    54   27   29 am   BACKBONE|DICT|INTERRES
    55   29   30 1    
    56   29   85 1    
    57   30   31 1    
    58   30   32 1    
    59   30   86 1    
    60   31   87 1    
    61   31   88 1    
    62   31   89 1    
    63   32   33 2    
    64   32   34 am   BACKBONE|DICT|INTERRES
    65   34   35 1    
    66   34   90 1    
    67   35   36 1    
    68   35   37 1    
    69   35   91 1    
    70   36   92 1    
    71   36   93 1    
    72   36   94 1    
    73   37   38 2    
    74   37   39 am   BACKBONE|DICT|INTERRES
    75   39   40 1    
    76   39   95 1    
    77   40   41 1    
    78   40   42 1    
    79   40   96 1    
    80   41   97 1    
    81   41   98 1    
    82   41   99 1    
    83   42   43 2    
    84   42   44 am   BACKBONE|DICT|INTERRES
    85   44   45 1    
    86   44  100 1    
    87   45   46 1    
    88   45   47 1    
    89   45  101 1    
    90   46  102 1    
    91   46  103 1    
    92   46  104 1    
    93   47   48 2    
    94   47   49 am   BACKBONE|DICT|INTERRES
    95   49   50 1    
    96   49  105 1    
    97   50   51 1    
    98   50   52 1    
    99   50  106 1    
   100   51  107 1    
   101   51  108 1    
   102   51  109 1    
   103   52   53 2    
   104   52   54 am   BACKBONE|DICT|INTERRES
   105   54   55 1    
   106   54  110 1    
   107   55   56 1    
   108   55   59 1    
   109   55  111 1    
   110   56   57 am   BACKBONE|DICT|INTERRES
   111   56   58 2    
   112   57  112 1    
   113   57  113 1    
   114   59   60 1    
   115   59  114 1    
   116   59  115 1    
   117   60   61 1    
   118   61  116 1    
   119   61  117 1    
@<TRIPOS>SUBSTRUCTURE
     1 UNK         1 GROUP             0       ****    0 ROOT    
