@<TRIPOS>MOLECULE
3R8
117   119    1
SMALL
USER_CHARGES


@<TRIPOS>ATOM
      1 CA         16.1161  -25.2811  -46.6777 C.3       0 UNK        -0.2013 
      2 C          16.5685  -25.4679  -48.1252 C.2       0 UNK         0.4866 
      3 O          15.9460  -24.8961  -49.0185 O.2       0 UNK        -0.5176 
      4 N          17.6135  -26.2535  -48.4332 N.am      1 UNK        -0.4884 
      5 CA         18.5396  -26.9885  -47.5558 C.3       1 UNK         0.0853 
      6 C6         17.8224  -27.9327  -46.5503 C.3       10 UNK        -0.0849 
      7 S7         18.7577  -29.4595  -46.2046 S.3       10 UNK        -0.2776 
      8 C8         17.4984  -30.4420  -45.3271 C.3       10 UNK         0.0316 
      9 C9         17.4432  -30.0977  -43.8450 C.ar      10 UNK        -0.0863 
     10 C10        18.1128  -30.9014  -42.9181 C.ar      10 UNK        -0.1009 
     11 C11        18.0623  -30.6035  -41.5535 C.ar      10 UNK        -0.0712 
     12 C12        17.3428  -29.4902  -41.1156 C.ar      10 UNK        -0.0894 
     13 C13        16.6979  -28.6582  -42.0360 C.ar      10 UNK        -0.0745 
     14 C14        16.7278  -28.9825  -43.3960 C.ar      10 UNK        -0.0972 
     15 C15        16.0068  -27.3875  -41.5622 C.3       10 UNK         0.0209 
     16 S16        17.1686  -26.2539  -40.7268 S.3       10 UNK        -0.2568 
     17 C17        18.3495  -25.8332  -42.0585 C.3       10 UNK        -0.0983 
     18 CA         19.6103  -26.7489  -42.1127 C.3       3 UNK         0.0876 
     19 N          20.2371  -26.7365  -43.4396 N.am      3 UNK        -0.4424 
     20 C          20.9145  -25.7172  -43.9937 C.2       2 UNK         0.4918 
     21 O          21.0429  -24.6039  -43.4833 O.2       2 UNK        -0.4875 
     22 CA         21.5378  -25.9887  -45.3733 C.3       2 UNK         0.0481 
     23 CB         22.8247  -26.8189  -45.2388 C.3       2 UNK        -0.1831 
     24 N          20.5901  -26.6714  -46.2561 N.am      2 UNK        -0.4498 
     25 C          19.5596  -26.0621  -46.8569 C.2       1 UNK         0.5027 
     26 O          19.3983  -24.8391  -46.8527 O.2       1 UNK        -0.4969 
     27 C          20.6553  -26.5119  -40.9930 C.2       3 UNK         0.5005 
     28 O          21.8174  -26.8853  -41.1661 O.2       3 UNK        -0.5279 
     29 N          20.2327  -25.9276  -39.8615 N.am      4 UNK        -0.4463 
     30 CA         21.0533  -25.4285  -38.7454 C.3       4 UNK         0.0283 
     31 CB         21.7818  -24.1396  -39.1812 C.3       4 UNK        -0.1875 
     32 C          22.0249  -26.4561  -38.1220 C.2       4 UNK         0.4949 
     33 O          23.0612  -26.0619  -37.5849 O.2       4 UNK        -0.5039 
     34 N          21.6797  -27.7496  -38.2125 N.am      5 UNK        -0.4663 
     35 CA         22.4857  -28.9110  -37.8106 C.3       5 UNK         0.0242 
     36 CB         22.6762  -28.9500  -36.2786 C.3       5 UNK        -0.1982 
     37 C          23.8151  -29.0458  -38.5880 C.2       5 UNK         0.5017 
     38 O          24.7837  -29.5834  -38.0462 O.2       5 UNK        -0.5012 
     39 N          23.8425  -28.5685  -39.8421 N.am      6 UNK        -0.4439 
     40 CA         24.9572  -28.7254  -40.7816 C.3       6 UNK         0.0297 
     41 CB         24.7559  -27.7457  -41.9522 C.3       6 UNK        -0.2006 
     42 C          25.0892  -30.1730  -41.2951 C.2       6 UNK         0.4892 
     43 O          24.2603  -31.0279  -40.9768 O.2       6 UNK        -0.5089 
     44 N          26.1145  -30.4149  -42.1260 N.am      7 UNK        -0.4243 
     45 CA         26.4410  -31.7128  -42.7369 C.3       7 UNK         0.0196 
     46 CB         27.6870  -31.5539  -43.6229 C.3       7 UNK        -0.2007 
     47 C          25.2972  -32.3695  -43.5360 C.2       7 UNK         0.5020 
     48 O          25.2624  -33.5962  -43.6359 O.2       7 UNK        -0.5147 
     49 N          24.3573  -31.5582  -44.0440 N.am      8 UNK        -0.4734 
     50 CA         23.1093  -31.9997  -44.6787 C.3       8 UNK         0.0238 
     51 CB         22.3540  -30.7725  -45.2151 C.3       8 UNK        -0.1912 
     52 C          22.1898  -32.8174  -43.7495 C.2       8 UNK         0.5038 
     53 O          21.3972  -33.6169  -44.2492 O.2       8 UNK        -0.5046 
     54 N          22.3157  -32.6149  -42.4313 N.am      9 UNK        -0.4200 
     55 CA         21.6096  -33.3731  -41.3899 C.3       9 UNK         0.0839 
     56 C          22.2737  -34.7387  -41.0479 C.2       9 UNK         0.5513 
     57 N          23.4174  -35.0976  -41.6217 N.am      9 UNK        -0.7519 
     58 O          21.7308  -35.4982  -40.2497 O.2       9 UNK        -0.4960 
     59 C59        21.3742  -32.5223  -40.1108 C.3       10 UNK        -0.0876 
     60 S60        20.5502  -30.9322  -40.4597 S.3       10 UNK        -0.2414 
     61 C61        18.8170  -31.4673  -40.5608 C.3       10 UNK         0.0169 
     62 H62        15.4832  -24.3978  -46.5939 H         1 UNK         0.0903 
     63 H63        15.5301  -26.1381  -46.3481 H         1 UNK         0.0903 
     64 H64        16.9508  -25.1404  -45.9945 H         1 UNK         0.0903 
     65 H65        17.8588  -26.3127  -49.4122 H         1 UNK         0.3096 
     66 H66        19.1198  -27.6043  -48.2459 H         1 UNK         0.1121 
     67 H67        16.8549  -28.2365  -46.9532 H         1 UNK         0.0849 
     68 H68        17.6164  -27.4231  -45.6088 H         1 UNK         0.0849 
     69 H69        16.5180  -30.3013  -45.7845 H         1 UNK         0.0865 
     70 H70        17.7361  -31.4994  -45.4543 H         1 UNK         0.0865 
     71 H71        18.6831  -31.7563  -43.2567 H         1 UNK         0.1346 
     72 H72        17.3214  -29.2436  -40.0627 H         1 UNK         0.1412 
     73 H73        16.2078  -28.3557  -44.1062 H         1 UNK         0.1426 
     74 H74        15.2099  -27.6542  -40.8667 H         1 UNK         0.0716 
     75 H75        15.5306  -26.8636  -42.3925 H         1 UNK         0.0716 
     76 H76        18.6382  -24.7854  -41.9569 H         1 UNK         0.0695 
     77 H77        17.8101  -25.8928  -43.0055 H         1 UNK         0.0695 
     78 H78        19.2912  -27.7806  -41.9759 H         1 UNK         0.0983 
     79 H79        20.2048  -27.6136  -43.9366 H         1 UNK         0.3095 
     80 H80        21.8068  -25.0290  -45.8203 H         1 UNK         0.0454 
     81 H81        22.6381  -27.7909  -44.7840 H         1 UNK         0.0851 
     82 H82        23.5531  -26.3030  -44.6116 H         1 UNK         0.0851 
     83 H83        23.2939  -26.9853  -46.2085 H         1 UNK         0.0851 
     84 H84        20.6513  -27.6792  -46.3116 H         1 UNK         0.2976 
     85 H85        19.2413  -25.7254  -39.8007 H         1 UNK         0.3116 
     86 H86        20.3542  -25.1607  -37.9519 H         1 UNK         0.0646 
     87 H87        22.5342  -24.3443  -39.9441 H         1 UNK         0.0847 
     88 H88        22.2897  -23.6665  -38.3398 H         1 UNK         0.0847 
     89 H89        21.0850  -23.4066  -39.5875 H         1 UNK         0.0847 
     90 H90        20.8145  -27.9629  -38.6892 H         1 UNK         0.3040 
     91 H91        21.9021  -29.7914  -38.0816 H         1 UNK         0.1015 
     92 H92        23.3225  -28.1447  -35.9287 H         1 UNK         0.0786 
     93 H93        23.1324  -29.8899  -35.9653 H         1 UNK         0.0786 
     94 H94        21.7225  -28.8665  -35.7576 H         1 UNK         0.0786 
     95 H95        23.0113  -28.1116  -40.2093 H         1 UNK         0.3172 
     96 H96        25.8817  -28.4654  -40.2624 H         1 UNK         0.0595 
     97 H97        25.6137  -27.7351  -42.6250 H         1 UNK         0.0839 
     98 H98        24.6210  -26.7246  -41.5945 H         1 UNK         0.0839 
     99 H99        23.8776  -28.0065  -42.5438 H         1 UNK         0.0839 
    100 H100       26.7443  -29.6547  -42.3393 H         1 UNK         0.2998 
    101 H101       26.6869  -32.3956  -41.9210 H         1 UNK         0.0822 
    102 H102       27.9723  -32.5070  -44.0710 H         1 UNK         0.0787 
    103 H103       27.5153  -30.8494  -44.4378 H         1 UNK         0.0787 
    104 H104       28.5431  -31.2015  -43.0470 H         1 UNK         0.0787 
    105 H105       24.4722  -30.5648  -43.9088 H         1 UNK         0.3055 
    106 H106       23.3746  -32.6426  -45.5209 H         1 UNK         0.1106 
    107 H107       21.4537  -31.0759  -45.7517 H         1 UNK         0.0828 
    108 H108       22.0394  -30.1113  -44.4067 H         1 UNK         0.0828 
    109 H109       22.9648  -30.1972  -45.9108 H         1 UNK         0.0828 
    110 H110       23.0071  -31.9534  -42.0888 H         1 UNK         0.2931 
    111 H111       20.6251  -33.6281  -41.7853 H         1 UNK         0.0412 
    112 H112       23.8801  -34.4938  -42.2899 H         1 UNK         0.3472 
    113 H113       23.8249  -35.9891  -41.3880 H         1 UNK         0.3472 
    114 H114       22.3252  -32.3076  -39.6202 H         1 UNK         0.0970 
    115 H115       20.7776  -33.0733  -39.3813 H         1 UNK         0.0970 
    116 H116       18.7550  -32.5110  -40.8708 H         1 UNK         0.0612 
    117 H117       18.3630  -31.4114  -39.5703 H         1 UNK         0.0612 
@<TRIPOS>BOND
     1    1    2 1    
     2    1   62 1    
     3    1   63 1    
     4    1   64 1    
     5    2    3 2    
     6    2    4 am   BACKBONE|DICT|INTERRES
     7    4    5 1    
     8    4   65 1    
     9    5    6 1    
    10    5   25 1    
    11    5   66 1    
    12    6    7 1    
    13    6   67 1    
    14    6   68 1    
    15    7    8 1    
    16    8    9 1    
    17    8   69 1    
    18    8   70 1    
    19    9   10 ar   
    20    9   14 ar   
    21   10   11 ar   
    22   10   71 1    
    23   11   12 ar   
    24   11   61 1    
    25   12   13 ar   
    26   12   72 1    
    27   13   14 ar   
    28   13   15 1    
    29   14   73 1    
    30   15   16 1    
    31   15   74 1    
    32   15   75 1    
    33   16   17 1    
    34   17   18 1    
    35   17   76 1    
    36   17   77 1    
    37   18   19 1    
    38   18   27 1    
    39   18   78 1    
    40   19   20 am   BACKBONE|DICT|INTERRES
    41   19   79 1    
    42   20   21 2    
    43   20   22 1    
    44   22   23 1    
    45   22   24 1    
    46   22   80 1    
    47   23   81 1    
    48   23   82 1    
    49   23   83 1    
    50   24   25 am   BACKBONE|DICT|INTERRES
    51   24   84 1    
    52   25   26 2    
    53   27   28 2    
    54   27   29 am   BACKBONE|DICT|INTERRES
    55   29   30 1    
    56   29   85 1    
    57   30   31 1    
    58   30   32 1    
    59   30   86 1    
    60   31   87 1    
    61   31   88 1    
    62   31   89 1    
    63   32   33 2    
    64   32   34 am   BACKBONE|DICT|INTERRES
    65   34   35 1    
    66   34   90 1    
    67   35   36 1    
    68   35   37 1    
    69   35   91 1    
    70   36   92 1    
    71   36   93 1    
    72   36   94 1    
    73   37   38 2    
    74   37   39 am   BACKBONE|DICT|INTERRES
    75   39   40 1    
    76   39   95 1    
    77   40   41 1    
    78   40   42 1    
    79   40   96 1    
    80   41   97 1    
    81   41   98 1    
    82   41   99 1    
    83   42   43 2    
    84   42   44 am   BACKBONE|DICT|INTERRES
    85   44   45 1    
    86   44  100 1    
    87   45   46 1    
    88   45   47 1    
    89   45  101 1    
    90   46  102 1    
    91   46  103 1    
    92   46  104 1    
    93   47   48 2    
    94   47   49 am   BACKBONE|DICT|INTERRES
    95   49   50 1    
    96   49  105 1    
    97   50   51 1    
    98   50   52 1    
    99   50  106 1    
   100   51  107 1    
   101   51  108 1    
   102   51  109 1    
   103   52   53 2    
   104   52   54 am   BACKBONE|DICT|INTERRES
   105   54   55 1    
   106   54  110 1    
   107   55   56 1    
   108   55   59 1    
   109   55  111 1    
   110   56   57 am   BACKBONE|DICT|INTERRES
   111   56   58 2    
   112   57  112 1    
   113   57  113 1    
   114   59   60 1    
   115   59  114 1    
   116   59  115 1    
   117   60   61 1    
   118   61  116 1    
   119   61  117 1    
@<TRIPOS>SUBSTRUCTURE
     1 UNK         1 GROUP             0       ****    0 ROOT    
