@<TRIPOS>MOLECULE
3R8
117   119    1
SMALL
USER_CHARGES


@<TRIPOS>ATOM
      1 CA         16.8963  -23.3014  -47.9990 C.3       0 UNK        -0.2013 
      2 C          16.6657  -23.1435  -46.4983 C.2       0 UNK         0.4866 
      3 O          16.0776  -22.1485  -46.0786 O.2       0 UNK        -0.5176 
      4 N          17.1103  -24.0804  -45.6533 N.am      1 UNK        -0.4884 
      5 CA         17.8666  -25.2886  -45.9813 C.3       1 UNK         0.0853 
      6 C6         16.9465  -26.4522  -46.4352 C.3       10 UNK        -0.0849 
      7 S7         17.7800  -27.5780  -47.6091 S.3       10 UNK        -0.2776 
      8 C8         16.7182  -29.0592  -47.5444 C.3       10 UNK         0.0316 
      9 C9         16.9733  -29.8761  -46.2864 C.ar      10 UNK        -0.0863 
     10 C10        17.9255  -30.8989  -46.2809 C.ar      10 UNK        -0.1009 
     11 C11        18.1731  -31.6304  -45.1147 C.ar      10 UNK        -0.0712 
     12 C12        17.4901  -31.3053  -43.9363 C.ar      10 UNK        -0.0894 
     13 C13        16.5349  -30.2841  -43.9319 C.ar      10 UNK        -0.0745 
     14 C14        16.2542  -29.6076  -45.1215 C.ar      10 UNK        -0.0972 
     15 C15        15.7865  -29.9115  -42.6584 C.3       10 UNK         0.0209 
     16 S16        15.8653  -28.1152  -42.3413 S.3       10 UNK        -0.2568 
     17 C17        16.9654  -28.0017  -40.8960 C.3       10 UNK        -0.0983 
     18 CA         18.4504  -28.3682  -41.1562 C.3       3 UNK         0.0876 
     19 N          19.0262  -27.6716  -42.3141 N.am      3 UNK        -0.4424 
     20 C          20.2704  -27.8395  -42.7844 C.2       2 UNK         0.4918 
     21 O          21.0895  -28.5980  -42.2607 O.2       2 UNK        -0.4875 
     22 CA         20.6993  -27.0429  -44.0379 C.3       2 UNK         0.0481 
     23 CB         21.7596  -27.8021  -44.8587 C.3       2 UNK        -0.1831 
     24 N          19.6190  -26.6516  -44.9495 N.am      2 UNK        -0.4498 
     25 C          18.7436  -25.6572  -44.7675 C.2       1 UNK         0.5027 
     26 O          18.6226  -25.0418  -43.7046 O.2       1 UNK        -0.4969 
     27 C          19.2798  -28.1067  -39.8806 C.2       3 UNK         0.5005 
     28 O          19.2675  -26.9821  -39.3738 O.2       3 UNK        -0.5279 
     29 N          20.0000  -29.1354  -39.4098 N.am      4 UNK        -0.4463 
     30 CA         20.9182  -29.1242  -38.2634 C.3       4 UNK         0.0283 
     31 CB         20.1420  -28.9336  -36.9429 C.3       4 UNK        -0.1875 
     32 C          22.0985  -28.1373  -38.4070 C.2       4 UNK         0.4949 
     33 O          22.6535  -27.7018  -37.3963 O.2       4 UNK        -0.5039 
     34 N          22.4741  -27.8084  -39.6513 N.am      5 UNK        -0.4663 
     35 CA         23.6355  -26.9789  -39.9827 C.3       5 UNK         0.0242 
     36 CB         23.4190  -26.3732  -41.3817 C.3       5 UNK        -0.1982 
     37 C          24.9426  -27.7915  -39.9183 C.2       5 UNK         0.5017 
     38 O          24.9176  -28.9849  -39.6087 O.2       5 UNK        -0.5012 
     39 N          26.0669  -27.1483  -40.2673 N.am      6 UNK        -0.4439 
     40 CA         27.4113  -27.7446  -40.3261 C.3       6 UNK         0.0297 
     41 CB         28.4299  -26.6556  -40.7007 C.3       6 UNK        -0.2006 
     42 C          27.5467  -28.9546  -41.2757 C.2       6 UNK         0.4892 
     43 O          28.4542  -29.7658  -41.0907 O.2       6 UNK        -0.5089 
     44 N          26.6314  -29.0709  -42.2486 N.am      7 UNK        -0.4243 
     45 CA         26.4695  -30.2308  -43.1292 C.3       7 UNK         0.0196 
     46 CB         25.5659  -29.8292  -44.3077 C.3       7 UNK        -0.2007 
     47 C          25.8942  -31.4762  -42.4217 C.2       7 UNK         0.5020 
     48 O          25.9580  -32.5623  -42.9974 O.2       7 UNK        -0.5147 
     49 N          25.3273  -31.3027  -41.2157 N.am      8 UNK        -0.4734 
     50 CA         24.6657  -32.3125  -40.3778 C.3       8 UNK         0.0238 
     51 CB         25.6677  -33.3907  -39.9117 C.3       8 UNK        -0.1912 
     52 C          23.3975  -32.9043  -41.0245 C.2       8 UNK         0.5038 
     53 O          23.0830  -34.0747  -40.8001 O.2       8 UNK        -0.5046 
     54 N          22.6964  -32.0845  -41.8185 N.am      9 UNK        -0.4200 
     55 CA         21.4483  -32.4396  -42.5019 C.3       9 UNK         0.0839 
     56 C          20.2723  -32.5471  -41.4954 C.2       9 UNK         0.5513 
     57 N          19.5582  -33.6632  -41.4756 N.am      9 UNK        -0.7519 
     58 O          19.9819  -31.6055  -40.7608 O.2       9 UNK        -0.4960 
     59 C59        21.1328  -31.4380  -43.6509 C.3       10 UNK        -0.0876 
     60 S60        20.8880  -32.2552  -45.2587 S.3       10 UNK        -0.2414 
     61 C61        19.1540  -32.7938  -45.1421 C.3       10 UNK         0.0169 
     62 H62        16.6376  -24.2997  -48.3480 H         1 UNK         0.0903 
     63 H63        16.2828  -22.5923  -48.5546 H         1 UNK         0.0903 
     64 H64        17.9391  -23.1047  -48.2460 H         1 UNK         0.0903 
     65 H65        17.0195  -23.9326  -44.6547 H         1 UNK         0.3096 
     66 H66        18.5624  -25.0364  -46.7847 H         1 UNK         0.1121 
     67 H67        16.0568  -26.0729  -46.9392 H         1 UNK         0.0849 
     68 H68        16.5730  -26.9933  -45.5683 H         1 UNK         0.0849 
     69 H69        15.6690  -28.7656  -47.6065 H         1 UNK         0.0865 
     70 H70        16.9133  -29.6706  -48.4268 H         1 UNK         0.0865 
     71 H71        18.4720  -31.1317  -47.1849 H         1 UNK         0.1346 
     72 H72        17.6909  -31.8569  -43.0282 H         1 UNK         0.1412 
     73 H73        15.4885  -28.8447  -45.1269 H         1 UNK         0.1426 
     74 H74        16.1702  -30.4634  -41.7991 H         1 UNK         0.0716 
     75 H75        14.7411  -30.2022  -42.7701 H         1 UNK         0.0716 
     76 H76        16.5535  -28.6309  -40.1045 H         1 UNK         0.0695 
     77 H77        16.8854  -26.9750  -40.5327 H         1 UNK         0.0695 
     78 H78        18.4933  -29.4348  -41.3840 H         1 UNK         0.0983 
     79 H79        18.4390  -26.9774  -42.7564 H         1 UNK         0.3095 
     80 H80        21.1662  -26.1279  -43.6686 H         1 UNK         0.0454 
     81 H81        21.3641  -28.7382  -45.2550 H         1 UNK         0.0851 
     82 H82        22.6342  -28.0464  -44.2562 H         1 UNK         0.0851 
     83 H83        22.1140  -27.2057  -45.6994 H         1 UNK         0.0851 
     84 H84        19.5806  -27.1514  -45.8284 H         1 UNK         0.2976 
     85 H85        19.9727  -30.0153  -39.9277 H         1 UNK         0.3116 
     86 H86        21.3679  -30.1179  -38.2379 H         1 UNK         0.0646 
     87 H87        19.7164  -27.9328  -36.8647 H         1 UNK         0.0847 
     88 H88        20.7938  -29.0766  -36.0802 H         1 UNK         0.0847 
     89 H89        19.3282  -29.6530  -36.8530 H         1 UNK         0.0847 
     90 H90        21.9727  -28.2194  -40.4320 H         1 UNK         0.3040 
     91 H91        23.7086  -26.1669  -39.2556 H         1 UNK         0.1015 
     92 H92        22.4590  -25.8602  -41.4434 H         1 UNK         0.0786 
     93 H93        23.4402  -27.1381  -42.1581 H         1 UNK         0.0786 
     94 H94        24.1851  -25.6369  -41.6260 H         1 UNK         0.0786 
     95 H95        26.0040  -26.1694  -40.5092 H         1 UNK         0.3172 
     96 H96        27.6491  -28.1015  -39.3219 H         1 UNK         0.0595 
     97 H97        28.2270  -26.2338  -41.6859 H         1 UNK         0.0839 
     98 H98        29.4433  -27.0594  -40.7228 H         1 UNK         0.0839 
     99 H99        28.4266  -25.8403  -39.9770 H         1 UNK         0.0839 
    100 H100       25.9399  -28.3409  -42.3313 H         1 UNK         0.2998 
    101 H101       27.4518  -30.5025  -43.5216 H         1 UNK         0.0822 
    102 H102       25.9804  -28.9848  -44.8587 H         1 UNK         0.0787 
    103 H103       25.4572  -30.6526  -45.0153 H         1 UNK         0.0787 
    104 H104       24.5648  -29.5558  -43.9729 H         1 UNK         0.0787 
    105 H105       25.3243  -30.3670  -40.8146 H         1 UNK         0.3055 
    106 H106       24.3212  -31.7833  -39.4875 H         1 UNK         0.1106 
    107 H107       25.2162  -34.0495  -39.1689 H         1 UNK         0.0828 
    108 H108       26.0038  -34.0176  -40.7380 H         1 UNK         0.0828 
    109 H109       26.5476  -32.9413  -39.4514 H         1 UNK         0.0828 
    110 H110       23.0054  -31.1293  -41.9137 H         1 UNK         0.2931 
    111 H111       21.6114  -33.4289  -42.9352 H         1 UNK         0.0412 
    112 H112       18.7900  -33.7414  -40.8279 H         1 UNK         0.3472 
    113 H113       19.8015  -34.4472  -42.0607 H         1 UNK         0.3472 
    114 H114       20.2687  -30.8082  -43.4348 H         1 UNK         0.0970 
    115 H115       21.9565  -30.7367  -43.7902 H         1 UNK         0.0970 
    116 H116       19.0289  -33.4289  -44.2650 H         1 UNK         0.0612 
    117 H117       18.9300  -33.4249  -46.0033 H         1 UNK         0.0612 
@<TRIPOS>BOND
     1    1    2 1    
     2    1   62 1    
     3    1   63 1    
     4    1   64 1    
     5    2    3 2    
     6    2    4 am   BACKBONE|DICT|INTERRES
     7    4    5 1    
     8    4   65 1    
     9    5    6 1    
    10    5   25 1    
    11    5   66 1    
    12    6    7 1    
    13    6   67 1    
    14    6   68 1    
    15    7    8 1    
    16    8    9 1    
    17    8   69 1    
    18    8   70 1    
    19    9   10 ar   
    20    9   14 ar   
    21   10   11 ar   
    22   10   71 1    
    23   11   12 ar   
    24   11   61 1    
    25   12   13 ar   
    26   12   72 1    
    27   13   14 ar   
    28   13   15 1    
    29   14   73 1    
    30   15   16 1    
    31   15   74 1    
    32   15   75 1    
    33   16   17 1    
    34   17   18 1    
    35   17   76 1    
    36   17   77 1    
    37   18   19 1    
    38   18   27 1    
    39   18   78 1    
    40   19   20 am   BACKBONE|DICT|INTERRES
    41   19   79 1    
    42   20   21 2    
    43   20   22 1    
    44   22   23 1    
    45   22   24 1    
    46   22   80 1    
    47   23   81 1    
    48   23   82 1    
    49   23   83 1    
    50   24   25 am   BACKBONE|DICT|INTERRES
    51   24   84 1    
    52   25   26 2    
    53   27   28 2    
    54   27   29 am   BACKBONE|DICT|INTERRES
    55   29   30 1    
    56   29   85 1    
    57   30   31 1    
    58   30   32 1    
    59   30   86 1    
    60   31   87 1    
    61   31   88 1    
    62   31   89 1    
    63   32   33 2    
    64   32   34 am   BACKBONE|DICT|INTERRES
    65   34   35 1    
    66   34   90 1    
    67   35   36 1    
    68   35   37 1    
    69   35   91 1    
    70   36   92 1    
    71   36   93 1    
    72   36   94 1    
    73   37   38 2    
    74   37   39 am   BACKBONE|DICT|INTERRES
    75   39   40 1    
    76   39   95 1    
    77   40   41 1    
    78   40   42 1    
    79   40   96 1    
    80   41   97 1    
    81   41   98 1    
    82   41   99 1    
    83   42   43 2    
    84   42   44 am   BACKBONE|DICT|INTERRES
    85   44   45 1    
    86   44  100 1    
    87   45   46 1    
    88   45   47 1    
    89   45  101 1    
    90   46  102 1    
    91   46  103 1    
    92   46  104 1    
    93   47   48 2    
    94   47   49 am   BACKBONE|DICT|INTERRES
    95   49   50 1    
    96   49  105 1    
    97   50   51 1    
    98   50   52 1    
    99   50  106 1    
   100   51  107 1    
   101   51  108 1    
   102   51  109 1    
   103   52   53 2    
   104   52   54 am   BACKBONE|DICT|INTERRES
   105   54   55 1    
   106   54  110 1    
   107   55   56 1    
   108   55   59 1    
   109   55  111 1    
   110   56   57 am   BACKBONE|DICT|INTERRES
   111   56   58 2    
   112   57  112 1    
   113   57  113 1    
   114   59   60 1    
   115   59  114 1    
   116   59  115 1    
   117   60   61 1    
   118   61  116 1    
   119   61  117 1    
@<TRIPOS>SUBSTRUCTURE
     1 UNK         1 GROUP             0       ****    0 ROOT    
