@<TRIPOS>MOLECULE
3R8
117   119    1
SMALL
USER_CHARGES


@<TRIPOS>ATOM
      1 CA         17.8247  -27.1482  -49.5011 C.3       0 UNK        -0.2013 
      2 C          18.1743  -27.5154  -48.0666 C.2       0 UNK         0.4866 
      3 O          19.1795  -28.1874  -47.8354 O.2       0 UNK        -0.5176 
      4 N          17.3474  -27.0871  -47.1047 N.am      1 UNK        -0.4884 
      5 CA         17.5438  -27.3082  -45.6680 C.3       1 UNK         0.0853 
      6 C6         16.2629  -26.9874  -44.8578 C.3       10 UNK        -0.0849 
      7 S7         14.8879  -28.1020  -45.3083 S.3       10 UNK        -0.2776 
      8 C8         14.4973  -28.9165  -43.7187 C.3       10 UNK         0.0316 
      9 C9         15.6777  -29.6244  -43.0538 C.ar      10 UNK        -0.0863 
     10 C10        16.6324  -30.3212  -43.8019 C.ar      10 UNK        -0.1009 
     11 C11        17.7137  -30.9448  -43.1741 C.ar      10 UNK        -0.0712 
     12 C12        17.8177  -30.9111  -41.7809 C.ar      10 UNK        -0.0894 
     13 C13        16.8577  -30.2395  -41.0169 C.ar      10 UNK        -0.0745 
     14 C14        15.7969  -29.5945  -41.6610 C.ar      10 UNK        -0.0972 
     15 C15        16.9449  -30.2131  -39.4941 C.3       10 UNK         0.0209 
     16 S16        18.5454  -29.6127  -38.8584 S.3       10 UNK        -0.2568 
     17 C17        18.7152  -27.9857  -39.6680 C.3       10 UNK        -0.0983 
     18 CA         20.1281  -27.8213  -40.2894 C.3       3 UNK         0.0876 
     19 N          20.0835  -27.2077  -41.6232 N.am      3 UNK        -0.4424 
     20 C          21.1338  -27.1045  -42.4496 C.2       2 UNK         0.4918 
     21 O          22.2777  -27.4375  -42.1341 O.2       2 UNK        -0.4875 
     22 CA         20.8568  -26.5504  -43.8540 C.3       2 UNK         0.0481 
     23 CB         22.0141  -26.8140  -44.8373 C.3       2 UNK        -0.1831 
     24 N          19.6241  -27.1280  -44.3878 N.am      2 UNK        -0.4498 
     25 C          18.7380  -26.4817  -45.1533 C.2       1 UNK         0.5027 
     26 O          18.8218  -25.2864  -45.4478 O.2       1 UNK        -0.4969 
     27 C          21.0872  -27.1093  -39.3099 C.2       3 UNK         0.5005 
     28 O          21.7288  -27.7711  -38.4950 O.2       3 UNK        -0.5279 
     29 N          21.1844  -25.7777  -39.4213 N.am      4 UNK        -0.4463 
     30 CA         22.0613  -24.9438  -38.5956 C.3       4 UNK         0.0283 
     31 CB         21.5386  -23.4977  -38.6179 C.3       4 UNK        -0.1875 
     32 C          23.5397  -24.9806  -39.0266 C.2       4 UNK         0.4949 
     33 O          24.3958  -24.5954  -38.2298 O.2       4 UNK        -0.5039 
     34 N          23.8147  -25.3987  -40.2699 N.am      5 UNK        -0.4663 
     35 CA         25.1468  -25.3672  -40.8766 C.3       5 UNK         0.0242 
     36 CB         25.0681  -24.6514  -42.2370 C.3       5 UNK        -0.1982 
     37 C          25.7345  -26.7751  -41.0303 C.2       5 UNK         0.5017 
     38 O          26.8265  -27.0326  -40.5227 O.2       5 UNK        -0.5012 
     39 N          25.0145  -27.6494  -41.7434 N.am      6 UNK        -0.4439 
     40 CA         25.4436  -29.0071  -42.0757 C.3       6 UNK         0.0297 
     41 CB         24.9248  -29.3675  -43.4784 C.3       6 UNK        -0.2006 
     42 C          24.9590  -30.0365  -41.0459 C.2       6 UNK         0.4892 
     43 O          25.6863  -30.9922  -40.7766 O.2       6 UNK        -0.5089 
     44 N          23.7412  -29.8350  -40.5132 N.am      7 UNK        -0.4243 
     45 CA         23.0495  -30.6975  -39.5384 C.3       7 UNK         0.0196 
     46 CB         23.7593  -30.6410  -38.1688 C.3       7 UNK        -0.2007 
     47 C          22.8245  -32.1436  -40.0331 C.2       7 UNK         0.5020 
     48 O          22.8108  -33.0763  -39.2284 O.2       7 UNK        -0.5147 
     49 N          22.6514  -32.2991  -41.3510 N.am      8 UNK        -0.4734 
     50 CA         22.5017  -33.5714  -42.0660 C.3       8 UNK         0.0238 
     51 CB         23.7884  -34.4185  -41.9763 C.3       8 UNK        -0.1912 
     52 C          22.1401  -33.3301  -43.5376 C.2       8 UNK         0.5038 
     53 O          21.4201  -34.1415  -44.1187 O.2       8 UNK        -0.5046 
     54 N          22.6359  -32.2171  -44.0998 N.am      9 UNK        -0.4200 
     55 CA         22.4031  -31.7470  -45.4781 C.3       9 UNK         0.0839 
     56 C          23.1382  -32.5736  -46.5770 C.2       9 UNK         0.5513 
     57 N          24.0946  -33.4288  -46.2351 N.am      9 UNK        -0.7519 
     58 O          22.8617  -32.4169  -47.7635 O.2       9 UNK        -0.4960 
     59 C59        20.9021  -31.5135  -45.8198 C.3       10 UNK        -0.0876 
     60 S60        20.0203  -30.4766  -44.6017 S.3       10 UNK        -0.2414 
     61 C61        18.7647  -31.6521  -44.0099 C.3       10 UNK         0.0169 
     62 H62        16.9054  -26.5658  -49.5612 H         1 UNK         0.0903 
     63 H63        18.6283  -26.5603  -49.9438 H         1 UNK         0.0903 
     64 H64        17.6938  -28.0505  -50.0978 H         1 UNK         0.0903 
     65 H65        16.5393  -26.5339  -47.3516 H         1 UNK         0.3096 
     66 H66        17.7831  -28.3648  -45.5323 H         1 UNK         0.1121 
     67 H67        16.4547  -27.0657  -43.7859 H         1 UNK         0.0849 
     68 H68        15.9448  -25.9572  -45.0299 H         1 UNK         0.0849 
     69 H69        14.0806  -28.1636  -43.0476 H         1 UNK         0.0865 
     70 H70        13.7057  -29.6476  -43.8872 H         1 UNK         0.0865 
     71 H71        16.5459  -30.3677  -44.8788 H         1 UNK         0.1346 
     72 H72        18.6469  -31.4022  -41.2902 H         1 UNK         0.1412 
     73 H73        15.0542  -29.0720  -41.0731 H         1 UNK         0.1426 
     74 H74        16.1546  -29.5906  -39.0716 H         1 UNK         0.0716 
     75 H75        16.7746  -31.2218  -39.1159 H         1 UNK         0.0716 
     76 H76        17.9472  -27.8904  -40.4355 H         1 UNK         0.0695 
     77 H77        18.4849  -27.2027  -38.9424 H         1 UNK         0.0695 
     78 H78        20.5486  -28.8139  -40.4618 H         1 UNK         0.0983 
     79 H79        19.1798  -26.9022  -41.9526 H         1 UNK         0.3095 
     80 H80        20.7420  -25.4712  -43.7371 H         1 UNK         0.0454 
     81 H81        22.1885  -27.8821  -44.9731 H         1 UNK         0.0851 
     82 H82        21.8060  -26.3844  -45.8172 H         1 UNK         0.0851 
     83 H83        22.9456  -26.3714  -44.4842 H         1 UNK         0.0851 
     84 H84        19.4916  -28.1162  -44.2060 H         1 UNK         0.2976 
     85 H85        20.6200  -25.3076  -40.1146 H         1 UNK         0.3116 
     86 H86        22.0138  -25.3032  -37.5651 H         1 UNK         0.0646 
     87 H87        22.1471  -22.8528  -37.9821 H         1 UNK         0.0847 
     88 H88        20.5150  -23.4385  -38.2477 H         1 UNK         0.0847 
     89 H89        21.5593  -23.0747  -39.6230 H         1 UNK         0.0847 
     90 H90        23.0592  -25.7611  -40.8350 H         1 UNK         0.3040 
     91 H91        25.8380  -24.7984  -40.2501 H         1 UNK         0.1015 
     92 H92        24.7584  -23.6131  -42.1162 H         1 UNK         0.0786 
     93 H93        24.3614  -25.1311  -42.9143 H         1 UNK         0.0786 
     94 H94        26.0406  -24.6423  -42.7312 H         1 UNK         0.0786 
     95 H95        24.0871  -27.3810  -42.0630 H         1 UNK         0.3172 
     96 H96        26.5348  -29.0486  -42.1030 H         1 UNK         0.0595 
     97 H97        25.2477  -30.3679  -43.7696 H         1 UNK         0.0839 
     98 H98        25.3090  -28.6764  -44.2289 H         1 UNK         0.0839 
     99 H99        23.8358  -29.3390  -43.5300 H         1 UNK         0.0839 
    100 H100       23.2343  -29.0108  -40.8105 H         1 UNK         0.2998 
    101 H101       22.0528  -30.2790  -39.4025 H         1 UNK         0.0822 
    102 H102       23.8824  -29.6116  -37.8317 H         1 UNK         0.0787 
    103 H103       23.1803  -31.1615  -37.4051 H         1 UNK         0.0787 
    104 H104       24.7455  -31.1046  -38.2036 H         1 UNK         0.0787 
    105 H105       22.5753  -31.4631  -41.9109 H         1 UNK         0.3055 
    106 H106       21.6776  -34.1257  -41.6114 H         1 UNK         0.1106 
    107 H107       23.7068  -35.3223  -42.5820 H         1 UNK         0.0828 
    108 H108       24.6606  -33.8654  -42.3268 H         1 UNK         0.0828 
    109 H109       23.9887  -34.7409  -40.9548 H         1 UNK         0.0828 
    110 H110       23.2932  -31.6686  -43.5703 H         1 UNK         0.2931 
    111 H111       22.8822  -30.7680  -45.5169 H         1 UNK         0.0412 
    112 H112       24.5699  -33.9493  -46.9559 H         1 UNK         0.3472 
    113 H113       24.3399  -33.5674  -45.2686 H         1 UNK         0.3472 
    114 H114       20.3894  -32.4693  -45.9377 H         1 UNK         0.0970 
    115 H115       20.8121  -31.0126  -46.7856 H         1 UNK         0.0970 
    116 H116       19.2457  -32.4412  -43.4309 H         1 UNK         0.0612 
    117 H117       18.2857  -32.1379  -44.8614 H         1 UNK         0.0612 
@<TRIPOS>BOND
     1    1    2 1    
     2    1   62 1    
     3    1   63 1    
     4    1   64 1    
     5    2    3 2    
     6    2    4 am   BACKBONE|DICT|INTERRES
     7    4    5 1    
     8    4   65 1    
     9    5    6 1    
    10    5   25 1    
    11    5   66 1    
    12    6    7 1    
    13    6   67 1    
    14    6   68 1    
    15    7    8 1    
    16    8    9 1    
    17    8   69 1    
    18    8   70 1    
    19    9   10 ar   
    20    9   14 ar   
    21   10   11 ar   
    22   10   71 1    
    23   11   12 ar   
    24   11   61 1    
    25   12   13 ar   
    26   12   72 1    
    27   13   14 ar   
    28   13   15 1    
    29   14   73 1    
    30   15   16 1    
    31   15   74 1    
    32   15   75 1    
    33   16   17 1    
    34   17   18 1    
    35   17   76 1    
    36   17   77 1    
    37   18   19 1    
    38   18   27 1    
    39   18   78 1    
    40   19   20 am   BACKBONE|DICT|INTERRES
    41   19   79 1    
    42   20   21 2    
    43   20   22 1    
    44   22   23 1    
    45   22   24 1    
    46   22   80 1    
    47   23   81 1    
    48   23   82 1    
    49   23   83 1    
    50   24   25 am   BACKBONE|DICT|INTERRES
    51   24   84 1    
    52   25   26 2    
    53   27   28 2    
    54   27   29 am   BACKBONE|DICT|INTERRES
    55   29   30 1    
    56   29   85 1    
    57   30   31 1    
    58   30   32 1    
    59   30   86 1    
    60   31   87 1    
    61   31   88 1    
    62   31   89 1    
    63   32   33 2    
    64   32   34 am   BACKBONE|DICT|INTERRES
    65   34   35 1    
    66   34   90 1    
    67   35   36 1    
    68   35   37 1    
    69   35   91 1    
    70   36   92 1    
    71   36   93 1    
    72   36   94 1    
    73   37   38 2    
    74   37   39 am   BACKBONE|DICT|INTERRES
    75   39   40 1    
    76   39   95 1    
    77   40   41 1    
    78   40   42 1    
    79   40   96 1    
    80   41   97 1    
    81   41   98 1    
    82   41   99 1    
    83   42   43 2    
    84   42   44 am   BACKBONE|DICT|INTERRES
    85   44   45 1    
    86   44  100 1    
    87   45   46 1    
    88   45   47 1    
    89   45  101 1    
    90   46  102 1    
    91   46  103 1    
    92   46  104 1    
    93   47   48 2    
    94   47   49 am   BACKBONE|DICT|INTERRES
    95   49   50 1    
    96   49  105 1    
    97   50   51 1    
    98   50   52 1    
    99   50  106 1    
   100   51  107 1    
   101   51  108 1    
   102   51  109 1    
   103   52   53 2    
   104   52   54 am   BACKBONE|DICT|INTERRES
   105   54   55 1    
   106   54  110 1    
   107   55   56 1    
   108   55   59 1    
   109   55  111 1    
   110   56   57 am   BACKBONE|DICT|INTERRES
   111   56   58 2    
   112   57  112 1    
   113   57  113 1    
   114   59   60 1    
   115   59  114 1    
   116   59  115 1    
   117   60   61 1    
   118   61  116 1    
   119   61  117 1    
@<TRIPOS>SUBSTRUCTURE
     1 UNK         1 GROUP             0       ****    0 ROOT    
