@<TRIPOS>MOLECULE
3R8
117   119    1
SMALL
USER_CHARGES


@<TRIPOS>ATOM
      1 CA         15.1536  -22.8994  -42.2804 C.3       0 UNK        -0.2013 
      2 C          16.1924  -23.2164  -43.3457 C.2       0 UNK         0.4866 
      3 O          16.8356  -22.3043  -43.8661 O.2       0 UNK        -0.5176 
      4 N          16.3558  -24.5016  -43.6811 N.am      1 UNK        -0.4884 
      5 CA         17.3549  -25.0088  -44.6240 C.3       1 UNK         0.0853 
      6 C6         17.0251  -26.4491  -45.1177 C.3       10 UNK        -0.0849 
      7 S7         16.4823  -27.6049  -43.8053 S.3       10 UNK        -0.2776 
      8 C8         16.0045  -29.0867  -44.7523 C.3       10 UNK         0.0316 
      9 C9         17.1672  -30.0540  -44.9394 C.ar      10 UNK        -0.0863 
     10 C10        17.3725  -31.0991  -44.0297 C.ar      10 UNK        -0.1009 
     11 C11        18.4164  -32.0117  -44.2176 C.ar      10 UNK        -0.0712 
     12 C12        19.2621  -31.8666  -45.3218 C.ar      10 UNK        -0.0894 
     13 C13        19.0680  -30.8296  -46.2379 C.ar      10 UNK        -0.0745 
     14 C14        18.0135  -29.9310  -46.0449 C.ar      10 UNK        -0.0972 
     15 C15        19.9754  -30.7085  -47.4553 C.3       10 UNK         0.0209 
     16 S16        21.5903  -29.9671  -47.0520 S.3       10 UNK        -0.2568 
     17 C17        21.1154  -28.2434  -46.6846 C.3       10 UNK        -0.0983 
     18 CA         21.8664  -27.5884  -45.4991 C.3       3 UNK         0.0876 
     19 N          21.4054  -26.2119  -45.3223 N.am      3 UNK        -0.4424 
     20 C          21.8721  -25.3253  -44.4340 C.2       2 UNK         0.4918 
     21 O          22.8382  -25.5320  -43.7004 O.2       2 UNK        -0.4875 
     22 CA         21.0803  -24.0105  -44.3086 C.3       2 UNK         0.0481 
     23 CB         21.7338  -22.9080  -45.1552 C.3       2 UNK        -0.1831 
     24 N          19.6655  -24.1518  -44.6873 N.am      2 UNK        -0.4498 
     25 C          18.7727  -24.9028  -44.0223 C.2       1 UNK         0.5027 
     26 O          19.0467  -25.5232  -42.9937 O.2       1 UNK        -0.4969 
     27 C          21.7791  -28.4003  -44.1856 C.2       3 UNK         0.5005 
     28 O          22.7341  -29.1028  -43.8578 O.2       3 UNK        -0.5279 
     29 N          20.6934  -28.2315  -43.4131 N.am      4 UNK        -0.4463 
     30 CA         20.5100  -28.8938  -42.1182 C.3       4 UNK         0.0283 
     31 CB         19.0563  -28.7484  -41.6469 C.3       4 UNK        -0.1875 
     32 C          21.4638  -28.3979  -41.0200 C.2       4 UNK         0.4949 
     33 O          21.7320  -29.1513  -40.0865 O.2       4 UNK        -0.5039 
     34 N          21.9494  -27.1537  -41.1358 N.am      5 UNK        -0.4663 
     35 CA         22.9558  -26.5870  -40.2353 C.3       5 UNK         0.0242 
     36 CB         22.8756  -25.0518  -40.2678 C.3       5 UNK        -0.1982 
     37 C          24.3735  -27.0728  -40.5815 C.2       5 UNK         0.5017 
     38 O          25.1934  -27.2257  -39.6756 O.2       5 UNK        -0.5012 
     39 N          24.6370  -27.3010  -41.8763 N.am      6 UNK        -0.4439 
     40 CA         25.8912  -27.8594  -42.3845 C.3       6 UNK         0.0297 
     41 CB         26.0138  -27.5597  -43.8877 C.3       6 UNK        -0.2006 
     42 C          26.0069  -29.3701  -42.1138 C.2       6 UNK         0.4892 
     43 O          27.0702  -29.8310  -41.6955 O.2       6 UNK        -0.5089 
     44 N          24.9180  -30.1073  -42.3656 N.am      7 UNK        -0.4243 
     45 CA         24.7881  -31.5451  -42.1283 C.3       7 UNK         0.0196 
     46 CB         23.6649  -32.0787  -43.0363 C.3       7 UNK        -0.2007 
     47 C          24.5128  -31.8748  -40.6481 C.2       7 UNK         0.5020 
     48 O          24.3921  -30.9808  -39.8103 O.2       7 UNK        -0.5147 
     49 N          24.3924  -33.1754  -40.3543 N.am      8 UNK        -0.4734 
     50 CA         24.0733  -33.7190  -39.0274 C.3       8 UNK         0.0238 
     51 CB         24.8054  -35.0641  -38.8615 C.3       8 UNK        -0.1912 
     52 C          22.5558  -33.8658  -38.7758 C.2       8 UNK         0.5038 
     53 O          22.1676  -34.5996  -37.8649 O.2       8 UNK        -0.5046 
     54 N          21.7275  -33.2037  -39.5940 N.am      9 UNK        -0.4200 
     55 CA         20.2567  -33.2087  -39.5385 C.3       9 UNK         0.0839 
     56 C          19.6887  -32.6817  -38.1913 C.2       9 UNK         0.5513 
     57 N          18.5610  -33.2187  -37.7457 N.am      9 UNK        -0.7519 
     58 O          20.2305  -31.7676  -37.5739 O.2       9 UNK        -0.4960 
     59 C59        19.6532  -32.4130  -40.7251 C.3       10 UNK        -0.0876 
     60 S60        20.1664  -33.0926  -42.3410 S.3       10 UNK        -0.2414 
     61 C61        18.6036  -33.1926  -43.2726 C.3       10 UNK         0.0169 
     62 H62        14.3931  -22.2319  -42.6845 H         1 UNK         0.0903 
     63 H63        14.6567  -23.7982  -41.9154 H         1 UNK         0.0903 
     64 H64        15.6257  -22.4048  -41.4319 H         1 UNK         0.0903 
     65 H65        15.8289  -25.2197  -43.2024 H         1 UNK         0.3096 
     66 H66        17.3234  -24.3603  -45.5028 H         1 UNK         0.1121 
     67 H67        17.8713  -26.8847  -45.6516 H         1 UNK         0.0849 
     68 H68        16.2182  -26.3890  -45.8499 H         1 UNK         0.0849 
     69 H69        15.1948  -29.5889  -44.2206 H         1 UNK         0.0865 
     70 H70        15.5890  -28.7973  -45.7187 H         1 UNK         0.0865 
     71 H71        16.7103  -31.2089  -43.1818 H         1 UNK         0.1346 
     72 H72        20.0687  -32.5711  -45.4737 H         1 UNK         0.1412 
     73 H73        17.8444  -29.1388  -46.7611 H         1 UNK         0.1426 
     74 H74        20.1425  -31.6997  -47.8796 H         1 UNK         0.0716 
     75 H75        19.4948  -30.1215  -48.2397 H         1 UNK         0.0716 
     76 H76        21.2911  -27.6633  -47.5919 H         1 UNK         0.0695 
     77 H77        20.0424  -28.1902  -46.5075 H         1 UNK         0.0695 
     78 H78        22.9247  -27.5359  -45.7638 H         1 UNK         0.0983 
     79 H79        20.6251  -25.9285  -45.8945 H         1 UNK         0.3095 
     80 H80        21.1188  -23.7040  -43.2611 H         1 UNK         0.0454 
     81 H81        21.7123  -23.1457  -46.2195 H         1 UNK         0.0851 
     82 H82        21.2338  -21.9497  -45.0139 H         1 UNK         0.0851 
     83 H83        22.7788  -22.7694  -44.8740 H         1 UNK         0.0851 
     84 H84        19.3634  -23.6389  -45.5040 H         1 UNK         0.2976 
     85 H85        19.9676  -27.5884  -43.6993 H         1 UNK         0.3116 
     86 H86        20.7147  -29.9546  -42.2719 H         1 UNK         0.0646 
     87 H87        18.7581  -27.7037  -41.5610 H         1 UNK         0.0847 
     88 H88        18.3723  -29.2406  -42.3328 H         1 UNK         0.0847 
     89 H89        18.9083  -29.2052  -40.6678 H         1 UNK         0.0847 
     90 H90        21.6778  -26.5964  -41.9344 H         1 UNK         0.3040 
     91 H91        22.7367  -26.9129  -39.2157 H         1 UNK         0.1015 
     92 H92        23.1259  -24.6488  -41.2490 H         1 UNK         0.0786 
     93 H93        23.5721  -24.6135  -39.5518 H         1 UNK         0.0786 
     94 H94        21.8776  -24.7006  -40.0050 H         1 UNK         0.0786 
     95 H95        23.9105  -27.1044  -42.5539 H         1 UNK         0.3172 
     96 H96        26.7191  -27.3621  -41.8746 H         1 UNK         0.0595 
     97 H97        26.9595  -27.9331  -44.2825 H         1 UNK         0.0839 
     98 H98        25.9812  -26.4874  -44.0823 H         1 UNK         0.0839 
     99 H99        25.2139  -28.0276  -44.4625 H         1 UNK         0.0839 
    100 H100       24.0947  -29.6447  -42.7469 H         1 UNK         0.2998 
    101 H101       25.7249  -32.0307  -42.4097 H         1 UNK         0.0822 
    102 H102       23.5560  -33.1610  -42.9632 H         1 UNK         0.0787 
    103 H103       22.7035  -31.6326  -42.7800 H         1 UNK         0.0787 
    104 H104       23.8616  -31.8487  -44.0838 H         1 UNK         0.0787 
    105 H105       24.4884  -33.8510  -41.0998 H         1 UNK         0.3055 
    106 H106       24.4493  -33.0382  -38.2601 H         1 UNK         0.1106 
    107 H107       25.8788  -34.9537  -39.0166 H         1 UNK         0.0828 
    108 H108       24.6693  -35.4665  -37.8568 H         1 UNK         0.0828 
    109 H109       24.4386  -35.8127  -39.5647 H         1 UNK         0.0828 
    110 H110       22.1367  -32.6095  -40.2983 H         1 UNK         0.2931 
    111 H111       19.9483  -34.2513  -39.6400 H         1 UNK         0.0412 
    112 H112       18.1035  -33.9645  -38.2472 H         1 UNK         0.3472 
    113 H113       18.1658  -32.8815  -36.8814 H         1 UNK         0.3472 
    114 H114       18.5638  -32.4032  -40.6634 H         1 UNK         0.0970 
    115 H115       19.9664  -31.3718  -40.6663 H         1 UNK         0.0970 
    116 H116       18.6206  -34.1081  -43.8655 H         1 UNK         0.0612 
    117 H117       17.7563  -33.2949  -42.5937 H         1 UNK         0.0612 
@<TRIPOS>BOND
     1    1    2 1    
     2    1   62 1    
     3    1   63 1    
     4    1   64 1    
     5    2    3 2    
     6    2    4 am   BACKBONE|DICT|INTERRES
     7    4    5 1    
     8    4   65 1    
     9    5    6 1    
    10    5   25 1    
    11    5   66 1    
    12    6    7 1    
    13    6   67 1    
    14    6   68 1    
    15    7    8 1    
    16    8    9 1    
    17    8   69 1    
    18    8   70 1    
    19    9   10 ar   
    20    9   14 ar   
    21   10   11 ar   
    22   10   71 1    
    23   11   12 ar   
    24   11   61 1    
    25   12   13 ar   
    26   12   72 1    
    27   13   14 ar   
    28   13   15 1    
    29   14   73 1    
    30   15   16 1    
    31   15   74 1    
    32   15   75 1    
    33   16   17 1    
    34   17   18 1    
    35   17   76 1    
    36   17   77 1    
    37   18   19 1    
    38   18   27 1    
    39   18   78 1    
    40   19   20 am   BACKBONE|DICT|INTERRES
    41   19   79 1    
    42   20   21 2    
    43   20   22 1    
    44   22   23 1    
    45   22   24 1    
    46   22   80 1    
    47   23   81 1    
    48   23   82 1    
    49   23   83 1    
    50   24   25 am   BACKBONE|DICT|INTERRES
    51   24   84 1    
    52   25   26 2    
    53   27   28 2    
    54   27   29 am   BACKBONE|DICT|INTERRES
    55   29   30 1    
    56   29   85 1    
    57   30   31 1    
    58   30   32 1    
    59   30   86 1    
    60   31   87 1    
    61   31   88 1    
    62   31   89 1    
    63   32   33 2    
    64   32   34 am   BACKBONE|DICT|INTERRES
    65   34   35 1    
    66   34   90 1    
    67   35   36 1    
    68   35   37 1    
    69   35   91 1    
    70   36   92 1    
    71   36   93 1    
    72   36   94 1    
    73   37   38 2    
    74   37   39 am   BACKBONE|DICT|INTERRES
    75   39   40 1    
    76   39   95 1    
    77   40   41 1    
    78   40   42 1    
    79   40   96 1    
    80   41   97 1    
    81   41   98 1    
    82   41   99 1    
    83   42   43 2    
    84   42   44 am   BACKBONE|DICT|INTERRES
    85   44   45 1    
    86   44  100 1    
    87   45   46 1    
    88   45   47 1    
    89   45  101 1    
    90   46  102 1    
    91   46  103 1    
    92   46  104 1    
    93   47   48 2    
    94   47   49 am   BACKBONE|DICT|INTERRES
    95   49   50 1    
    96   49  105 1    
    97   50   51 1    
    98   50   52 1    
    99   50  106 1    
   100   51  107 1    
   101   51  108 1    
   102   51  109 1    
   103   52   53 2    
   104   52   54 am   BACKBONE|DICT|INTERRES
   105   54   55 1    
   106   54  110 1    
   107   55   56 1    
   108   55   59 1    
   109   55  111 1    
   110   56   57 am   BACKBONE|DICT|INTERRES
   111   56   58 2    
   112   57  112 1    
   113   57  113 1    
   114   59   60 1    
   115   59  114 1    
   116   59  115 1    
   117   60   61 1    
   118   61  116 1    
   119   61  117 1    
@<TRIPOS>SUBSTRUCTURE
     1 UNK         1 GROUP             0       ****    0 ROOT    
