@<TRIPOS>MOLECULE
3R8
117   119    1
SMALL
USER_CHARGES


@<TRIPOS>ATOM
      1 CA         13.7938  -22.3708  -43.0035 C.3       0 UNK        -0.2013 
      2 C          14.3606  -22.9895  -44.2727 C.2       0 UNK         0.4866 
      3 O          14.6079  -22.2751  -45.2452 O.2       0 UNK        -0.5176 
      4 N          14.5591  -24.3130  -44.2748 N.am      1 UNK        -0.4884 
      5 CA         15.1702  -25.0682  -45.3731 C.3       1 UNK         0.0853 
      6 C6         14.7614  -26.5652  -45.3205 C.3       10 UNK        -0.0849 
      7 S7         15.2449  -27.4332  -43.7843 S.3       10 UNK        -0.2776 
      8 C8         16.6327  -28.4332  -44.4086 C.3       10 UNK         0.0316 
      9 C9         17.5386  -28.9501  -43.3004 C.ar      10 UNK        -0.0863 
     10 C10        17.8475  -30.3114  -43.2248 C.ar      10 UNK        -0.1009 
     11 C11        18.7575  -30.7815  -42.2736 C.ar      10 UNK        -0.0712 
     12 C12        19.3539  -29.8817  -41.3865 C.ar      10 UNK        -0.0894 
     13 C13        19.0558  -28.5176  -41.4537 C.ar      10 UNK        -0.0745 
     14 C14        18.1361  -28.0600  -42.4020 C.ar      10 UNK        -0.0972 
     15 C15        19.7573  -27.5365  -40.5275 C.3       10 UNK         0.0209 
     16 S16        21.3840  -27.0510  -41.1904 S.3       10 UNK        -0.2568 
     17 C17        20.9226  -25.9126  -42.5440 C.3       10 UNK        -0.0983 
     18 CA         20.8385  -26.5846  -43.9409 C.3       3 UNK         0.0876 
     19 N          20.1003  -25.7314  -44.8713 N.am      3 UNK        -0.4424 
     20 C          19.5250  -26.1444  -46.0047 C.2       2 UNK         0.4918 
     21 O          19.5408  -27.3100  -46.4041 O.2       2 UNK        -0.4875 
     22 CA         18.7604  -25.0746  -46.8053 C.3       2 UNK         0.0481 
     23 CB         19.0369  -25.1978  -48.3137 C.3       2 UNK        -0.1831 
     24 N          17.3160  -25.1604  -46.5701 N.am      2 UNK        -0.4498 
     25 C          16.7040  -24.8657  -45.4132 C.2       1 UNK         0.5027 
     26 O          17.3022  -24.4614  -44.4115 O.2       1 UNK        -0.4969 
     27 C          22.2291  -26.9583  -44.4901 C.2       3 UNK         0.5005 
     28 O          22.8269  -26.1961  -45.2538 O.2       3 UNK        -0.5279 
     29 N          22.7389  -28.1074  -44.0288 N.am      4 UNK        -0.4463 
     30 CA         24.0851  -28.6221  -44.2941 C.3       4 UNK         0.0283 
     31 CB         24.0724  -30.1463  -44.0715 C.3       4 UNK        -0.1875 
     32 C          25.1826  -27.9541  -43.4375 C.2       4 UNK         0.4949 
     33 O          26.3280  -28.4034  -43.4816 O.2       4 UNK        -0.5039 
     34 N          24.8202  -26.9426  -42.6320 N.am      5 UNK        -0.4663 
     35 CA         25.6289  -26.1705  -41.6727 C.3       5 UNK         0.0242 
     36 CB         26.8397  -25.4939  -42.3449 C.3       5 UNK        -0.1982 
     37 C          26.0463  -26.9784  -40.4325 C.2       5 UNK         0.5017 
     38 O          25.8668  -26.5017  -39.3120 O.2       5 UNK        -0.5012 
     39 N          26.5400  -28.2029  -40.6504 N.am      6 UNK        -0.4439 
     40 CA         26.7679  -29.2188  -39.6192 C.3       6 UNK         0.0297 
     41 CB         27.7178  -30.2906  -40.1779 C.3       6 UNK        -0.2006 
     42 C          25.4595  -29.8675  -39.1225 C.2       6 UNK         0.4892 
     43 O          25.4657  -30.4796  -38.0536 O.2       6 UNK        -0.5089 
     44 N          24.3786  -29.7202  -39.9060 N.am      7 UNK        -0.4243 
     45 CA         23.0390  -30.2831  -39.7119 C.3       7 UNK         0.0196 
     46 CB         22.3651  -29.6768  -38.4596 C.3       7 UNK        -0.2007 
     47 C          23.0464  -31.8249  -39.7410 C.2       7 UNK         0.5020 
     48 O          23.8890  -32.4129  -40.4234 O.2       7 UNK        -0.5147 
     49 N          22.0847  -32.4484  -39.0440 N.am      8 UNK        -0.4734 
     50 CA         21.8293  -33.8918  -38.8945 C.3       8 UNK         0.0238 
     51 CB         23.0212  -34.6107  -38.2316 C.3       8 UNK        -0.1912 
     52 C          21.3953  -34.6133  -40.1843 C.2       8 UNK         0.5038 
     53 O          20.4095  -35.3503  -40.1519 O.2       8 UNK        -0.5046 
     54 N          22.1220  -34.3821  -41.2833 N.am      9 UNK        -0.4200 
     55 CA         21.8963  -34.9312  -42.6312 C.3       9 UNK         0.0839 
     56 C          22.0867  -36.4752  -42.7456 C.2       9 UNK         0.5513 
     57 N          22.7803  -37.1242  -41.8178 N.am      9 UNK        -0.7519 
     58 O          21.6290  -37.0944  -43.7031 O.2       9 UNK        -0.4960 
     59 C59        20.5678  -34.4364  -43.2722 C.3       10 UNK        -0.0876 
     60 S60        20.4757  -32.6162  -43.3875 S.3       10 UNK        -0.2414 
     61 C61        19.1195  -32.2567  -42.2309 C.3       10 UNK         0.0169 
     62 H62        12.8521  -21.8668  -43.2193 H         1 UNK         0.0903 
     63 H63        13.6092  -23.1187  -42.2325 H         1 UNK         0.0903 
     64 H64        14.4903  -21.6351  -42.6021 H         1 UNK         0.0903 
     65 H65        14.3776  -24.8497  -43.4379 H         1 UNK         0.3096 
     66 H66        14.7778  -24.6585  -46.3071 H         1 UNK         0.1121 
     67 H67        13.6763  -26.6404  -45.4082 H         1 UNK         0.0849 
     68 H68        15.1501  -27.1004  -46.1888 H         1 UNK         0.0849 
     69 H69        16.2316  -29.2563  -45.0021 H         1 UNK         0.0865 
     70 H70        17.2396  -27.8350  -45.0867 H         1 UNK         0.0865 
     71 H71        17.4058  -31.0058  -43.9267 H         1 UNK         0.1346 
     72 H72        20.0672  -30.2410  -40.6592 H         1 UNK         0.1412 
     73 H73        17.9153  -27.0029  -42.4723 H         1 UNK         0.1426 
     74 H74        19.8991  -27.9950  -39.5480 H         1 UNK         0.0716 
     75 H75        19.1423  -26.6508  -40.3607 H         1 UNK         0.0716 
     76 H76        19.9616  -25.4626  -42.2890 H         1 UNK         0.0695 
     77 H77        21.6343  -25.0847  -42.5568 H         1 UNK         0.0695 
     78 H78        20.2757  -27.5143  -43.8527 H         1 UNK         0.0983 
     79 H79        20.0213  -24.7573  -44.6180 H         1 UNK         0.3095 
     80 H80        19.1013  -24.0872  -46.4863 H         1 UNK         0.0454 
     81 H81        18.6778  -26.1451  -48.7180 H         1 UNK         0.0851 
     82 H82        18.5601  -24.3923  -48.8724 H         1 UNK         0.0851 
     83 H83        20.1069  -25.1427  -48.5182 H         1 UNK         0.0851 
     84 H84        16.7618  -25.5063  -47.3403 H         1 UNK         0.2976 
     85 H85        22.1762  -28.6489  -43.3868 H         1 UNK         0.3116 
     86 H86        24.3320  -28.4307  -45.3404 H         1 UNK         0.0646 
     87 H87        25.0358  -30.5899  -44.3268 H         1 UNK         0.0847 
     88 H88        23.3230  -30.6335  -44.6959 H         1 UNK         0.0847 
     89 H89        23.8612  -30.4061  -43.0334 H         1 UNK         0.0847 
     90 H90        23.8428  -26.6868  -42.6539 H         1 UNK         0.3040 
     91 H91        24.9732  -25.3747  -41.3140 H         1 UNK         0.1015 
     92 H92        26.5310  -24.8845  -43.1942 H         1 UNK         0.0786 
     93 H93        27.5734  -26.2175  -42.7006 H         1 UNK         0.0786 
     94 H94        27.3530  -24.8352  -41.6431 H         1 UNK         0.0786 
     95 H95        26.6622  -28.4819  -41.6217 H         1 UNK         0.3172 
     96 H96        27.2499  -28.7438  -38.7621 H         1 UNK         0.0595 
     97 H97        28.6705  -29.8578  -40.4835 H         1 UNK         0.0839 
     98 H98        27.2872  -30.8010  -41.0407 H         1 UNK         0.0839 
     99 H99        27.9345  -31.0503  -39.4255 H         1 UNK         0.0839 
    100 H100       24.5127  -29.2102  -40.7653 H         1 UNK         0.2998 
    101 H101       22.4615  -29.9716  -40.5829 H         1 UNK         0.0822 
    102 H102       22.4418  -28.5892  -38.4637 H         1 UNK         0.0787 
    103 H103       21.3022  -29.9148  -38.4175 H         1 UNK         0.0787 
    104 H104       22.8231  -30.0357  -37.5370 H         1 UNK         0.0787 
    105 H105       21.4383  -31.8574  -38.5397 H         1 UNK         0.3055 
    106 H106       20.9855  -33.9692  -38.2062 H         1 UNK         0.1106 
    107 H107       23.2717  -34.1579  -37.2723 H         1 UNK         0.0828 
    108 H108       22.7870  -35.6592  -38.0428 H         1 UNK         0.0828 
    109 H109       23.9154  -34.5864  -38.8550 H         1 UNK         0.0828 
    110 H110       22.9093  -33.7450  -41.1846 H         1 UNK         0.2931 
    111 H111       22.7065  -34.5208  -43.2350 H         1 UNK         0.0412 
    112 H112       22.9091  -38.1204  -41.9026 H         1 UNK         0.3472 
    113 H113       23.1755  -36.6273  -41.0357 H         1 UNK         0.3472 
    114 H114       19.7085  -34.8265  -42.7248 H         1 UNK         0.0970 
    115 H115       20.4704  -34.8210  -44.2889 H         1 UNK         0.0970 
    116 H116       18.2477  -32.8595  -42.4898 H         1 UNK         0.0612 
    117 H117       19.4133  -32.5483  -41.2217 H         1 UNK         0.0612 
@<TRIPOS>BOND
     1    1    2 1    
     2    1   62 1    
     3    1   63 1    
     4    1   64 1    
     5    2    3 2    
     6    2    4 am   BACKBONE|DICT|INTERRES
     7    4    5 1    
     8    4   65 1    
     9    5    6 1    
    10    5   25 1    
    11    5   66 1    
    12    6    7 1    
    13    6   67 1    
    14    6   68 1    
    15    7    8 1    
    16    8    9 1    
    17    8   69 1    
    18    8   70 1    
    19    9   10 ar   
    20    9   14 ar   
    21   10   11 ar   
    22   10   71 1    
    23   11   12 ar   
    24   11   61 1    
    25   12   13 ar   
    26   12   72 1    
    27   13   14 ar   
    28   13   15 1    
    29   14   73 1    
    30   15   16 1    
    31   15   74 1    
    32   15   75 1    
    33   16   17 1    
    34   17   18 1    
    35   17   76 1    
    36   17   77 1    
    37   18   19 1    
    38   18   27 1    
    39   18   78 1    
    40   19   20 am   BACKBONE|DICT|INTERRES
    41   19   79 1    
    42   20   21 2    
    43   20   22 1    
    44   22   23 1    
    45   22   24 1    
    46   22   80 1    
    47   23   81 1    
    48   23   82 1    
    49   23   83 1    
    50   24   25 am   BACKBONE|DICT|INTERRES
    51   24   84 1    
    52   25   26 2    
    53   27   28 2    
    54   27   29 am   BACKBONE|DICT|INTERRES
    55   29   30 1    
    56   29   85 1    
    57   30   31 1    
    58   30   32 1    
    59   30   86 1    
    60   31   87 1    
    61   31   88 1    
    62   31   89 1    
    63   32   33 2    
    64   32   34 am   BACKBONE|DICT|INTERRES
    65   34   35 1    
    66   34   90 1    
    67   35   36 1    
    68   35   37 1    
    69   35   91 1    
    70   36   92 1    
    71   36   93 1    
    72   36   94 1    
    73   37   38 2    
    74   37   39 am   BACKBONE|DICT|INTERRES
    75   39   40 1    
    76   39   95 1    
    77   40   41 1    
    78   40   42 1    
    79   40   96 1    
    80   41   97 1    
    81   41   98 1    
    82   41   99 1    
    83   42   43 2    
    84   42   44 am   BACKBONE|DICT|INTERRES
    85   44   45 1    
    86   44  100 1    
    87   45   46 1    
    88   45   47 1    
    89   45  101 1    
    90   46  102 1    
    91   46  103 1    
    92   46  104 1    
    93   47   48 2    
    94   47   49 am   BACKBONE|DICT|INTERRES
    95   49   50 1    
    96   49  105 1    
    97   50   51 1    
    98   50   52 1    
    99   50  106 1    
   100   51  107 1    
   101   51  108 1    
   102   51  109 1    
   103   52   53 2    
   104   52   54 am   BACKBONE|DICT|INTERRES
   105   54   55 1    
   106   54  110 1    
   107   55   56 1    
   108   55   59 1    
   109   55  111 1    
   110   56   57 am   BACKBONE|DICT|INTERRES
   111   56   58 2    
   112   57  112 1    
   113   57  113 1    
   114   59   60 1    
   115   59  114 1    
   116   59  115 1    
   117   60   61 1    
   118   61  116 1    
   119   61  117 1    
@<TRIPOS>SUBSTRUCTURE
     1 UNK         1 GROUP             0       ****    0 ROOT    
