@<TRIPOS>MOLECULE
3R8
117   119    1
SMALL
USER_CHARGES


@<TRIPOS>ATOM
      1 CA         13.2254  -24.1547  -44.7018 C.3       0 UNK        -0.2013 
      2 C          14.3686  -24.4094  -45.6726 C.2       0 UNK         0.4866 
      3 O          14.5908  -23.6075  -46.5800 O.2       0 UNK        -0.5176 
      4 N          15.0933  -25.5213  -45.4903 N.am      1 UNK        -0.4884 
      5 CA         16.2297  -25.9285  -46.3279 C.3       1 UNK         0.0853 
      6 C6         16.6517  -27.3869  -46.0461 C.3       10 UNK        -0.0849 
      7 S7         15.3911  -28.6241  -46.5207 S.3       10 UNK        -0.2776 
      8 C8         15.4026  -29.8141  -45.1220 C.3       10 UNK         0.0316 
      9 C9         16.7862  -30.1520  -44.5612 C.ar      10 UNK        -0.0863 
     10 C10        16.9344  -30.3729  -43.1866 C.ar      10 UNK        -0.1009 
     11 C11        18.2009  -30.5810  -42.6316 C.ar      10 UNK        -0.0712 
     12 C12        19.3264  -30.5573  -43.4569 C.ar      10 UNK        -0.0894 
     13 C13        19.1939  -30.3338  -44.8290 C.ar      10 UNK        -0.0745 
     14 C14        17.9206  -30.1891  -45.3815 C.ar      10 UNK        -0.0972 
     15 C15        20.4241  -30.1488  -45.7035 C.3       10 UNK         0.0209 
     16 S16        20.7524  -28.3747  -45.9905 S.3       10 UNK        -0.2568 
     17 C17        21.2111  -27.8384  -44.3105 C.3       10 UNK        -0.0983 
     18 CA         21.4387  -26.3132  -44.1770 C.3       3 UNK         0.0876 
     19 N          20.1993  -25.5528  -44.3737 N.am      3 UNK        -0.4424 
     20 C          20.1438  -24.2319  -44.5917 C.2       2 UNK         0.4918 
     21 O          21.1425  -23.5370  -44.7898 O.2       2 UNK        -0.4875 
     22 CA         18.7472  -23.5709  -44.5488 C.3       2 UNK         0.0481 
     23 CB         18.6957  -22.2318  -45.3155 C.3       2 UNK        -0.1831 
     24 N          17.6471  -24.4546  -44.9598 N.am      2 UNK        -0.4498 
     25 C          17.4581  -25.0061  -46.1698 C.2       1 UNK         0.5027 
     26 O          18.2073  -24.8330  -47.1319 O.2       1 UNK        -0.4969 
     27 C          22.0274  -26.0232  -42.7807 C.2       3 UNK         0.5005 
     28 O          21.2818  -25.7109  -41.8468 O.2       3 UNK        -0.5279 
     29 N          23.3469  -26.2032  -42.6476 N.am      4 UNK        -0.4463 
     30 CA         24.0332  -26.2730  -41.3577 C.3       4 UNK         0.0283 
     31 CB         25.5296  -25.9885  -41.5687 C.3       4 UNK        -0.1875 
     32 C          23.8428  -27.6667  -40.7387 C.2       4 UNK         0.4949 
     33 O          23.7726  -28.6537  -41.4739 O.2       4 UNK        -0.5039 
     34 N          23.8422  -27.7399  -39.4012 N.am      5 UNK        -0.4663 
     35 CA         23.7153  -28.9898  -38.6344 C.3       5 UNK         0.0242 
     36 CB         23.5630  -28.6533  -37.1421 C.3       5 UNK        -0.1982 
     37 C          24.8735  -29.9855  -38.8491 C.2       5 UNK         0.5017 
     38 O          24.7101  -31.1757  -38.5835 O.2       5 UNK        -0.5012 
     39 N          26.0168  -29.4849  -39.3363 N.am      6 UNK        -0.4439 
     40 CA         27.1681  -30.2807  -39.7591 C.3       6 UNK         0.0297 
     41 CB         28.3976  -29.3636  -39.8658 C.3       6 UNK        -0.2006 
     42 C          26.9410  -31.0274  -41.0882 C.2       6 UNK         0.4892 
     43 O          27.6336  -32.0166  -41.3306 O.2       6 UNK        -0.5089 
     44 N          26.0110  -30.5492  -41.9311 N.am      7 UNK        -0.4243 
     45 CA         25.6977  -31.1573  -43.2261 C.3       7 UNK         0.0196 
     46 CB         25.0908  -30.1062  -44.1714 C.3       7 UNK        -0.2007 
     47 C          24.7585  -32.3616  -43.0741 C.2       7 UNK         0.5020 
     48 O          25.0112  -33.4027  -43.6810 O.2       7 UNK        -0.5147 
     49 N          23.7044  -32.2061  -42.2647 N.am      8 UNK        -0.4734 
     50 CA         22.7034  -33.2286  -41.9655 C.3       8 UNK         0.0238 
     51 CB         21.8118  -33.4953  -43.1978 C.3       8 UNK        -0.1912 
     52 C          21.8704  -32.7900  -40.7534 C.2       8 UNK         0.5038 
     53 O          21.9289  -31.6221  -40.3609 O.2       8 UNK        -0.5046 
     54 N          21.0978  -33.7384  -40.2097 N.am      9 UNK        -0.4200 
     55 CA         20.2654  -33.6121  -39.0006 C.3       9 UNK         0.0839 
     56 C          21.1189  -33.5643  -37.6960 C.2       9 UNK         0.5513 
     57 N          20.5703  -33.0935  -36.5829 N.am      9 UNK        -0.7519 
     58 O          22.2651  -34.0081  -37.6640 O.2       9 UNK        -0.4960 
     59 C59        19.1744  -32.4988  -39.0820 C.3       10 UNK        -0.0876 
     60 S60        18.2259  -32.5064  -40.6452 S.3       10 UNK        -0.2414 
     61 C61        18.3750  -30.7607  -41.1335 C.3       10 UNK         0.0169 
     62 H62        12.2811  -24.0947  -45.2423 H         1 UNK         0.0903 
     63 H63        13.1389  -24.9446  -43.9559 H         1 UNK         0.0903 
     64 H64        13.3799  -23.2107  -44.1798 H         1 UNK         0.0903 
     65 H65        14.8438  -26.1612  -44.7492 H         1 UNK         0.3096 
     66 H66        15.9172  -25.8576  -47.3725 H         1 UNK         0.1121 
     67 H67        16.9050  -27.4994  -44.9904 H         1 UNK         0.0849 
     68 H68        17.5593  -27.6313  -46.6029 H         1 UNK         0.0849 
     69 H69        14.7756  -29.3999  -44.3309 H         1 UNK         0.0865 
     70 H70        14.9191  -30.7376  -45.4429 H         1 UNK         0.0865 
     71 H71        16.0678  -30.3545  -42.5396 H         1 UNK         0.1346 
     72 H72        20.3097  -30.6571  -43.0182 H         1 UNK         0.1412 
     73 H73        17.8267  -30.0179  -46.4448 H         1 UNK         0.1426 
     74 H74        20.2725  -30.6449  -46.6632 H         1 UNK         0.0716 
     75 H75        21.3003  -30.6143  -45.2493 H         1 UNK         0.0716 
     76 H76        22.1086  -28.3945  -44.0323 H         1 UNK         0.0695 
     77 H77        20.4342  -28.1456  -43.6103 H         1 UNK         0.0695 
     78 H78        22.1633  -25.9950  -44.9302 H         1 UNK         0.0983 
     79 H79        19.3402  -26.0487  -44.1948 H         1 UNK         0.3095 
     80 H80        18.5642  -23.3454  -43.4973 H         1 UNK         0.0454 
     81 H81        17.7058  -21.7792  -45.2589 H         1 UNK         0.0851 
     82 H82        18.9476  -22.3572  -46.3688 H         1 UNK         0.0851 
     83 H83        19.4022  -21.5135  -44.8978 H         1 UNK         0.0851 
     84 H84        16.9623  -24.6626  -44.2460 H         1 UNK         0.2976 
     85 H85        23.8785  -26.5084  -43.4503 H         1 UNK         0.3116 
     86 H86        23.6213  -25.5178  -40.6845 H         1 UNK         0.0646 
     87 H87        25.9989  -26.7346  -42.2120 H         1 UNK         0.0847 
     88 H88        26.0676  -25.9916  -40.6199 H         1 UNK         0.0847 
     89 H89        25.6865  -25.0097  -42.0223 H         1 UNK         0.0847 
     90 H90        23.9179  -26.8863  -38.8655 H         1 UNK         0.3040 
     91 H91        22.8033  -29.4904  -38.9676 H         1 UNK         0.1015 
     92 H92        24.4391  -28.1325  -36.7536 H         1 UNK         0.0786 
     93 H93        23.4332  -29.5603  -36.5496 H         1 UNK         0.0786 
     94 H94        22.6897  -28.0258  -36.9631 H         1 UNK         0.0786 
     95 H95        26.0622  -28.4897  -39.4971 H         1 UNK         0.3172 
     96 H96        27.3679  -31.0300  -38.9900 H         1 UNK         0.0595 
     97 H97        28.2586  -28.5846  -40.6166 H         1 UNK         0.0839 
     98 H98        29.2845  -29.9325  -40.1487 H         1 UNK         0.0839 
     99 H99        28.6171  -28.8795  -38.9139 H         1 UNK         0.0839 
    100 H100       25.4287  -29.7685  -41.6461 H         1 UNK         0.2998 
    101 H101       26.6264  -31.5111  -43.6799 H         1 UNK         0.0822 
    102 H102       25.7467  -29.2425  -44.2804 H         1 UNK         0.0787 
    103 H103       24.9361  -30.5249  -45.1666 H         1 UNK         0.0787 
    104 H104       24.1228  -29.7512  -43.8189 H         1 UNK         0.0787 
    105 H105       23.5707  -31.3326  -41.7656 H         1 UNK         0.3055 
    106 H106       23.2246  -34.1483  -41.6902 H         1 UNK         0.1106 
    107 H107       20.9850  -34.1658  -42.9610 H         1 UNK         0.0828 
    108 H108       21.3821  -32.5763  -43.5908 H         1 UNK         0.0828 
    109 H109       22.3759  -33.9640  -44.0040 H         1 UNK         0.0828 
    110 H110       21.1319  -34.6671  -40.6031 H         1 UNK         0.2931 
    111 H111       19.7349  -34.5631  -38.9422 H         1 UNK         0.0412 
    112 H112       19.6225  -32.7526  -36.5654 H         1 UNK         0.3472 
    113 H113       21.1187  -33.0860  -35.7368 H         1 UNK         0.3472 
    114 H114       19.6313  -31.5206  -38.9246 H         1 UNK         0.0970 
    115 H115       18.4521  -32.6208  -38.2738 H         1 UNK         0.0970 
    116 H116       19.3519  -30.3725  -40.8405 H         1 UNK         0.0612 
    117 H117       17.6351  -30.1708  -40.5906 H         1 UNK         0.0612 
@<TRIPOS>BOND
     1    1    2 1    
     2    1   62 1    
     3    1   63 1    
     4    1   64 1    
     5    2    3 2    
     6    2    4 am   BACKBONE|DICT|INTERRES
     7    4    5 1    
     8    4   65 1    
     9    5    6 1    
    10    5   25 1    
    11    5   66 1    
    12    6    7 1    
    13    6   67 1    
    14    6   68 1    
    15    7    8 1    
    16    8    9 1    
    17    8   69 1    
    18    8   70 1    
    19    9   10 ar   
    20    9   14 ar   
    21   10   11 ar   
    22   10   71 1    
    23   11   12 ar   
    24   11   61 1    
    25   12   13 ar   
    26   12   72 1    
    27   13   14 ar   
    28   13   15 1    
    29   14   73 1    
    30   15   16 1    
    31   15   74 1    
    32   15   75 1    
    33   16   17 1    
    34   17   18 1    
    35   17   76 1    
    36   17   77 1    
    37   18   19 1    
    38   18   27 1    
    39   18   78 1    
    40   19   20 am   BACKBONE|DICT|INTERRES
    41   19   79 1    
    42   20   21 2    
    43   20   22 1    
    44   22   23 1    
    45   22   24 1    
    46   22   80 1    
    47   23   81 1    
    48   23   82 1    
    49   23   83 1    
    50   24   25 am   BACKBONE|DICT|INTERRES
    51   24   84 1    
    52   25   26 2    
    53   27   28 2    
    54   27   29 am   BACKBONE|DICT|INTERRES
    55   29   30 1    
    56   29   85 1    
    57   30   31 1    
    58   30   32 1    
    59   30   86 1    
    60   31   87 1    
    61   31   88 1    
    62   31   89 1    
    63   32   33 2    
    64   32   34 am   BACKBONE|DICT|INTERRES
    65   34   35 1    
    66   34   90 1    
    67   35   36 1    
    68   35   37 1    
    69   35   91 1    
    70   36   92 1    
    71   36   93 1    
    72   36   94 1    
    73   37   38 2    
    74   37   39 am   BACKBONE|DICT|INTERRES
    75   39   40 1    
    76   39   95 1    
    77   40   41 1    
    78   40   42 1    
    79   40   96 1    
    80   41   97 1    
    81   41   98 1    
    82   41   99 1    
    83   42   43 2    
    84   42   44 am   BACKBONE|DICT|INTERRES
    85   44   45 1    
    86   44  100 1    
    87   45   46 1    
    88   45   47 1    
    89   45  101 1    
    90   46  102 1    
    91   46  103 1    
    92   46  104 1    
    93   47   48 2    
    94   47   49 am   BACKBONE|DICT|INTERRES
    95   49   50 1    
    96   49  105 1    
    97   50   51 1    
    98   50   52 1    
    99   50  106 1    
   100   51  107 1    
   101   51  108 1    
   102   51  109 1    
   103   52   53 2    
   104   52   54 am   BACKBONE|DICT|INTERRES
   105   54   55 1    
   106   54  110 1    
   107   55   56 1    
   108   55   59 1    
   109   55  111 1    
   110   56   57 am   BACKBONE|DICT|INTERRES
   111   56   58 2    
   112   57  112 1    
   113   57  113 1    
   114   59   60 1    
   115   59  114 1    
   116   59  115 1    
   117   60   61 1    
   118   61  116 1    
   119   61  117 1    
@<TRIPOS>SUBSTRUCTURE
     1 UNK         1 GROUP             0       ****    0 ROOT    
