@<TRIPOS>MOLECULE
3R8
117   119    1
SMALL
USER_CHARGES


@<TRIPOS>ATOM
      1 CA         13.0379  -24.7121  -45.8613 C.3       0 UNK        -0.2013 
      2 C          14.5350  -24.9728  -45.7873 C.2       0 UNK         0.4866 
      3 O          15.3214  -24.0252  -45.7579 O.2       0 UNK        -0.5176 
      4 N          14.9359  -26.2495  -45.7666 N.am      1 UNK        -0.4884 
      5 CA         16.3262  -26.6897  -45.6142 C.3       1 UNK         0.0853 
      6 C6         16.5162  -28.1350  -46.1435 C.3       10 UNK        -0.0849 
      7 S7         15.5037  -29.3957  -45.2824 S.3       10 UNK        -0.2776 
      8 C8         16.6493  -30.8090  -45.1536 C.3       10 UNK         0.0316 
      9 C9         17.9042  -30.4716  -44.3606 C.ar      10 UNK        -0.0863 
     10 C10        17.8370  -30.2749  -42.9787 C.ar      10 UNK        -0.1009 
     11 C11        18.9843  -29.9418  -42.2524 C.ar      10 UNK        -0.0712 
     12 C12        20.2079  -29.8194  -42.9199 C.ar      10 UNK        -0.0894 
     13 C13        20.2886  -30.0227  -44.3001 C.ar      10 UNK        -0.0745 
     14 C14        19.1336  -30.3505  -45.0134 C.ar      10 UNK        -0.0972 
     15 C15        21.6160  -29.9074  -45.0320 C.3       10 UNK         0.0209 
     16 S16        21.8626  -28.2477  -45.7325 S.3       10 UNK        -0.2568 
     17 C17        22.7753  -27.4135  -44.3927 C.3       10 UNK        -0.0983 
     18 CA         22.3294  -25.9384  -44.1971 C.3       3 UNK         0.0876 
     19 N          20.9059  -25.8043  -43.8354 N.am      3 UNK        -0.4424 
     20 C          20.2841  -26.2981  -42.7541 C.2       2 UNK         0.4918 
     21 O          20.8693  -26.8557  -41.8265 O.2       2 UNK        -0.4875 
     22 CA         18.7655  -26.1083  -42.6757 C.3       2 UNK         0.0481 
     23 CB         18.4326  -24.7168  -42.1013 C.3       2 UNK        -0.1831 
     24 N          18.1265  -26.3156  -43.9792 N.am      2 UNK        -0.4498 
     25 C          16.8123  -26.5077  -44.1565 C.2       1 UNK         0.5027 
     26 O          15.9971  -26.5389  -43.2291 O.2       1 UNK        -0.4969 
     27 C          23.3246  -25.2031  -43.2670 C.2       3 UNK         0.5005 
     28 O          24.4747  -25.0178  -43.6676 O.2       3 UNK        -0.5279 
     29 N          22.9106  -24.8355  -42.0449 N.am      4 UNK        -0.4463 
     30 CA         23.6723  -24.2311  -40.9383 C.3       4 UNK         0.0283 
     31 CB         24.3197  -22.8921  -41.3419 C.3       4 UNK        -0.1875 
     32 C          24.7024  -25.1839  -40.3021 C.2       4 UNK         0.4949 
     33 O          24.8099  -25.2275  -39.0772 O.2       4 UNK        -0.5039 
     34 N          25.4062  -25.9596  -41.1346 N.am      5 UNK        -0.4663 
     35 CA         26.3386  -27.0196  -40.7426 C.3       5 UNK         0.0242 
     36 CB         27.2663  -27.3167  -41.9332 C.3       5 UNK        -0.1982 
     37 C          25.6431  -28.3123  -40.2712 C.2       5 UNK         0.5017 
     38 O          26.3268  -29.1952  -39.7531 O.2       5 UNK        -0.5012 
     39 N          24.3189  -28.4131  -40.4795 N.am      6 UNK        -0.4439 
     40 CA         23.4455  -29.5515  -40.1559 C.3       6 UNK         0.0297 
     41 CB         23.3774  -29.7775  -38.6301 C.3       6 UNK        -0.2006 
     42 C          23.8010  -30.8388  -40.9304 C.2       6 UNK         0.4892 
     43 O          23.5930  -31.9434  -40.4242 O.2       6 UNK        -0.5089 
     44 N          24.3248  -30.6712  -42.1538 N.am      7 UNK        -0.4243 
     45 CA         24.9429  -31.7112  -42.9858 C.3       7 UNK         0.0196 
     46 CB         25.5149  -31.0545  -44.2542 C.3       7 UNK        -0.2007 
     47 C          24.0583  -32.9192  -43.3534 C.2       7 UNK         0.5020 
     48 O          24.6055  -33.9556  -43.7315 O.2       7 UNK        -0.5147 
     49 N          22.7316  -32.7837  -43.2404 N.am      8 UNK        -0.4734 
     50 CA         21.7625  -33.8549  -43.4817 C.3       8 UNK         0.0238 
     51 CB         21.1366  -33.6864  -44.8791 C.3       8 UNK        -0.1912 
     52 C          20.7079  -33.9332  -42.3641 C.2       8 UNK         0.5038 
     53 O          19.6067  -34.4262  -42.6156 O.2       8 UNK        -0.5046 
     54 N          21.0501  -33.4710  -41.1537 N.am      9 UNK        -0.4200 
     55 CA         20.1750  -33.5335  -39.9719 C.3       9 UNK         0.0839 
     56 C          20.9209  -33.7582  -38.6269 C.2       9 UNK         0.5513 
     57 N          22.2310  -33.5630  -38.5364 N.am      9 UNK        -0.7519 
     58 O          20.2968  -34.1525  -37.6449 O.2       9 UNK        -0.4960 
     59 C59        19.1605  -32.3596  -39.9124 C.3       10 UNK        -0.0876 
     60 S60        19.9608  -30.7272  -39.7534 S.3       10 UNK        -0.2414 
     61 C61        18.8840  -29.6614  -40.7582 C.3       10 UNK         0.0169 
     62 H62        12.4639  -25.6380  -45.8959 H         1 UNK         0.0903 
     63 H63        12.7129  -24.1444  -44.9898 H         1 UNK         0.0903 
     64 H64        12.8010  -24.1330  -46.7534 H         1 UNK         0.0903 
     65 H65        14.2501  -26.9916  -45.7494 H         1 UNK         0.3096 
     66 H66        16.9406  -26.0350  -46.2371 H         1 UNK         0.1121 
     67 H67        17.5716  -28.4022  -46.1057 H         1 UNK         0.0849 
     68 H68        16.2542  -28.1694  -47.2022 H         1 UNK         0.0849 
     69 H69        16.1333  -31.6398  -44.6704 H         1 UNK         0.0865 
     70 H70        16.9041  -31.1535  -46.1572 H         1 UNK         0.0865 
     71 H71        16.8832  -30.3578  -42.4756 H         1 UNK         0.1346 
     72 H72        21.0912  -29.5457  -42.3629 H         1 UNK         0.1412 
     73 H73        19.1937  -30.5033  -46.0825 H         1 UNK         0.1426 
     74 H74        21.6509  -30.6355  -45.8438 H         1 UNK         0.0716 
     75 H75        22.4428  -30.1596  -44.3698 H         1 UNK         0.0716 
     76 H76        23.8341  -27.4689  -44.6540 H         1 UNK         0.0695 
     77 H77        22.6659  -27.9721  -43.4625 H         1 UNK         0.0695 
     78 H78        22.4296  -25.4381  -45.1620 H         1 UNK         0.0983 
     79 H79        20.3589  -25.2705  -44.4945 H         1 UNK         0.3095 
     80 H80        18.3833  -26.8660  -41.9896 H         1 UNK         0.0454 
     81 H81        17.3667  -24.6082  -41.9023 H         1 UNK         0.0851 
     82 H82        18.7273  -23.9168  -42.7811 H         1 UNK         0.0851 
     83 H83        18.9496  -24.5500  -41.1552 H         1 UNK         0.0851 
     84 H84        18.7453  -26.3941  -44.7740 H         1 UNK         0.2976 
     85 H85        21.9794  -25.1487  -41.7942 H         1 UNK         0.3116 
     86 H86        22.9337  -24.0129  -40.1651 H         1 UNK         0.0646 
     87 H87        25.1081  -23.0221  -42.0835 H         1 UNK         0.0847 
     88 H88        23.5823  -22.2029  -41.7530 H         1 UNK         0.0847 
     89 H89        24.7712  -22.4052  -40.4766 H         1 UNK         0.0847 
     90 H90        25.2715  -25.8013  -42.1306 H         1 UNK         0.3040 
     91 H91        26.9466  -26.6578  -39.9103 H         1 UNK         0.1015 
     92 H92        28.0020  -28.0807  -41.6775 H         1 UNK         0.0786 
     93 H93        27.8192  -26.4272  -42.2360 H         1 UNK         0.0786 
     94 H94        26.7098  -27.6764  -42.7997 H         1 UNK         0.0786 
     95 H95        23.8610  -27.6143  -40.8952 H         1 UNK         0.3172 
     96 H96        22.4486  -29.2612  -40.4866 H         1 UNK         0.0595 
     97 H97        24.3297  -30.1223  -38.2268 H         1 UNK         0.0839 
     98 H98        22.6316  -30.5315  -38.3764 H         1 UNK         0.0839 
     99 H99        23.1004  -28.8631  -38.1058 H         1 UNK         0.0839 
    100 H100       24.4499  -29.7227  -42.4727 H         1 UNK         0.2998 
    101 H101       25.7801  -32.1114  -42.4100 H         1 UNK         0.0822 
    102 H102       26.0244  -31.7892  -44.8795 H         1 UNK         0.0787 
    103 H103       26.2460  -30.2840  -44.0083 H         1 UNK         0.0787 
    104 H104       24.7357  -30.5965  -44.8638 H         1 UNK         0.0787 
    105 H105       22.3600  -31.9092  -42.8996 H         1 UNK         0.3055 
    106 H106       22.2704  -34.8217  -43.4602 H         1 UNK         0.1106 
    107 H107       21.9006  -33.6018  -45.6518 H         1 UNK         0.0828 
    108 H108       20.5138  -34.5444  -45.1346 H         1 UNK         0.0828 
    109 H109       20.5034  -32.8026  -44.9309 H         1 UNK         0.0828 
    110 H110       21.9764  -33.0895  -41.0025 H         1 UNK         0.2931 
    111 H111       19.5798  -34.4434  -40.0745 H         1 UNK         0.0412 
    112 H112       22.7617  -33.1275  -39.2849 H         1 UNK         0.3472 
    113 H113       22.6829  -33.7393  -37.6536 H         1 UNK         0.3472 
    114 H114       18.5406  -32.3724  -40.8099 H         1 UNK         0.0970 
    115 H115       18.4703  -32.4910  -39.0772 H         1 UNK         0.0970 
    116 H116       17.8565  -29.7645  -40.4062 H         1 UNK         0.0612 
    117 H117       19.1677  -28.6251  -40.5753 H         1 UNK         0.0612 
@<TRIPOS>BOND
     1    1    2 1    
     2    1   62 1    
     3    1   63 1    
     4    1   64 1    
     5    2    3 2    
     6    2    4 am   BACKBONE|DICT|INTERRES
     7    4    5 1    
     8    4   65 1    
     9    5    6 1    
    10    5   25 1    
    11    5   66 1    
    12    6    7 1    
    13    6   67 1    
    14    6   68 1    
    15    7    8 1    
    16    8    9 1    
    17    8   69 1    
    18    8   70 1    
    19    9   10 ar   
    20    9   14 ar   
    21   10   11 ar   
    22   10   71 1    
    23   11   12 ar   
    24   11   61 1    
    25   12   13 ar   
    26   12   72 1    
    27   13   14 ar   
    28   13   15 1    
    29   14   73 1    
    30   15   16 1    
    31   15   74 1    
    32   15   75 1    
    33   16   17 1    
    34   17   18 1    
    35   17   76 1    
    36   17   77 1    
    37   18   19 1    
    38   18   27 1    
    39   18   78 1    
    40   19   20 am   BACKBONE|DICT|INTERRES
    41   19   79 1    
    42   20   21 2    
    43   20   22 1    
    44   22   23 1    
    45   22   24 1    
    46   22   80 1    
    47   23   81 1    
    48   23   82 1    
    49   23   83 1    
    50   24   25 am   BACKBONE|DICT|INTERRES
    51   24   84 1    
    52   25   26 2    
    53   27   28 2    
    54   27   29 am   BACKBONE|DICT|INTERRES
    55   29   30 1    
    56   29   85 1    
    57   30   31 1    
    58   30   32 1    
    59   30   86 1    
    60   31   87 1    
    61   31   88 1    
    62   31   89 1    
    63   32   33 2    
    64   32   34 am   BACKBONE|DICT|INTERRES
    65   34   35 1    
    66   34   90 1    
    67   35   36 1    
    68   35   37 1    
    69   35   91 1    
    70   36   92 1    
    71   36   93 1    
    72   36   94 1    
    73   37   38 2    
    74   37   39 am   BACKBONE|DICT|INTERRES
    75   39   40 1    
    76   39   95 1    
    77   40   41 1    
    78   40   42 1    
    79   40   96 1    
    80   41   97 1    
    81   41   98 1    
    82   41   99 1    
    83   42   43 2    
    84   42   44 am   BACKBONE|DICT|INTERRES
    85   44   45 1    
    86   44  100 1    
    87   45   46 1    
    88   45   47 1    
    89   45  101 1    
    90   46  102 1    
    91   46  103 1    
    92   46  104 1    
    93   47   48 2    
    94   47   49 am   BACKBONE|DICT|INTERRES
    95   49   50 1    
    96   49  105 1    
    97   50   51 1    
    98   50   52 1    
    99   50  106 1    
   100   51  107 1    
   101   51  108 1    
   102   51  109 1    
   103   52   53 2    
   104   52   54 am   BACKBONE|DICT|INTERRES
   105   54   55 1    
   106   54  110 1    
   107   55   56 1    
   108   55   59 1    
   109   55  111 1    
   110   56   57 am   BACKBONE|DICT|INTERRES
   111   56   58 2    
   112   57  112 1    
   113   57  113 1    
   114   59   60 1    
   115   59  114 1    
   116   59  115 1    
   117   60   61 1    
   118   61  116 1    
   119   61  117 1    
@<TRIPOS>SUBSTRUCTURE
     1 UNK         1 GROUP             0       ****    0 ROOT    
