@<TRIPOS>MOLECULE
3R8
117   119    1
SMALL
USER_CHARGES


@<TRIPOS>ATOM
      1 CA         16.0357  -23.6449  -40.5799 C.3       0 UNK        -0.2013 
      2 C          16.0887  -23.9454  -42.0704 C.2       0 UNK         0.4866 
      3 O          15.6075  -23.1464  -42.8747 O.2       0 UNK        -0.5176 
      4 N          16.6616  -25.0957  -42.4440 N.am      1 UNK        -0.4884 
      5 CA         16.8819  -25.5146  -43.8315 C.3       1 UNK         0.0853 
      6 C6         17.1439  -27.0406  -43.9361 C.3       10 UNK        -0.0849 
      7 S7         18.4511  -27.6662  -42.8186 S.3       10 UNK        -0.2776 
      8 C8         18.1321  -29.4628  -42.8687 C.3       10 UNK         0.0316 
      9 C9         19.2075  -30.2013  -43.6526 C.ar      10 UNK        -0.0863 
     10 C10        20.0597  -31.1013  -43.0061 C.ar      10 UNK        -0.1009 
     11 C11        21.0591  -31.7735  -43.7174 C.ar      10 UNK        -0.0712 
     12 C12        21.2387  -31.4946  -45.0746 C.ar      10 UNK        -0.0894 
     13 C13        20.4156  -30.5714  -45.7262 C.ar      10 UNK        -0.0745 
     14 C14        19.3680  -29.9694  -45.0210 C.ar      10 UNK        -0.0972 
     15 C15        20.7010  -30.1935  -47.1758 C.3       10 UNK         0.0209 
     16 S16        20.7580  -28.3879  -47.4699 S.3       10 UNK        -0.2568 
     17 C17        21.7289  -27.7527  -46.0513 C.3       10 UNK        -0.0983 
     18 CA         21.8283  -26.2049  -46.0144 C.3       3 UNK         0.0876 
     19 N          20.5256  -25.5667  -46.2299 N.am      3 UNK        -0.4424 
     20 C          20.3325  -24.2990  -46.6142 C.2       2 UNK         0.4918 
     21 O          21.2450  -23.5215  -46.8936 O.2       2 UNK        -0.4875 
     22 CA         18.8740  -23.8036  -46.6705 C.3       2 UNK         0.0481 
     23 CB         18.3702  -23.8018  -48.1226 C.3       2 UNK        -0.1831 
     24 N          17.9322  -24.5626  -45.8341 N.am      2 UNK        -0.4498 
     25 C          18.0033  -24.6916  -44.5000 C.2       1 UNK         0.5027 
     26 O          18.9236  -24.2305  -43.8188 O.2       1 UNK        -0.4969 
     27 C          22.5019  -25.7408  -44.6989 C.2       3 UNK         0.5005 
     28 O          23.6765  -26.0508  -44.4955 O.2       3 UNK        -0.5279 
     29 N          21.7586  -25.0262  -43.8330 N.am      4 UNK        -0.4463 
     30 CA         22.1534  -24.5116  -42.5167 C.3       4 UNK         0.0283 
     31 CB         23.2827  -23.4664  -42.6401 C.3       4 UNK        -0.1875 
     32 C          22.4779  -25.6460  -41.5299 C.2       4 UNK         0.4949 
     33 O          23.5466  -25.6501  -40.9171 O.2       4 UNK        -0.5039 
     34 N          21.5556  -26.6151  -41.4327 N.am      5 UNK        -0.4663 
     35 CA         21.5781  -27.8415  -40.6170 C.3       5 UNK         0.0242 
     36 CB         21.6835  -27.5248  -39.1129 C.3       5 UNK        -0.1982 
     37 C          22.6291  -28.8851  -41.0346 C.2       5 UNK         0.5017 
     38 O          22.3505  -30.0776  -40.9118 O.2       5 UNK        -0.5012 
     39 N          23.7930  -28.4353  -41.5238 N.am      6 UNK        -0.4439 
     40 CA         24.9043  -29.2133  -42.0763 C.3       6 UNK         0.0297 
     41 CB         24.5372  -29.7087  -43.4936 C.3       6 UNK        -0.2006 
     42 C          25.3753  -30.3232  -41.1151 C.2       6 UNK         0.4892 
     43 O          25.9378  -30.0110  -40.0650 O.2       6 UNK        -0.5089 
     44 N          25.1236  -31.5868  -41.4798 N.am      7 UNK        -0.4243 
     45 CA         25.4477  -32.7838  -40.6996 C.3       7 UNK         0.0196 
     46 CB         25.5104  -33.9866  -41.6582 C.3       7 UNK        -0.2007 
     47 C          24.4772  -33.0680  -39.5333 C.2       7 UNK         0.5020 
     48 O          24.6803  -34.0621  -38.8359 O.2       7 UNK        -0.5147 
     49 N          23.4449  -32.2288  -39.3472 N.am      8 UNK        -0.4734 
     50 CA         22.3487  -32.3623  -38.3769 C.3       8 UNK         0.0238 
     51 CB         22.8654  -32.3141  -36.9225 C.3       8 UNK        -0.1912 
     52 C          21.4727  -33.5920  -38.6807 C.2       8 UNK         0.5038 
     53 O          21.2494  -34.4348  -37.8092 O.2       8 UNK        -0.5046 
     54 N          21.0226  -33.6659  -39.9393 N.am      9 UNK        -0.4200 
     55 CA         20.1633  -34.7124  -40.5088 C.3       9 UNK         0.0839 
     56 C          18.8116  -34.8581  -39.7569 C.2       9 UNK         0.5513 
     57 N          18.3327  -36.0805  -39.5719 N.am      9 UNK        -0.7519 
     58 O          18.1753  -33.8731  -39.3876 O.2       9 UNK        -0.4960 
     59 C59        19.9054  -34.4625  -42.0193 C.3       10 UNK        -0.0876 
     60 S60        21.4181  -34.4747  -43.0465 S.3       10 UNK        -0.2414 
     61 C61        21.9941  -32.7449  -43.0103 C.3       10 UNK         0.0169 
     62 H62        15.0017  -23.5252  -40.2574 H         1 UNK         0.0903 
     63 H63        16.4859  -24.4411  -39.9871 H         1 UNK         0.0903 
     64 H64        16.5695  -22.7195  -40.3653 H         1 UNK         0.0903 
     65 H65        17.0722  -25.7031  -41.7485 H         1 UNK         0.3096 
     66 H66        15.9619  -25.3012  -44.3813 H         1 UNK         0.1121 
     67 H67        17.3808  -27.3298  -44.9615 H         1 UNK         0.0849 
     68 H68        16.2166  -27.5626  -43.6943 H         1 UNK         0.0849 
     69 H69        18.0862  -29.8311  -41.8426 H         1 UNK         0.0865 
     70 H70        17.1565  -29.6752  -43.3074 H         1 UNK         0.0865 
     71 H71        19.9516  -31.2727  -41.9442 H         1 UNK         0.1346 
     72 H72        22.0405  -31.9779  -45.6160 H         1 UNK         0.1412 
     73 H73        18.7222  -29.2634  -45.5235 H         1 UNK         0.1426 
     74 H74        19.9340  -30.6322  -47.8150 H         1 UNK         0.0716 
     75 H75        21.6526  -30.6174  -47.5003 H         1 UNK         0.0716 
     76 H76        22.7249  -28.1974  -46.0925 H         1 UNK         0.0695 
     77 H77        21.2782  -28.1059  -45.1234 H         1 UNK         0.0695 
     78 H78        22.4862  -25.8950  -46.8294 H         1 UNK         0.0983 
     79 H79        19.7177  -26.1453  -46.0573 H         1 UNK         0.3095 
     80 H80        18.8712  -22.7734  -46.3088 H         1 UNK         0.0454 
     81 H81        18.3232  -24.8104  -48.5354 H         1 UNK         0.0851 
     82 H82        19.0316  -23.2187  -48.7652 H         1 UNK         0.0851 
     83 H83        17.3772  -23.3588  -48.1999 H         1 UNK         0.0851 
     84 H84        17.1515  -24.9825  -46.3192 H         1 UNK         0.2976 
     85 H85        20.7937  -24.8292  -44.0840 H         1 UNK         0.3116 
     86 H86        21.2779  -23.9988  -42.1154 H         1 UNK         0.0646 
     87 H87        23.0093  -22.6670  -43.3287 H         1 UNK         0.0847 
     88 H88        24.2139  -23.9101  -42.9936 H         1 UNK         0.0847 
     89 H89        23.4918  -23.0050  -41.6743 H         1 UNK         0.0847 
     90 H90        20.7383  -26.5264  -42.0230 H         1 UNK         0.3040 
     91 H91        20.6094  -28.3168  -40.7797 H         1 UNK         0.1015 
     92 H92        22.6407  -27.0706  -38.8555 H         1 UNK         0.0786 
     93 H93        21.5892  -28.4346  -38.5182 H         1 UNK         0.0786 
     94 H94        20.8922  -26.8463  -38.7945 H         1 UNK         0.0786 
     95 H95        23.9288  -27.4282  -41.4895 H         1 UNK         0.3172 
     96 H96        25.7434  -28.5236  -42.1776 H         1 UNK         0.0595 
     97 H97        23.6321  -30.3149  -43.4983 H         1 UNK         0.0839 
     98 H98        25.3437  -30.2953  -43.9358 H         1 UNK         0.0839 
     99 H99        24.3597  -28.8644  -44.1602 H         1 UNK         0.0839 
    100 H100       24.6473  -31.7352  -42.3562 H         1 UNK         0.2998 
    101 H101       26.4386  -32.6478  -40.2611 H         1 UNK         0.0822 
    102 H102       26.2163  -33.8131  -42.4707 H         1 UNK         0.0787 
    103 H103       25.8389  -34.8867  -41.1368 H         1 UNK         0.0787 
    104 H104       24.5366  -34.2056  -42.0974 H         1 UNK         0.0787 
    105 H105       23.3473  -31.4439  -39.9871 H         1 UNK         0.3055 
    106 H106       21.7070  -31.4907  -38.5185 H         1 UNK         0.1106 
    107 H107       23.4717  -33.1849  -36.6721 H         1 UNK         0.0828 
    108 H108       22.0339  -32.2885  -36.2173 H         1 UNK         0.0828 
    109 H109       23.4679  -31.4232  -36.7457 H         1 UNK         0.0828 
    110 H110       21.2714  -32.9200  -40.5690 H         1 UNK         0.2931 
    111 H111       20.7103  -35.6520  -40.4075 H         1 UNK         0.0412 
    112 H112       17.4481  -36.1950  -39.1014 H         1 UNK         0.3472 
    113 H113       18.8432  -36.8933  -39.8819 H         1 UNK         0.3472 
    114 H114       19.3483  -33.5398  -42.1750 H         1 UNK         0.0970 
    115 H115       19.2624  -35.2513  -42.4148 H         1 UNK         0.0970 
    116 H116       22.1641  -32.4291  -41.9842 H         1 UNK         0.0612 
    117 H117       22.9727  -32.7141  -43.4903 H         1 UNK         0.0612 
@<TRIPOS>BOND
     1    1    2 1    
     2    1   62 1    
     3    1   63 1    
     4    1   64 1    
     5    2    3 2    
     6    2    4 am   BACKBONE|DICT|INTERRES
     7    4    5 1    
     8    4   65 1    
     9    5    6 1    
    10    5   25 1    
    11    5   66 1    
    12    6    7 1    
    13    6   67 1    
    14    6   68 1    
    15    7    8 1    
    16    8    9 1    
    17    8   69 1    
    18    8   70 1    
    19    9   10 ar   
    20    9   14 ar   
    21   10   11 ar   
    22   10   71 1    
    23   11   12 ar   
    24   11   61 1    
    25   12   13 ar   
    26   12   72 1    
    27   13   14 ar   
    28   13   15 1    
    29   14   73 1    
    30   15   16 1    
    31   15   74 1    
    32   15   75 1    
    33   16   17 1    
    34   17   18 1    
    35   17   76 1    
    36   17   77 1    
    37   18   19 1    
    38   18   27 1    
    39   18   78 1    
    40   19   20 am   BACKBONE|DICT|INTERRES
    41   19   79 1    
    42   20   21 2    
    43   20   22 1    
    44   22   23 1    
    45   22   24 1    
    46   22   80 1    
    47   23   81 1    
    48   23   82 1    
    49   23   83 1    
    50   24   25 am   BACKBONE|DICT|INTERRES
    51   24   84 1    
    52   25   26 2    
    53   27   28 2    
    54   27   29 am   BACKBONE|DICT|INTERRES
    55   29   30 1    
    56   29   85 1    
    57   30   31 1    
    58   30   32 1    
    59   30   86 1    
    60   31   87 1    
    61   31   88 1    
    62   31   89 1    
    63   32   33 2    
    64   32   34 am   BACKBONE|DICT|INTERRES
    65   34   35 1    
    66   34   90 1    
    67   35   36 1    
    68   35   37 1    
    69   35   91 1    
    70   36   92 1    
    71   36   93 1    
    72   36   94 1    
    73   37   38 2    
    74   37   39 am   BACKBONE|DICT|INTERRES
    75   39   40 1    
    76   39   95 1    
    77   40   41 1    
    78   40   42 1    
    79   40   96 1    
    80   41   97 1    
    81   41   98 1    
    82   41   99 1    
    83   42   43 2    
    84   42   44 am   BACKBONE|DICT|INTERRES
    85   44   45 1    
    86   44  100 1    
    87   45   46 1    
    88   45   47 1    
    89   45  101 1    
    90   46  102 1    
    91   46  103 1    
    92   46  104 1    
    93   47   48 2    
    94   47   49 am   BACKBONE|DICT|INTERRES
    95   49   50 1    
    96   49  105 1    
    97   50   51 1    
    98   50   52 1    
    99   50  106 1    
   100   51  107 1    
   101   51  108 1    
   102   51  109 1    
   103   52   53 2    
   104   52   54 am   BACKBONE|DICT|INTERRES
   105   54   55 1    
   106   54  110 1    
   107   55   56 1    
   108   55   59 1    
   109   55  111 1    
   110   56   57 am   BACKBONE|DICT|INTERRES
   111   56   58 2    
   112   57  112 1    
   113   57  113 1    
   114   59   60 1    
   115   59  114 1    
   116   59  115 1    
   117   60   61 1    
   118   61  116 1    
   119   61  117 1    
@<TRIPOS>SUBSTRUCTURE
     1 UNK         1 GROUP             0       ****    0 ROOT    
