@<TRIPOS>MOLECULE
3R8
117   119    1
SMALL
USER_CHARGES


@<TRIPOS>ATOM
      1 CA         17.8932  -23.4309  -48.6664 C.3       0 UNK        -0.2013 
      2 C          18.6965  -24.0855  -47.5524 C.2       0 UNK         0.4866 
      3 O          19.7654  -23.5889  -47.1948 O.2       0 UNK        -0.5176 
      4 N          18.1960  -25.2012  -47.0082 N.am      1 UNK        -0.4884 
      5 CA         18.8099  -25.9357  -45.8973 C.3       1 UNK         0.0853 
      6 C6         18.1634  -27.3294  -45.6983 C.3       10 UNK        -0.0849 
      7 S7         18.3918  -28.4530  -47.1126 S.3       10 UNK        -0.2776 
      8 C8         16.8956  -29.4851  -46.9730 C.3       10 UNK         0.0316 
      9 C9         16.9032  -30.3504  -45.7176 C.ar      10 UNK        -0.0863 
     10 C10        17.4933  -31.6169  -45.7409 C.ar      10 UNK        -0.1009 
     11 C11        17.4644  -32.4361  -44.6081 C.ar      10 UNK        -0.0712 
     12 C12        16.8638  -31.9694  -43.4336 C.ar      10 UNK        -0.0894 
     13 C13        16.2673  -30.7047  -43.3955 C.ar      10 UNK        -0.0745 
     14 C14        16.2831  -29.9064  -44.5449 C.ar      10 UNK        -0.0972 
     15 C15        15.5272  -30.2379  -42.1462 C.3       10 UNK         0.0209 
     16 S16        16.0788  -28.6032  -41.5521 S.3       10 UNK        -0.2568 
     17 C17        17.2353  -29.0030  -40.1927 C.3       10 UNK        -0.0983 
     18 CA         18.6985  -28.5713  -40.4806 C.3       3 UNK         0.0876 
     19 N          18.7784  -27.1698  -40.9111 N.am      3 UNK        -0.4424 
     20 C          19.7383  -26.6676  -41.6925 C.2       2 UNK         0.4918 
     21 O          20.7401  -27.2947  -42.0408 O.2       2 UNK        -0.4875 
     22 CA         19.5253  -25.2543  -42.2405 C.3       2 UNK         0.0481 
     23 CB         20.5783  -24.2728  -41.7027 C.3       2 UNK        -0.1831 
     24 N          19.6639  -25.4024  -43.6833 N.am      2 UNK        -0.4498 
     25 C          18.6957  -25.1597  -44.5705 C.2       1 UNK         0.5027 
     26 O          17.7036  -24.4619  -44.3420 O.2       1 UNK        -0.4969 
     27 C          19.6433  -28.8357  -39.2843 C.2       3 UNK         0.5005 
     28 O          19.1849  -29.1685  -38.1888 O.2       3 UNK        -0.5279 
     29 N          20.9461  -28.6455  -39.5078 N.am      4 UNK        -0.4463 
     30 CA         22.0366  -28.8557  -38.5632 C.3       4 UNK         0.0283 
     31 CB         22.4108  -27.5207  -37.8995 C.3       4 UNK        -0.1875 
     32 C          23.2183  -29.4234  -39.3499 C.2       4 UNK         0.4949 
     33 O          23.4081  -29.0427  -40.5060 O.2       4 UNK        -0.5039 
     34 N          23.9966  -30.3123  -38.7187 N.am      5 UNK        -0.4663 
     35 CA         25.0471  -31.1257  -39.3526 C.3       5 UNK         0.0242 
     36 CB         25.6307  -32.0920  -38.3093 C.3       5 UNK        -0.1982 
     37 C          26.1739  -30.3394  -40.0473 C.2       5 UNK         0.5017 
     38 O          26.8149  -30.8778  -40.9502 O.2       5 UNK        -0.5012 
     39 N          26.3813  -29.0835  -39.6333 N.am      6 UNK        -0.4439 
     40 CA         27.3104  -28.1395  -40.2553 C.3       6 UNK         0.0297 
     41 CB         27.5624  -26.9775  -39.2800 C.3       6 UNK        -0.2006 
     42 C          26.8311  -27.5992  -41.6185 C.2       6 UNK         0.4892 
     43 O          27.6553  -27.0523  -42.3529 O.2       6 UNK        -0.5089 
     44 N          25.5323  -27.7297  -41.9255 N.am      7 UNK        -0.4243 
     45 CA         24.8989  -27.1992  -43.1314 C.3       7 UNK         0.0196 
     46 CB         23.8926  -26.1068  -42.7357 C.3       7 UNK        -0.2007 
     47 C          24.2282  -28.3110  -43.9487 C.2       7 UNK         0.5020 
     48 O          24.5716  -28.4772  -45.1198 O.2       7 UNK        -0.5147 
     49 N          23.2942  -29.0526  -43.3406 N.am      8 UNK        -0.4734 
     50 CA         22.5274  -30.1138  -43.9902 C.3       8 UNK         0.0238 
     51 CB         21.4194  -29.5139  -44.8795 C.3       8 UNK        -0.1912 
     52 C          21.9127  -31.0391  -42.9356 C.2       8 UNK         0.5038 
     53 O          21.1760  -30.5644  -42.0700 O.2       8 UNK        -0.5046 
     54 N          22.1918  -32.3423  -43.0600 N.am      9 UNK        -0.4200 
     55 CA         21.5563  -33.4828  -42.3683 C.3       9 UNK         0.0839 
     56 C          21.7237  -33.5633  -40.8238 C.2       9 UNK         0.5513 
     57 N          21.8509  -32.4578  -40.1100 N.am      9 UNK        -0.7519 
     58 O          21.7473  -34.6585  -40.2687 O.2       9 UNK        -0.4960 
     59 C59        20.0632  -33.6488  -42.7571 C.3       10 UNK        -0.0876 
     60 S60        19.8413  -33.8714  -44.5534 S.3       10 UNK        -0.2414 
     61 C61        18.0297  -33.8475  -44.6804 C.3       10 UNK         0.0169 
     62 H62        18.4886  -23.3783  -49.5775 H         1 UNK         0.0903 
     63 H63        16.9802  -23.9826  -48.8898 H         1 UNK         0.0903 
     64 H64        17.6151  -22.4165  -48.3817 H         1 UNK         0.0903 
     65 H65        17.3114  -25.5629  -47.3345 H         1 UNK         0.3096 
     66 H66        19.8695  -26.0696  -46.1285 H         1 UNK         0.1121 
     67 H67        17.0959  -27.2126  -45.5025 H         1 UNK         0.0849 
     68 H68        18.5762  -27.8342  -44.8219 H         1 UNK         0.0849 
     69 H69        16.0083  -28.8503  -46.9937 H         1 UNK         0.0865 
     70 H70        16.8266  -30.1215  -47.8566 H         1 UNK         0.0865 
     71 H71        17.9587  -31.9761  -46.6488 H         1 UNK         0.1346 
     72 H72        16.8303  -32.6064  -42.5604 H         1 UNK         0.1412 
     73 H73        15.7979  -28.9404  -44.5251 H         1 UNK         0.1426 
     74 H74        15.5980  -30.9740  -41.3444 H         1 UNK         0.0716 
     75 H75        14.4666  -30.1674  -42.3910 H         1 UNK         0.0716 
     76 H76        16.8601  -28.5035  -39.2975 H         1 UNK         0.0695 
     77 H77        17.1977  -30.0723  -39.9789 H         1 UNK         0.0695 
     78 H78        19.0527  -29.1977  -41.3029 H         1 UNK         0.0983 
     79 H79        17.9866  -26.5923  -40.6693 H         1 UNK         0.3095 
     80 H80        18.5291  -24.8997  -41.9673 H         1 UNK         0.0454 
     81 H81        20.5068  -24.1811  -40.6184 H         1 UNK         0.0851 
     82 H82        21.5930  -24.5926  -41.9370 H         1 UNK         0.0851 
     83 H83        20.4385  -23.2774  -42.1239 H         1 UNK         0.0851 
     84 H84        20.4192  -26.0213  -43.9494 H         1 UNK         0.2976 
     85 H85        21.2372  -28.4090  -40.4551 H         1 UNK         0.3116 
     86 H86        21.7362  -29.5779  -37.8012 H         1 UNK         0.0646 
     87 H87        23.2294  -27.6503  -37.1906 H         1 UNK         0.0847 
     88 H88        21.5677  -27.1038  -37.3486 H         1 UNK         0.0847 
     89 H89        22.7275  -26.7803  -38.6357 H         1 UNK         0.0847 
     90 H90        23.7859  -30.5343  -37.7558 H         1 UNK         0.3040 
     91 H91        24.5661  -31.7199  -40.1325 H         1 UNK         0.1015 
     92 H92        24.8622  -32.7511  -37.9049 H         1 UNK         0.0786 
     93 H93        26.0902  -31.5574  -37.4770 H         1 UNK         0.0786 
     94 H94        26.3982  -32.7293  -38.7513 H         1 UNK         0.0786 
     95 H95        25.8004  -28.7334  -38.8854 H         1 UNK         0.3172 
     96 H96        28.2589  -28.6540  -40.4235 H         1 UNK         0.0595 
     97 H97        27.9697  -27.3330  -38.3333 H         1 UNK         0.0839 
     98 H98        26.6476  -26.4227  -39.0672 H         1 UNK         0.0839 
     99 H99        28.2825  -26.2698  -39.6935 H         1 UNK         0.0839 
    100 H100       24.9199  -28.2349  -41.2899 H         1 UNK         0.2998 
    101 H101       25.6438  -26.7381  -43.7835 H         1 UNK         0.0822 
    102 H102       23.3053  -25.7779  -43.5941 H         1 UNK         0.0787 
    103 H103       23.1982  -26.4616  -41.9745 H         1 UNK         0.0787 
    104 H104       24.4024  -25.2312  -42.3341 H         1 UNK         0.0787 
    105 H105       23.0857  -28.9027  -42.3544 H         1 UNK         0.3055 
    106 H106       23.2029  -30.6964  -44.6205 H         1 UNK         0.1106 
    107 H107       20.7484  -28.8780  -44.3017 H         1 UNK         0.0828 
    108 H108       21.8313  -28.9156  -45.6919 H         1 UNK         0.0828 
    109 H109       20.8104  -30.2982  -45.3319 H         1 UNK         0.0828 
    110 H110       22.8408  -32.6143  -43.7834 H         1 UNK         0.2931 
    111 H111       22.0840  -34.3570  -42.7527 H         1 UNK         0.0412 
    112 H112       21.9545  -32.5132  -39.1106 H         1 UNK         0.3472 
    113 H113       21.7427  -31.5657  -40.5827 H         1 UNK         0.3472 
    114 H114       19.4886  -32.7812  -42.4282 H         1 UNK         0.0970 
    115 H115       19.6271  -34.5160  -42.2572 H         1 UNK         0.0970 
    116 H116       17.5990  -34.4803  -43.9029 H         1 UNK         0.0612 
    117 H117       17.7429  -34.3000  -45.6308 H         1 UNK         0.0612 
@<TRIPOS>BOND
     1    1    2 1    
     2    1   62 1    
     3    1   63 1    
     4    1   64 1    
     5    2    3 2    
     6    2    4 am   BACKBONE|DICT|INTERRES
     7    4    5 1    
     8    4   65 1    
     9    5    6 1    
    10    5   25 1    
    11    5   66 1    
    12    6    7 1    
    13    6   67 1    
    14    6   68 1    
    15    7    8 1    
    16    8    9 1    
    17    8   69 1    
    18    8   70 1    
    19    9   10 ar   
    20    9   14 ar   
    21   10   11 ar   
    22   10   71 1    
    23   11   12 ar   
    24   11   61 1    
    25   12   13 ar   
    26   12   72 1    
    27   13   14 ar   
    28   13   15 1    
    29   14   73 1    
    30   15   16 1    
    31   15   74 1    
    32   15   75 1    
    33   16   17 1    
    34   17   18 1    
    35   17   76 1    
    36   17   77 1    
    37   18   19 1    
    38   18   27 1    
    39   18   78 1    
    40   19   20 am   BACKBONE|DICT|INTERRES
    41   19   79 1    
    42   20   21 2    
    43   20   22 1    
    44   22   23 1    
    45   22   24 1    
    46   22   80 1    
    47   23   81 1    
    48   23   82 1    
    49   23   83 1    
    50   24   25 am   BACKBONE|DICT|INTERRES
    51   24   84 1    
    52   25   26 2    
    53   27   28 2    
    54   27   29 am   BACKBONE|DICT|INTERRES
    55   29   30 1    
    56   29   85 1    
    57   30   31 1    
    58   30   32 1    
    59   30   86 1    
    60   31   87 1    
    61   31   88 1    
    62   31   89 1    
    63   32   33 2    
    64   32   34 am   BACKBONE|DICT|INTERRES
    65   34   35 1    
    66   34   90 1    
    67   35   36 1    
    68   35   37 1    
    69   35   91 1    
    70   36   92 1    
    71   36   93 1    
    72   36   94 1    
    73   37   38 2    
    74   37   39 am   BACKBONE|DICT|INTERRES
    75   39   40 1    
    76   39   95 1    
    77   40   41 1    
    78   40   42 1    
    79   40   96 1    
    80   41   97 1    
    81   41   98 1    
    82   41   99 1    
    83   42   43 2    
    84   42   44 am   BACKBONE|DICT|INTERRES
    85   44   45 1    
    86   44  100 1    
    87   45   46 1    
    88   45   47 1    
    89   45  101 1    
    90   46  102 1    
    91   46  103 1    
    92   46  104 1    
    93   47   48 2    
    94   47   49 am   BACKBONE|DICT|INTERRES
    95   49   50 1    
    96   49  105 1    
    97   50   51 1    
    98   50   52 1    
    99   50  106 1    
   100   51  107 1    
   101   51  108 1    
   102   51  109 1    
   103   52   53 2    
   104   52   54 am   BACKBONE|DICT|INTERRES
   105   54   55 1    
   106   54  110 1    
   107   55   56 1    
   108   55   59 1    
   109   55  111 1    
   110   56   57 am   BACKBONE|DICT|INTERRES
   111   56   58 2    
   112   57  112 1    
   113   57  113 1    
   114   59   60 1    
   115   59  114 1    
   116   59  115 1    
   117   60   61 1    
   118   61  116 1    
   119   61  117 1    
@<TRIPOS>SUBSTRUCTURE
     1 UNK         1 GROUP             0       ****    0 ROOT    
