@<TRIPOS>MOLECULE
3R8
117   119    1
SMALL
USER_CHARGES


@<TRIPOS>ATOM
      1 CA         15.9631  -23.0094  -47.4136 C.3       0 UNK        -0.2013 
      2 C          16.8907  -24.1868  -47.1531 C.2       0 UNK         0.4866 
      3 O          17.8266  -24.4086  -47.9215 O.2       0 UNK        -0.5176 
      4 N          16.6327  -24.9456  -46.0796 N.am      1 UNK        -0.4884 
      5 CA         17.4189  -26.1126  -45.6614 C.3       1 UNK         0.0853 
      6 C6         16.7401  -26.8706  -44.4956 C.3       10 UNK        -0.0849 
      7 S7         15.2779  -27.8323  -45.0082 S.3       10 UNK        -0.2776 
      8 C8         15.9958  -29.4448  -45.4997 C.3       10 UNK         0.0316 
      9 C9         17.0412  -29.9951  -44.5307 C.ar      10 UNK        -0.0863 
     10 C10        18.2619  -30.4668  -45.0231 C.ar      10 UNK        -0.1009 
     11 C11        19.2451  -30.9472  -44.1534 C.ar      10 UNK        -0.0712 
     12 C12        19.0107  -30.9331  -42.7753 C.ar      10 UNK        -0.0894 
     13 C13        17.7980  -30.4560  -42.2668 C.ar      10 UNK        -0.0745 
     14 C14        16.8088  -30.0141  -43.1508 C.ar      10 UNK        -0.0972 
     15 C15        17.5433  -30.4238  -40.7650 C.3       10 UNK         0.0209 
     16 S16        18.8014  -29.4808  -39.8394 S.3       10 UNK        -0.2568 
     17 C17        18.6578  -27.7893  -40.5207 C.3       10 UNK        -0.0983 
     18 CA         19.9792  -27.2801  -41.1566 C.3       3 UNK         0.0876 
     19 N          19.7493  -26.1072  -42.0158 N.am      3 UNK        -0.4424 
     20 C          20.6805  -25.4596  -42.7367 C.2       2 UNK         0.4918 
     21 O          21.8811  -25.7327  -42.7018 O.2       2 UNK        -0.4875 
     22 CA         20.1744  -24.3200  -43.6475 C.3       2 UNK         0.0481 
     23 CB         21.2671  -23.7778  -44.5930 C.3       2 UNK        -0.1831 
     24 N          18.9708  -24.7067  -44.3956 N.am      2 UNK        -0.4498 
     25 C          18.8536  -25.7471  -45.2381 C.2       1 UNK         0.5027 
     26 O          19.7941  -26.4407  -45.6266 O.2       1 UNK        -0.4969 
     27 C          21.0794  -27.0491  -40.0941 C.2       3 UNK         0.5005 
     28 O          21.8792  -27.9496  -39.8424 O.2       3 UNK        -0.5279 
     29 N          21.1461  -25.8293  -39.5393 N.am      4 UNK        -0.4463 
     30 CA         22.1693  -25.4029  -38.5783 C.3       4 UNK         0.0283 
     31 CB         21.8154  -24.0040  -38.0487 C.3       4 UNK        -0.1875 
     32 C          23.6065  -25.4162  -39.1367 C.2       4 UNK         0.4949 
     33 O          24.5449  -25.5998  -38.3610 O.2       4 UNK        -0.5039 
     34 N          23.7560  -25.2258  -40.4547 N.am      5 UNK        -0.4663 
     35 CA         25.0349  -25.3040  -41.1617 C.3       5 UNK         0.0242 
     36 CB         25.0682  -24.2440  -42.2756 C.3       5 UNK        -0.1982 
     37 C          25.2660  -26.7066  -41.7440 C.2       5 UNK         0.5017 
     38 O          26.3873  -27.2100  -41.6714 O.2       5 UNK        -0.5012 
     39 N          24.2118  -27.3041  -42.3191 N.am      6 UNK        -0.4439 
     40 CA         24.2453  -28.6132  -42.9764 C.3       6 UNK         0.0297 
     41 CB         22.9625  -28.8028  -43.8013 C.3       6 UNK        -0.2006 
     42 C          24.4430  -29.7952  -42.0103 C.2       6 UNK         0.4892 
     43 O          25.0535  -30.7876  -42.4094 O.2       6 UNK        -0.5089 
     44 N          23.9343  -29.6673  -40.7752 N.am      7 UNK        -0.4243 
     45 CA         23.9326  -30.6707  -39.7067 C.3       7 UNK         0.0196 
     46 CB         25.3710  -30.9737  -39.2254 C.3       7 UNK        -0.2007 
     47 C          23.1077  -31.9135  -40.0977 C.2       7 UNK         0.5020 
     48 O          22.0262  -31.7633  -40.6696 O.2       7 UNK        -0.5147 
     49 N          23.6003  -33.1138  -39.7610 N.am      8 UNK        -0.4734 
     50 CA         22.9752  -34.3953  -40.0950 C.3       8 UNK         0.0238 
     51 CB         23.7021  -35.5286  -39.3509 C.3       8 UNK        -0.1912 
     52 C          22.9859  -34.6306  -41.6151 C.2       8 UNK         0.5038 
     53 O          24.0647  -34.7467  -42.2009 O.2       8 UNK        -0.5046 
     54 N          21.7915  -34.6757  -42.2163 N.am      9 UNK        -0.4200 
     55 CA         21.5884  -34.8035  -43.6680 C.3       9 UNK         0.0839 
     56 C          21.7966  -36.2377  -44.2390 C.2       9 UNK         0.5513 
     57 N          21.9591  -37.2654  -43.4139 N.am      9 UNK        -0.7519 
     58 O          21.8175  -36.4213  -45.4530 O.2       9 UNK        -0.4960 
     59 C59        20.2228  -34.1888  -44.0945 C.3       10 UNK        -0.0876 
     60 S60        20.3839  -33.0755  -45.5301 S.3       10 UNK        -0.2414 
     61 C61        20.5662  -31.4593  -44.7091 C.3       10 UNK         0.0169 
     62 H62        15.1766  -22.9346  -46.6628 H         1 UNK         0.0903 
     63 H63        16.5284  -22.0779  -47.4062 H         1 UNK         0.0903 
     64 H64        15.4904  -23.1134  -48.3899 H         1 UNK         0.0903 
     65 H65        15.8275  -24.7326  -45.5072 H         1 UNK         0.3096 
     66 H66        17.5050  -26.7862  -46.5173 H         1 UNK         0.1121 
     67 H67        16.4187  -26.1688  -43.7238 H         1 UNK         0.0849 
     68 H68        17.4472  -27.5278  -43.9895 H         1 UNK         0.0849 
     69 H69        15.1899  -30.1733  -45.5975 H         1 UNK         0.0865 
     70 H70        16.4253  -29.3318  -46.4964 H         1 UNK         0.0865 
     71 H71        18.4537  -30.4635  -46.0876 H         1 UNK         0.1346 
     72 H72        19.7747  -31.2840  -42.0940 H         1 UNK         0.1412 
     73 H73        15.8661  -29.6501  -42.7652 H         1 UNK         0.1426 
     74 H74        17.5299  -31.4483  -40.3909 H         1 UNK         0.0716 
     75 H75        16.5609  -30.0036  -40.5437 H         1 UNK         0.0716 
     76 H76        18.3231  -27.1190  -39.7268 H         1 UNK         0.0695 
     77 H77        17.8617  -27.7859  -41.2666 H         1 UNK         0.0695 
     78 H78        20.3458  -28.0655  -41.8201 H         1 UNK         0.0983 
     79 H79        18.7927  -25.7963  -42.0929 H         1 UNK         0.3095 
     80 H80        19.8787  -23.5054  -42.9850 H         1 UNK         0.0454 
     81 H81        22.1041  -23.3681  -44.0264 H         1 UNK         0.0851 
     82 H82        20.8834  -22.9784  -45.2265 H         1 UNK         0.0851 
     83 H83        21.6678  -24.5570  -45.2421 H         1 UNK         0.0851 
     84 H84        18.1306  -24.1907  -44.1734 H         1 UNK         0.2976 
     85 H85        20.4572  -25.1421  -39.8091 H         1 UNK         0.3116 
     86 H86        22.1419  -26.1016  -37.7394 H         1 UNK         0.0646 
     87 H87        22.5447  -23.6717  -37.3084 H         1 UNK         0.0847 
     88 H88        21.8016  -23.2607  -38.8468 H         1 UNK         0.0847 
     89 H89        20.8396  -23.9965  -37.5629 H         1 UNK         0.0847 
     90 H90        22.9279  -25.1306  -41.0304 H         1 UNK         0.3040 
     91 H91        25.8549  -25.0906  -40.4719 H         1 UNK         0.1015 
     92 H92        26.0216  -24.2664  -42.8052 H         1 UNK         0.0786 
     93 H93        24.9472  -23.2397  -41.8693 H         1 UNK         0.0786 
     94 H94        24.2820  -24.4031  -43.0145 H         1 UNK         0.0786 
     95 H95        23.3366  -26.7878  -42.3755 H         1 UNK         0.3172 
     96 H96        25.0902  -28.6092  -43.6683 H         1 UNK         0.0595 
     97 H97        22.0813  -28.8869  -43.1655 H         1 UNK         0.0839 
     98 H98        23.0231  -29.7136  -44.3974 H         1 UNK         0.0839 
     99 H99        22.8008  -27.9742  -44.4915 H         1 UNK         0.0839 
    100 H100       23.3647  -28.8481  -40.5744 H         1 UNK         0.2998 
    101 H101       23.3982  -30.2111  -38.8739 H         1 UNK         0.0822 
    102 H102       25.3672  -31.5723  -38.3137 H         1 UNK         0.0787 
    103 H103       25.9513  -31.5115  -39.9762 H         1 UNK         0.0787 
    104 H104       25.9064  -30.0524  -38.9949 H         1 UNK         0.0787 
    105 H105       24.5085  -33.1522  -39.3219 H         1 UNK         0.3055 
    106 H106       21.9412  -34.3678  -39.7436 H         1 UNK         0.1106 
    107 H107       23.6526  -35.3908  -38.2706 H         1 UNK         0.0828 
    108 H108       23.2480  -36.4950  -39.5739 H         1 UNK         0.0828 
    109 H109       24.7538  -35.5909  -39.6337 H         1 UNK         0.0828 
    110 H110       20.9574  -34.5801  -41.6564 H         1 UNK         0.2931 
    111 H111       22.3806  -34.2063  -44.1248 H         1 UNK         0.0412 
    112 H112       21.9481  -37.1281  -42.4162 H         1 UNK         0.3472 
    113 H113       22.0972  -38.1884  -43.7955 H         1 UNK         0.3472 
    114 H114       19.4894  -34.9608  -44.3363 H         1 UNK         0.0970 
    115 H115       19.7701  -33.6262  -43.2777 H         1 UNK         0.0970 
    116 H116       20.9507  -30.7402  -45.4336 H         1 UNK         0.0612 
    117 H117       21.3181  -31.5364  -43.9214 H         1 UNK         0.0612 
@<TRIPOS>BOND
     1    1    2 1    
     2    1   62 1    
     3    1   63 1    
     4    1   64 1    
     5    2    3 2    
     6    2    4 am   BACKBONE|DICT|INTERRES
     7    4    5 1    
     8    4   65 1    
     9    5    6 1    
    10    5   25 1    
    11    5   66 1    
    12    6    7 1    
    13    6   67 1    
    14    6   68 1    
    15    7    8 1    
    16    8    9 1    
    17    8   69 1    
    18    8   70 1    
    19    9   10 ar   
    20    9   14 ar   
    21   10   11 ar   
    22   10   71 1    
    23   11   12 ar   
    24   11   61 1    
    25   12   13 ar   
    26   12   72 1    
    27   13   14 ar   
    28   13   15 1    
    29   14   73 1    
    30   15   16 1    
    31   15   74 1    
    32   15   75 1    
    33   16   17 1    
    34   17   18 1    
    35   17   76 1    
    36   17   77 1    
    37   18   19 1    
    38   18   27 1    
    39   18   78 1    
    40   19   20 am   BACKBONE|DICT|INTERRES
    41   19   79 1    
    42   20   21 2    
    43   20   22 1    
    44   22   23 1    
    45   22   24 1    
    46   22   80 1    
    47   23   81 1    
    48   23   82 1    
    49   23   83 1    
    50   24   25 am   BACKBONE|DICT|INTERRES
    51   24   84 1    
    52   25   26 2    
    53   27   28 2    
    54   27   29 am   BACKBONE|DICT|INTERRES
    55   29   30 1    
    56   29   85 1    
    57   30   31 1    
    58   30   32 1    
    59   30   86 1    
    60   31   87 1    
    61   31   88 1    
    62   31   89 1    
    63   32   33 2    
    64   32   34 am   BACKBONE|DICT|INTERRES
    65   34   35 1    
    66   34   90 1    
    67   35   36 1    
    68   35   37 1    
    69   35   91 1    
    70   36   92 1    
    71   36   93 1    
    72   36   94 1    
    73   37   38 2    
    74   37   39 am   BACKBONE|DICT|INTERRES
    75   39   40 1    
    76   39   95 1    
    77   40   41 1    
    78   40   42 1    
    79   40   96 1    
    80   41   97 1    
    81   41   98 1    
    82   41   99 1    
    83   42   43 2    
    84   42   44 am   BACKBONE|DICT|INTERRES
    85   44   45 1    
    86   44  100 1    
    87   45   46 1    
    88   45   47 1    
    89   45  101 1    
    90   46  102 1    
    91   46  103 1    
    92   46  104 1    
    93   47   48 2    
    94   47   49 am   BACKBONE|DICT|INTERRES
    95   49   50 1    
    96   49  105 1    
    97   50   51 1    
    98   50   52 1    
    99   50  106 1    
   100   51  107 1    
   101   51  108 1    
   102   51  109 1    
   103   52   53 2    
   104   52   54 am   BACKBONE|DICT|INTERRES
   105   54   55 1    
   106   54  110 1    
   107   55   56 1    
   108   55   59 1    
   109   55  111 1    
   110   56   57 am   BACKBONE|DICT|INTERRES
   111   56   58 2    
   112   57  112 1    
   113   57  113 1    
   114   59   60 1    
   115   59  114 1    
   116   59  115 1    
   117   60   61 1    
   118   61  116 1    
   119   61  117 1    
@<TRIPOS>SUBSTRUCTURE
     1 UNK         1 GROUP             0       ****    0 ROOT    
