@<TRIPOS>MOLECULE
3R8
117   119    1
SMALL
USER_CHARGES


@<TRIPOS>ATOM
      1 CA         19.9248  -28.4954  -41.7303 C.3       0 UNK        -0.2013 
      2 C          19.3542  -27.1211  -42.0291 C.2       0 UNK         0.4866 
      3 O          19.6606  -26.1676  -41.3134 O.2       0 UNK        -0.5176 
      4 N          18.5229  -27.0254  -43.0731 N.am      1 UNK        -0.4884 
      5 CA         17.8472  -25.7986  -43.5065 C.3       1 UNK         0.0853 
      6 C6         16.4126  -26.0693  -44.0480 C.3       10 UNK        -0.0849 
      7 S7         15.3875  -27.0789  -42.9188 S.3       10 UNK        -0.2776 
      8 C8         15.1073  -28.5960  -43.8959 C.3       10 UNK         0.0316 
      9 C9         16.3660  -29.4450  -44.0270 C.ar      10 UNK        -0.0863 
     10 C10        16.6682  -30.4154  -43.0650 C.ar      10 UNK        -0.1009 
     11 C11        17.8156  -31.2085  -43.1859 C.ar      10 UNK        -0.0712 
     12 C12        18.6659  -31.0139  -44.2790 C.ar      10 UNK        -0.0894 
     13 C13        18.3948  -30.0223  -45.2238 C.ar      10 UNK        -0.0745 
     14 C14        17.2282  -29.2643  -45.1124 C.ar      10 UNK        -0.0972 
     15 C15        19.3937  -29.7314  -46.3290 C.3       10 UNK         0.0209 
     16 S16        20.8022  -28.8071  -45.6444 S.3       10 UNK        -0.2568 
     17 C17        21.6246  -28.1955  -47.1566 C.3       10 UNK        -0.0983 
     18 CA         21.8317  -26.6587  -47.1558 C.3       3 UNK         0.0876 
     19 N          20.5634  -25.9468  -46.9700 N.am      3 UNK        -0.4424 
     20 C          20.3586  -24.6467  -47.2164 C.2       2 UNK         0.4918 
     21 O          21.1957  -23.9109  -47.7392 O.2       2 UNK        -0.4875 
     22 CA         18.9994  -24.0558  -46.7888 C.3       2 UNK         0.0481 
     23 CB         18.0726  -23.9221  -48.0076 C.3       2 UNK        -0.1831 
     24 N          18.2968  -24.7983  -45.7307 N.am      2 UNK        -0.4498 
     25 C          18.7627  -25.0363  -44.4933 C.2       1 UNK         0.5027 
     26 O          19.8887  -24.6917  -44.1302 O.2       1 UNK        -0.4969 
     27 C          22.9193  -26.2452  -46.1350 C.2       3 UNK         0.5005 
     28 O          24.1003  -26.4700  -46.4049 O.2       3 UNK        -0.5279 
     29 N          22.5103  -25.6708  -44.9895 N.am      4 UNK        -0.4463 
     30 CA         23.3417  -25.2525  -43.8547 C.3       4 UNK         0.0283 
     31 CB         24.2625  -24.0781  -44.2486 C.3       4 UNK        -0.1875 
     32 C          24.1014  -26.4197  -43.1914 C.2       4 UNK         0.4949 
     33 O          25.2369  -26.2424  -42.7486 O.2       4 UNK        -0.5039 
     34 N          23.4561  -27.5943  -43.1173 N.am      5 UNK        -0.4663 
     35 CA         24.0208  -28.8223  -42.5411 C.3       5 UNK         0.0242 
     36 CB         23.2169  -30.0386  -43.0340 C.3       5 UNK        -0.1982 
     37 C          24.1272  -28.8213  -41.0029 C.2       5 UNK         0.5017 
     38 O          24.7202  -29.7484  -40.4537 O.2       5 UNK        -0.5012 
     39 N          23.5474  -27.8128  -40.3312 N.am      6 UNK        -0.4439 
     40 CA         23.6104  -27.5603  -38.8824 C.3       6 UNK         0.0297 
     41 CB         25.0227  -27.0759  -38.4916 C.3       6 UNK        -0.2006 
     42 C          23.1324  -28.7486  -38.0205 C.2       6 UNK         0.4892 
     43 O          23.7422  -29.0543  -36.9947 O.2       6 UNK        -0.5089 
     44 N          22.0582  -29.4058  -38.4815 N.am      7 UNK        -0.4243 
     45 CA         21.4101  -30.5940  -37.9102 C.3       7 UNK         0.0196 
     46 CB         20.8924  -30.3229  -36.4814 C.3       7 UNK        -0.2007 
     47 C          22.2378  -31.8942  -37.9908 C.2       7 UNK         0.5020 
     48 O          21.7827  -32.9166  -37.4762 O.2       7 UNK        -0.5147 
     49 N          23.3915  -31.8852  -38.6797 N.am      8 UNK        -0.4734 
     50 CA         24.1900  -33.0902  -38.9589 C.3       8 UNK         0.0238 
     51 CB         25.6086  -32.6839  -39.3890 C.3       8 UNK        -0.1912 
     52 C          23.5450  -34.0077  -40.0171 C.2       8 UNK         0.5038 
     53 O          23.9665  -35.1553  -40.1647 O.2       8 UNK        -0.5046 
     54 N          22.5326  -33.4848  -40.7185 N.am      9 UNK        -0.4200 
     55 CA         21.6482  -34.1880  -41.6538 C.3       9 UNK         0.0839 
     56 C          20.7511  -35.2933  -41.0194 C.2       9 UNK         0.5513 
     57 N          20.5933  -35.3524  -39.7015 N.am      9 UNK        -0.7519 
     58 O          20.1941  -36.1157  -41.7417 O.2       9 UNK        -0.4960 
     59 C59        20.8126  -33.1678  -42.4710 C.3       10 UNK        -0.0876 
     60 S60        19.7982  -32.0629  -41.4159 S.3       10 UNK        -0.2414 
     61 C61        18.1320  -32.2647  -42.1315 C.3       10 UNK         0.0169 
     62 H62        19.3326  -28.9874  -40.9592 H         1 UNK         0.0903 
     63 H63        19.9248  -29.1267  -42.6172 H         1 UNK         0.0903 
     64 H64        20.9492  -28.4104  -41.3763 H         1 UNK         0.0903 
     65 H65        18.2968  -27.8590  -43.6001 H         1 UNK         0.3096 
     66 H66        17.7355  -25.1423  -42.6403 H         1 UNK         0.1121 
     67 H67        15.8902  -25.1218  -44.1946 H         1 UNK         0.0849 
     68 H68        16.4341  -26.5478  -45.0255 H         1 UNK         0.0849 
     69 H69        14.3220  -29.1802  -43.4137 H         1 UNK         0.0865 
     70 H70        14.7189  -28.3331  -44.8812 H         1 UNK         0.0865 
     71 H71        16.0053  -30.5530  -42.2214 H         1 UNK         0.1346 
     72 H72        19.5667  -31.6016  -44.3768 H         1 UNK         0.1412 
     73 H73        17.0058  -28.5202  -45.8639 H         1 UNK         0.1426 
     74 H74        18.9230  -29.1556  -47.1275 H         1 UNK         0.0716 
     75 H75        19.7466  -30.6621  -46.7755 H         1 UNK         0.0716 
     76 H76        21.0362  -28.4785  -48.0304 H         1 UNK         0.0695 
     77 H77        22.5775  -28.7167  -47.2683 H         1 UNK         0.0695 
     78 H78        22.2191  -26.3801  -48.1384 H         1 UNK         0.0983 
     79 H79        19.8212  -26.4796  -46.5424 H         1 UNK         0.3095 
     80 H80        19.1961  -23.0538  -46.4020 H         1 UNK         0.0454 
     81 H81        18.5514  -23.3476  -48.8021 H         1 UNK         0.0851 
     82 H82        17.1487  -23.4034  -47.7512 H         1 UNK         0.0851 
     83 H83        17.8092  -24.8951  -48.4242 H         1 UNK         0.0851 
     84 H84        17.3651  -25.1121  -45.9595 H         1 UNK         0.2976 
     85 H85        21.5158  -25.4995  -44.8666 H         1 UNK         0.3116 
     86 H86        22.6471  -24.8815  -43.0994 H         1 UNK         0.0646 
     87 H87        25.0312  -24.3852  -44.9583 H         1 UNK         0.0847 
     88 H88        23.6953  -23.2637  -44.6992 H         1 UNK         0.0847 
     89 H89        24.7727  -23.6709  -43.3748 H         1 UNK         0.0847 
     90 H90        22.5405  -27.6647  -43.5386 H         1 UNK         0.3040 
     91 H91        25.0412  -28.9266  -42.9169 H         1 UNK         0.1015 
     92 H92        23.6495  -30.9697  -42.6647 H         1 UNK         0.0786 
     93 H93        23.2173  -30.0978  -44.1226 H         1 UNK         0.0786 
     94 H94        22.1807  -30.0107  -42.7013 H         1 UNK         0.0786 
     95 H95        23.0751  -27.1086  -40.8803 H         1 UNK         0.3172 
     96 H96        22.9151  -26.7436  -38.6829 H         1 UNK         0.0595 
     97 H97        25.7684  -27.8609  -38.6235 H         1 UNK         0.0839 
     98 H98        25.0572  -26.7663  -37.4463 H         1 UNK         0.0839 
     99 H99        25.3291  -26.2193  -39.0920 H         1 UNK         0.0839 
    100 H100       21.6527  -29.0676  -39.3418 H         1 UNK         0.2998 
    101 H101       20.5351  -30.7733  -38.5370 H         1 UNK         0.0822 
    102 H102       20.2661  -31.1440  -36.1303 H         1 UNK         0.0787 
    103 H103       20.2866  -29.4177  -36.4431 H         1 UNK         0.0787 
    104 H104       21.7079  -30.2132  -35.7662 H         1 UNK         0.0787 
    105 H105       23.7266  -31.0164  -39.0841 H         1 UNK         0.3055 
    106 H106       24.2683  -33.6684  -38.0354 H         1 UNK         0.1106 
    107 H107       26.0650  -32.0020  -38.6713 H         1 UNK         0.0828 
    108 H108       26.2565  -33.5583  -39.4633 H         1 UNK         0.0828 
    109 H109       25.6121  -32.1981  -40.3651 H         1 UNK         0.0828 
    110 H110       22.2625  -32.5369  -40.5054 H         1 UNK         0.2931 
    111 H111       22.3001  -34.7075  -42.3586 H         1 UNK         0.0412 
    112 H112       20.0127  -36.0748  -39.3058 H         1 UNK         0.3472 
    113 H113       21.0319  -34.6709  -39.0996 H         1 UNK         0.3472 
    114 H114       21.4817  -32.5434  -43.0644 H         1 UNK         0.0970 
    115 H115       20.1859  -33.6880  -43.1974 H         1 UNK         0.0970 
    116 H116       18.0156  -33.2607  -42.5600 H         1 UNK         0.0612 
    117 H117       17.4135  -32.2038  -41.3128 H         1 UNK         0.0612 
@<TRIPOS>BOND
     1    1    2 1    
     2    1   62 1    
     3    1   63 1    
     4    1   64 1    
     5    2    3 2    
     6    2    4 am   BACKBONE|DICT|INTERRES
     7    4    5 1    
     8    4   65 1    
     9    5    6 1    
    10    5   25 1    
    11    5   66 1    
    12    6    7 1    
    13    6   67 1    
    14    6   68 1    
    15    7    8 1    
    16    8    9 1    
    17    8   69 1    
    18    8   70 1    
    19    9   10 ar   
    20    9   14 ar   
    21   10   11 ar   
    22   10   71 1    
    23   11   12 ar   
    24   11   61 1    
    25   12   13 ar   
    26   12   72 1    
    27   13   14 ar   
    28   13   15 1    
    29   14   73 1    
    30   15   16 1    
    31   15   74 1    
    32   15   75 1    
    33   16   17 1    
    34   17   18 1    
    35   17   76 1    
    36   17   77 1    
    37   18   19 1    
    38   18   27 1    
    39   18   78 1    
    40   19   20 am   BACKBONE|DICT|INTERRES
    41   19   79 1    
    42   20   21 2    
    43   20   22 1    
    44   22   23 1    
    45   22   24 1    
    46   22   80 1    
    47   23   81 1    
    48   23   82 1    
    49   23   83 1    
    50   24   25 am   BACKBONE|DICT|INTERRES
    51   24   84 1    
    52   25   26 2    
    53   27   28 2    
    54   27   29 am   BACKBONE|DICT|INTERRES
    55   29   30 1    
    56   29   85 1    
    57   30   31 1    
    58   30   32 1    
    59   30   86 1    
    60   31   87 1    
    61   31   88 1    
    62   31   89 1    
    63   32   33 2    
    64   32   34 am   BACKBONE|DICT|INTERRES
    65   34   35 1    
    66   34   90 1    
    67   35   36 1    
    68   35   37 1    
    69   35   91 1    
    70   36   92 1    
    71   36   93 1    
    72   36   94 1    
    73   37   38 2    
    74   37   39 am   BACKBONE|DICT|INTERRES
    75   39   40 1    
    76   39   95 1    
    77   40   41 1    
    78   40   42 1    
    79   40   96 1    
    80   41   97 1    
    81   41   98 1    
    82   41   99 1    
    83   42   43 2    
    84   42   44 am   BACKBONE|DICT|INTERRES
    85   44   45 1    
    86   44  100 1    
    87   45   46 1    
    88   45   47 1    
    89   45  101 1    
    90   46  102 1    
    91   46  103 1    
    92   46  104 1    
    93   47   48 2    
    94   47   49 am   BACKBONE|DICT|INTERRES
    95   49   50 1    
    96   49  105 1    
    97   50   51 1    
    98   50   52 1    
    99   50  106 1    
   100   51  107 1    
   101   51  108 1    
   102   51  109 1    
   103   52   53 2    
   104   52   54 am   BACKBONE|DICT|INTERRES
   105   54   55 1    
   106   54  110 1    
   107   55   56 1    
   108   55   59 1    
   109   55  111 1    
   110   56   57 am   BACKBONE|DICT|INTERRES
   111   56   58 2    
   112   57  112 1    
   113   57  113 1    
   114   59   60 1    
   115   59  114 1    
   116   59  115 1    
   117   60   61 1    
   118   61  116 1    
   119   61  117 1    
@<TRIPOS>SUBSTRUCTURE
     1 UNK         1 GROUP             0       ****    0 ROOT    
