@<TRIPOS>MOLECULE
3R8
117   119    1
SMALL
USER_CHARGES


@<TRIPOS>ATOM
      1 CA         16.2720  -28.2183  -42.2628 C.3       0 UNK        -0.2013 
      2 C          16.3132  -27.2028  -43.3934 C.2       0 UNK         0.4866 
      3 O          15.8451  -26.0765  -43.2225 O.2       0 UNK        -0.5176 
      4 N          16.8732  -27.5826  -44.5485 N.am      1 UNK        -0.4884 
      5 CA         16.9340  -26.7842  -45.7818 C.3       1 UNK         0.0853 
      6 C6         17.0759  -27.6728  -47.0513 C.3       10 UNK        -0.0849 
      7 S7         15.8758  -29.0495  -47.1484 S.3       10 UNK        -0.2776 
      8 C8         16.9679  -30.5126  -47.1131 C.3       10 UNK         0.0316 
      9 C9         17.5055  -30.7867  -45.7153 C.ar      10 UNK        -0.0863 
     10 C10        16.7948  -31.6131  -44.8382 C.ar      10 UNK        -0.1009 
     11 C11        17.2637  -31.8459  -43.5408 C.ar      10 UNK        -0.0712 
     12 C12        18.4488  -31.2347  -43.1235 C.ar      10 UNK        -0.0894 
     13 C13        19.1696  -30.4127  -43.9921 C.ar      10 UNK        -0.0745 
     14 C14        18.7063  -30.2086  -45.2931 C.ar      10 UNK        -0.0972 
     15 C15        20.4205  -29.7058  -43.5046 C.3       10 UNK         0.0209 
     16 S16        19.9469  -28.2512  -42.5320 S.3       10 UNK        -0.2568 
     17 C17        21.5482  -27.4222  -42.2933 C.3       10 UNK        -0.0983 
     18 CA         21.7739  -26.2343  -43.2647 C.3       3 UNK         0.0876 
     19 N          20.5878  -25.3773  -43.3754 N.am      3 UNK        -0.4424 
     20 C          20.4279  -24.3484  -44.2175 C.2       2 UNK         0.4918 
     21 O          21.3282  -23.8739  -44.9119 O.2       2 UNK        -0.4875 
     22 CA         18.9862  -23.8110  -44.3273 C.3       2 UNK         0.0481 
     23 CB         18.8551  -22.6355  -45.3184 C.3       2 UNK        -0.1831 
     24 N          18.0244  -24.8767  -44.6517 N.am      2 UNK        -0.4498 
     25 C          18.0339  -25.6935  -45.7184 C.2       1 UNK         0.5027 
     26 O          18.8722  -25.6212  -46.6194 O.2       1 UNK        -0.4969 
     27 C          23.0523  -25.4817  -42.8532 C.2       3 UNK         0.5005 
     28 O          24.1317  -25.8132  -43.3463 O.2       3 UNK        -0.5279 
     29 N          22.9080  -24.5260  -41.9209 N.am      4 UNK        -0.4463 
     30 CA         23.9386  -23.7011  -41.2703 C.3       4 UNK         0.0283 
     31 CB         24.6782  -22.8113  -42.2888 C.3       4 UNK        -0.1875 
     32 C          24.9299  -24.4970  -40.3991 C.2       4 UNK         0.4949 
     33 O          25.0790  -24.1906  -39.2167 O.2       4 UNK        -0.5039 
     34 N          25.5759  -25.5065  -40.9914 N.am      5 UNK        -0.4663 
     35 CA         26.5624  -26.3854  -40.3579 C.3       5 UNK         0.0242 
     36 CB         27.6369  -26.7338  -41.4029 C.3       5 UNK        -0.1982 
     37 C          25.9459  -27.6716  -39.7760 C.2       5 UNK         0.5017 
     38 O          26.6790  -28.4543  -39.1708 O.2       5 UNK        -0.5012 
     39 N          24.6352  -27.8813  -39.9870 N.am      6 UNK        -0.4439 
     40 CA         23.8575  -29.0821  -39.6406 C.3       6 UNK         0.0297 
     41 CB         23.7469  -29.2513  -38.1104 C.3       6 UNK        -0.2006 
     42 C          24.3933  -30.3412  -40.3534 C.2       6 UNK         0.4892 
     43 O          24.6337  -31.3686  -39.7177 O.2       6 UNK        -0.5089 
     44 N          24.5956  -30.2139  -41.6726 N.am      7 UNK        -0.4243 
     45 CA         25.2060  -31.2211  -42.5464 C.3       7 UNK         0.0196 
     46 CB         25.5572  -30.5527  -43.8866 C.3       7 UNK        -0.2007 
     47 C          24.3591  -32.4872  -42.7844 C.2       7 UNK         0.5020 
     48 O          24.8977  -33.4752  -43.2851 O.2       7 UNK        -0.5147 
     49 N          23.0669  -32.4500  -42.4442 N.am      8 UNK        -0.4734 
     50 CA         22.1294  -33.5640  -42.5598 C.3       8 UNK         0.0238 
     51 CB         21.4873  -33.5644  -43.9597 C.3       8 UNK        -0.1912 
     52 C          21.0705  -33.4430  -41.4582 C.2       8 UNK         0.5038 
     53 O          20.9023  -32.3591  -40.8926 O.2       8 UNK        -0.5046 
     54 N          20.3784  -34.5573  -41.1884 N.am      9 UNK        -0.4200 
     55 CA         19.3032  -34.6984  -40.1880 C.3       9 UNK         0.0839 
     56 C          19.7589  -34.5262  -38.7054 C.2       9 UNK         0.5513 
     57 N          21.0451  -34.6292  -38.3930 N.am      9 UNK        -0.7519 
     58 O          18.9342  -34.3316  -37.8157 O.2       9 UNK        -0.4960 
     59 C59        18.0356  -33.8611  -40.5273 C.3       10 UNK        -0.0876 
     60 S60        17.3319  -34.2639  -42.1654 S.3       10 UNK        -0.2414 
     61 C61        16.4649  -32.7164  -42.5799 C.3       10 UNK         0.0169 
     62 H62        15.2678  -28.2760  -41.8442 H         1 UNK         0.0903 
     63 H63        16.5499  -29.2131  -42.6054 H         1 UNK         0.0903 
     64 H64        16.9583  -27.9260  -41.4687 H         1 UNK         0.0903 
     65 H65        17.2545  -28.5170  -44.6251 H         1 UNK         0.3096 
     66 H66        15.9853  -26.2504  -45.8746 H         1 UNK         0.1121 
     67 H67        16.9350  -27.0598  -47.9436 H         1 UNK         0.0849 
     68 H68        18.0871  -28.0703  -47.1355 H         1 UNK         0.0849 
     69 H69        16.4033  -31.3776  -47.4647 H         1 UNK         0.0865 
     70 H70        17.7874  -30.3842  -47.8221 H         1 UNK         0.0865 
     71 H71        15.8666  -32.0632  -45.1633 H         1 UNK         0.1346 
     72 H72        18.8048  -31.3768  -42.1141 H         1 UNK         0.1412 
     73 H73        19.2699  -29.5757  -45.9641 H         1 UNK         0.1426 
     74 H74        21.0457  -29.4018  -44.3457 H         1 UNK         0.0716 
     75 H75        21.0194  -30.3776  -42.8894 H         1 UNK         0.0716 
     76 H76        22.3508  -28.1547  -42.3923 H         1 UNK         0.0695 
     77 H77        21.5692  -27.0826  -41.2557 H         1 UNK         0.0695 
     78 H78        21.9528  -26.6430  -44.2617 H         1 UNK         0.0983 
     79 H79        19.7754  -25.7117  -42.8771 H         1 UNK         0.3095 
     80 H80        18.7158  -23.4394  -43.3379 H         1 UNK         0.0454 
     81 H81        19.5039  -21.8081  -45.0289 H         1 UNK         0.0851 
     82 H82        17.8353  -22.2522  -45.3462 H         1 UNK         0.0851 
     83 H83        19.1323  -22.9243  -46.3327 H         1 UNK         0.0851 
     84 H84        17.2898  -25.0447  -43.9680 H         1 UNK         0.2976 
     85 H85        21.9677  -24.3672  -41.5846 H         1 UNK         0.3116 
     86 H86        23.3973  -23.0352  -40.5960 H         1 UNK         0.0646 
     87 H87        25.2531  -23.3960  -43.0074 H         1 UNK         0.0847 
     88 H88        25.3771  -22.1424  -41.7849 H         1 UNK         0.0847 
     89 H89        23.9806  -22.1887  -42.8489 H         1 UNK         0.0847 
     90 H90        25.3447  -25.6911  -41.9667 H         1 UNK         0.3040 
     91 H91        27.0451  -25.8574  -39.5323 H         1 UNK         0.1015 
     92 H92        28.1158  -25.8354  -41.7929 H         1 UNK         0.0786 
     93 H93        27.2163  -27.2829  -42.2466 H         1 UNK         0.0786 
     94 H94        28.4227  -27.3538  -40.9689 H         1 UNK         0.0786 
     95 H95        24.1386  -27.1517  -40.4762 H         1 UNK         0.3172 
     96 H96        22.8475  -28.9230  -40.0201 H         1 UNK         0.0595 
     97 H97        24.7127  -29.4654  -37.6520 H         1 UNK         0.0839 
     98 H98        23.0801  -30.0770  -37.8586 H         1 UNK         0.0839 
     99 H99        23.3435  -28.3547  -37.6399 H         1 UNK         0.0839 
    100 H100       24.3857  -29.3256  -42.1020 H         1 UNK         0.2998 
    101 H101       26.1355  -31.5470  -42.0744 H         1 UNK         0.0822 
    102 H102       26.0554  -31.2553  -44.5564 H         1 UNK         0.0787 
    103 H103       24.6668  -30.1888  -44.4011 H         1 UNK         0.0787 
    104 H104       26.2341  -29.7096  -43.7460 H         1 UNK         0.0787 
    105 H105       22.7033  -31.6435  -41.9531 H         1 UNK         0.3055 
    106 H106       22.6652  -34.5037  -42.4057 H         1 UNK         0.1106 
    107 H107       22.2373  -33.6980  -44.7392 H         1 UNK         0.0828 
    108 H108       20.7653  -34.3752  -44.0647 H         1 UNK         0.0828 
    109 H109       20.9593  -32.6335  -44.1628 H         1 UNK         0.0828 
    110 H110       20.5921  -35.3975  -41.7057 H         1 UNK         0.2931 
    111 H111       19.0070  -35.7463  -40.2484 H         1 UNK         0.0412 
    112 H112       21.7346  -34.7976  -39.1075 H         1 UNK         0.3472 
    113 H113       21.3288  -34.5275  -37.4310 H         1 UNK         0.3472 
    114 H114       17.2496  -34.0446  -39.7926 H         1 UNK         0.0970 
    115 H115       18.2588  -32.7965  -40.4614 H         1 UNK         0.0970 
    116 H116       15.5007  -32.9767  -43.0189 H         1 UNK         0.0612 
    117 H117       16.2391  -32.1524  -41.6738 H         1 UNK         0.0612 
@<TRIPOS>BOND
     1    1    2 1    
     2    1   62 1    
     3    1   63 1    
     4    1   64 1    
     5    2    3 2    
     6    2    4 am   BACKBONE|DICT|INTERRES
     7    4    5 1    
     8    4   65 1    
     9    5    6 1    
    10    5   25 1    
    11    5   66 1    
    12    6    7 1    
    13    6   67 1    
    14    6   68 1    
    15    7    8 1    
    16    8    9 1    
    17    8   69 1    
    18    8   70 1    
    19    9   10 ar   
    20    9   14 ar   
    21   10   11 ar   
    22   10   71 1    
    23   11   12 ar   
    24   11   61 1    
    25   12   13 ar   
    26   12   72 1    
    27   13   14 ar   
    28   13   15 1    
    29   14   73 1    
    30   15   16 1    
    31   15   74 1    
    32   15   75 1    
    33   16   17 1    
    34   17   18 1    
    35   17   76 1    
    36   17   77 1    
    37   18   19 1    
    38   18   27 1    
    39   18   78 1    
    40   19   20 am   BACKBONE|DICT|INTERRES
    41   19   79 1    
    42   20   21 2    
    43   20   22 1    
    44   22   23 1    
    45   22   24 1    
    46   22   80 1    
    47   23   81 1    
    48   23   82 1    
    49   23   83 1    
    50   24   25 am   BACKBONE|DICT|INTERRES
    51   24   84 1    
    52   25   26 2    
    53   27   28 2    
    54   27   29 am   BACKBONE|DICT|INTERRES
    55   29   30 1    
    56   29   85 1    
    57   30   31 1    
    58   30   32 1    
    59   30   86 1    
    60   31   87 1    
    61   31   88 1    
    62   31   89 1    
    63   32   33 2    
    64   32   34 am   BACKBONE|DICT|INTERRES
    65   34   35 1    
    66   34   90 1    
    67   35   36 1    
    68   35   37 1    
    69   35   91 1    
    70   36   92 1    
    71   36   93 1    
    72   36   94 1    
    73   37   38 2    
    74   37   39 am   BACKBONE|DICT|INTERRES
    75   39   40 1    
    76   39   95 1    
    77   40   41 1    
    78   40   42 1    
    79   40   96 1    
    80   41   97 1    
    81   41   98 1    
    82   41   99 1    
    83   42   43 2    
    84   42   44 am   BACKBONE|DICT|INTERRES
    85   44   45 1    
    86   44  100 1    
    87   45   46 1    
    88   45   47 1    
    89   45  101 1    
    90   46  102 1    
    91   46  103 1    
    92   46  104 1    
    93   47   48 2    
    94   47   49 am   BACKBONE|DICT|INTERRES
    95   49   50 1    
    96   49  105 1    
    97   50   51 1    
    98   50   52 1    
    99   50  106 1    
   100   51  107 1    
   101   51  108 1    
   102   51  109 1    
   103   52   53 2    
   104   52   54 am   BACKBONE|DICT|INTERRES
   105   54   55 1    
   106   54  110 1    
   107   55   56 1    
   108   55   59 1    
   109   55  111 1    
   110   56   57 am   BACKBONE|DICT|INTERRES
   111   56   58 2    
   112   57  112 1    
   113   57  113 1    
   114   59   60 1    
   115   59  114 1    
   116   59  115 1    
   117   60   61 1    
   118   61  116 1    
   119   61  117 1    
@<TRIPOS>SUBSTRUCTURE
     1 UNK         1 GROUP             0       ****    0 ROOT    
