@<TRIPOS>MOLECULE
3R8
117   119    1
SMALL
USER_CHARGES


@<TRIPOS>ATOM
      1 CA         12.7269  -27.6104  -47.3821 C.3       0 UNK        -0.2013 
      2 C          13.5952  -26.3875  -47.6649 C.2       0 UNK         0.4866 
      3 O          13.1058  -25.4186  -48.2426 O.2       0 UNK        -0.5176 
      4 N          14.8785  -26.3806  -47.2878 N.am      1 UNK        -0.4884 
      5 CA         15.6201  -27.4601  -46.6388 C.3       1 UNK         0.0853 
      6 C6         15.4653  -27.4180  -45.0955 C.3       10 UNK        -0.0849 
      7 S7         15.8264  -29.0252  -44.3118 S.3       10 UNK        -0.2776 
      8 C8         15.5928  -28.6255  -42.5502 C.3       10 UNK         0.0316 
      9 C9         16.8460  -28.0299  -41.9210 C.ar      10 UNK        -0.0863 
     10 C10        17.7583  -28.8567  -41.2557 C.ar      10 UNK        -0.1009 
     11 C11        18.8844  -28.3116  -40.6311 C.ar      10 UNK        -0.0712 
     12 C12        19.1014  -26.9330  -40.6841 C.ar      10 UNK        -0.0894 
     13 C13        18.2132  -26.0994  -41.3690 C.ar      10 UNK        -0.0745 
     14 C14        17.0791  -26.6515  -41.9723 C.ar      10 UNK        -0.0972 
     15 C15        18.4834  -24.6040  -41.4567 C.3       10 UNK         0.0209 
     16 S16        20.0641  -24.2408  -42.2892 S.3       10 UNK        -0.2568 
     17 C17        19.7758  -24.9014  -43.9667 C.3       10 UNK        -0.0983 
     18 CA         20.3540  -26.3236  -44.1898 C.3       3 UNK         0.0876 
     19 N          19.8469  -26.8840  -45.4415 N.am      3 UNK        -0.4424 
     20 C          19.9415  -28.1618  -45.8265 C.2       2 UNK         0.4918 
     21 O          20.4547  -29.0557  -45.1516 O.2       2 UNK        -0.4875 
     22 CA         19.2807  -28.4966  -47.1761 C.3       2 UNK         0.0481 
     23 CB         19.6841  -29.8819  -47.7122 C.3       2 UNK        -0.1831 
     24 N          17.8261  -28.4445  -47.0327 N.am      2 UNK        -0.4498 
     25 C          17.0949  -27.3238  -47.0498 C.2       1 UNK         0.5027 
     26 O          17.5550  -26.2093  -47.3190 O.2       1 UNK        -0.4969 
     27 C          21.8972  -26.3422  -44.1603 C.2       3 UNK         0.5005 
     28 O          22.5348  -26.0497  -45.1763 O.2       3 UNK        -0.5279 
     29 N          22.4596  -26.6631  -42.9919 N.am      4 UNK        -0.4463 
     30 CA         23.8864  -26.7404  -42.6934 C.3       4 UNK         0.0283 
     31 CB         24.5049  -27.9853  -43.3694 C.3       4 UNK        -0.1875 
     32 C          24.0379  -26.7740  -41.1627 C.2       4 UNK         0.4949 
     33 O          23.0878  -26.4455  -40.4460 O.2       4 UNK        -0.5039 
     34 N          25.2107  -27.2058  -40.6796 N.am      5 UNK        -0.4663 
     35 CA         25.3964  -27.6717  -39.3016 C.3       5 UNK         0.0242 
     36 CB         26.8981  -27.8452  -39.0242 C.3       5 UNK        -0.1982 
     37 C          24.6560  -29.0065  -39.1064 C.2       5 UNK         0.5017 
     38 O          24.6054  -29.7951  -40.0508 O.2       5 UNK        -0.5012 
     39 N          24.1160  -29.2404  -37.9018 N.am      6 UNK        -0.4439 
     40 CA         23.1619  -30.3117  -37.5671 C.3       6 UNK         0.0297 
     41 CB         22.9044  -30.3034  -36.0515 C.3       6 UNK        -0.2006 
     42 C          23.5206  -31.7362  -38.0357 C.2       6 UNK         0.4892 
     43 O          22.6201  -32.4948  -38.3958 O.2       6 UNK        -0.5089 
     44 N          24.8169  -32.0709  -38.0330 N.am      7 UNK        -0.4243 
     45 CA         25.3404  -33.3617  -38.4878 C.3       7 UNK         0.0196 
     46 CB         26.7217  -33.5835  -37.8489 C.3       7 UNK        -0.2007 
     47 C          25.4354  -33.4948  -40.0211 C.2       7 UNK         0.5020 
     48 O          25.5865  -34.6156  -40.5085 O.2       7 UNK        -0.5147 
     49 N          25.3846  -32.3737  -40.7517 N.am      8 UNK        -0.4734 
     50 CA         25.6125  -32.2944  -42.1969 C.3       8 UNK         0.0238 
     51 CB         26.7114  -31.2466  -42.4525 C.3       8 UNK        -0.1912 
     52 C          24.3456  -31.9457  -42.9977 C.2       8 UNK         0.5038 
     53 O          24.4211  -31.9341  -44.2275 O.2       8 UNK        -0.5046 
     54 N          23.2272  -31.6480  -42.3197 N.am      9 UNK        -0.4200 
     55 CA         21.9392  -31.2807  -42.9350 C.3       9 UNK         0.0839 
     56 C          21.3700  -32.3669  -43.8871 C.2       9 UNK         0.5513 
     57 N          20.6867  -31.9508  -44.9426 N.am      9 UNK        -0.7519 
     58 O          21.4959  -33.5670  -43.6501 O.2       9 UNK        -0.4960 
     59 C59        20.8704  -30.9013  -41.8794 C.3       10 UNK        -0.0876 
     60 S60        21.3730  -29.4847  -40.8589 S.3       10 UNK        -0.2414 
     61 C61        19.8683  -29.1967  -39.8836 C.3       10 UNK         0.0169 
     62 H62        12.9793  -28.4220  -48.0638 H         1 UNK         0.0903 
     63 H63        12.8452  -27.9636  -46.3588 H         1 UNK         0.0903 
     64 H64        11.6735  -27.3702  -47.5249 H         1 UNK         0.0903 
     65 H65        15.4633  -25.5863  -47.5210 H         1 UNK         0.3096 
     66 H66        15.2585  -28.4151  -47.0260 H         1 UNK         0.1121 
     67 H67        16.0992  -26.6425  -44.6633 H         1 UNK         0.0849 
     68 H68        14.4446  -27.1481  -44.8218 H         1 UNK         0.0849 
     69 H69        14.7475  -27.9462  -42.4295 H         1 UNK         0.0865 
     70 H70        15.3160  -29.5395  -42.0223 H         1 UNK         0.0865 
     71 H71        17.5850  -29.9233  -41.2129 H         1 UNK         0.1346 
     72 H72        19.9766  -26.5101  -40.2084 H         1 UNK         0.1412 
     73 H73        16.3753  -26.0062  -42.4789 H         1 UNK         0.1426 
     74 H74        17.6770  -24.0874  -41.9798 H         1 UNK         0.0716 
     75 H75        18.5122  -24.1890  -40.4483 H         1 UNK         0.0716 
     76 H76        20.1973  -24.1996  -44.6889 H         1 UNK         0.0695 
     77 H77        18.7000  -24.9038  -44.1511 H         1 UNK         0.0695 
     78 H78        19.9915  -26.9776  -43.3941 H         1 UNK         0.0983 
     79 H79        19.3826  -26.2389  -46.0677 H         1 UNK         0.3095 
     80 H80        19.6073  -27.7512  -47.9046 H         1 UNK         0.0454 
     81 H81        19.2916  -30.0446  -48.7159 H         1 UNK         0.0851 
     82 H82        19.3144  -30.6871  -47.0775 H         1 UNK         0.0851 
     83 H83        20.7690  -29.9795  -47.7700 H         1 UNK         0.0851 
     84 H84        17.3800  -29.3021  -46.7373 H         1 UNK         0.2976 
     85 H85        21.8748  -26.8179  -42.1777 H         1 UNK         0.3116 
     86 H86        24.3739  -25.8369  -43.0642 H         1 UNK         0.0646 
     87 H87        24.2897  -28.0191  -44.4371 H         1 UNK         0.0847 
     88 H88        25.5902  -27.9991  -43.2700 H         1 UNK         0.0847 
     89 H89        24.1213  -28.9050  -42.9266 H         1 UNK         0.0847 
     90 H90        25.9269  -27.4735  -41.3378 H         1 UNK         0.3040 
     91 H91        24.9859  -26.9256  -38.6175 H         1 UNK         0.1015 
     92 H92        27.3465  -28.5946  -39.6784 H         1 UNK         0.0786 
     93 H93        27.0714  -28.1651  -37.9958 H         1 UNK         0.0786 
     94 H94        27.4384  -26.9090  -39.1663 H         1 UNK         0.0786 
     95 H95        24.2538  -28.5425  -37.1848 H         1 UNK         0.3172 
     96 H96        22.2243  -30.0512  -38.0596 H         1 UNK         0.0595 
     97 H97        23.8174  -30.4939  -35.4861 H         1 UNK         0.0839 
     98 H98        22.1826  -31.0728  -35.7726 H         1 UNK         0.0839 
     99 H99        22.4959  -29.3483  -35.7210 H         1 UNK         0.0839 
    100 H100       25.4902  -31.3791  -37.7371 H         1 UNK         0.2998 
    101 H101       24.6732  -34.1515  -38.1354 H         1 UNK         0.0822 
    102 H102       26.6640  -33.5640  -36.7604 H         1 UNK         0.0787 
    103 H103       27.1325  -34.5539  -38.1318 H         1 UNK         0.0787 
    104 H104       27.4381  -32.8230  -38.1625 H         1 UNK         0.0787 
    105 H105       25.1951  -31.4841  -40.2910 H         1 UNK         0.3055 
    106 H106       25.9662  -33.2547  -42.5785 H         1 UNK         0.1106 
    107 H107       27.6376  -31.5126  -41.9431 H         1 UNK         0.0828 
    108 H108       26.9405  -31.1654  -43.5159 H         1 UNK         0.0828 
    109 H109       26.4118  -30.2568  -42.1065 H         1 UNK         0.0828 
    110 H110       23.2594  -31.6437  -41.3108 H         1 UNK         0.2931 
    111 H111       22.1407  -30.3922  -43.5367 H         1 UNK         0.0412 
    112 H112       20.5734  -30.9541  -45.1076 H         1 UNK         0.3472 
    113 H113       20.2862  -32.6249  -45.5749 H         1 UNK         0.3472 
    114 H114       19.9308  -30.6385  -42.3701 H         1 UNK         0.0970 
    115 H115       20.6561  -31.7491  -41.2257 H         1 UNK         0.0970 
    116 H116       19.4130  -30.1495  -39.6093 H         1 UNK         0.0612 
    117 H117       20.1491  -28.7118  -38.9475 H         1 UNK         0.0612 
@<TRIPOS>BOND
     1    1    2 1    
     2    1   62 1    
     3    1   63 1    
     4    1   64 1    
     5    2    3 2    
     6    2    4 am   BACKBONE|DICT|INTERRES
     7    4    5 1    
     8    4   65 1    
     9    5    6 1    
    10    5   25 1    
    11    5   66 1    
    12    6    7 1    
    13    6   67 1    
    14    6   68 1    
    15    7    8 1    
    16    8    9 1    
    17    8   69 1    
    18    8   70 1    
    19    9   10 ar   
    20    9   14 ar   
    21   10   11 ar   
    22   10   71 1    
    23   11   12 ar   
    24   11   61 1    
    25   12   13 ar   
    26   12   72 1    
    27   13   14 ar   
    28   13   15 1    
    29   14   73 1    
    30   15   16 1    
    31   15   74 1    
    32   15   75 1    
    33   16   17 1    
    34   17   18 1    
    35   17   76 1    
    36   17   77 1    
    37   18   19 1    
    38   18   27 1    
    39   18   78 1    
    40   19   20 am   BACKBONE|DICT|INTERRES
    41   19   79 1    
    42   20   21 2    
    43   20   22 1    
    44   22   23 1    
    45   22   24 1    
    46   22   80 1    
    47   23   81 1    
    48   23   82 1    
    49   23   83 1    
    50   24   25 am   BACKBONE|DICT|INTERRES
    51   24   84 1    
    52   25   26 2    
    53   27   28 2    
    54   27   29 am   BACKBONE|DICT|INTERRES
    55   29   30 1    
    56   29   85 1    
    57   30   31 1    
    58   30   32 1    
    59   30   86 1    
    60   31   87 1    
    61   31   88 1    
    62   31   89 1    
    63   32   33 2    
    64   32   34 am   BACKBONE|DICT|INTERRES
    65   34   35 1    
    66   34   90 1    
    67   35   36 1    
    68   35   37 1    
    69   35   91 1    
    70   36   92 1    
    71   36   93 1    
    72   36   94 1    
    73   37   38 2    
    74   37   39 am   BACKBONE|DICT|INTERRES
    75   39   40 1    
    76   39   95 1    
    77   40   41 1    
    78   40   42 1    
    79   40   96 1    
    80   41   97 1    
    81   41   98 1    
    82   41   99 1    
    83   42   43 2    
    84   42   44 am   BACKBONE|DICT|INTERRES
    85   44   45 1    
    86   44  100 1    
    87   45   46 1    
    88   45   47 1    
    89   45  101 1    
    90   46  102 1    
    91   46  103 1    
    92   46  104 1    
    93   47   48 2    
    94   47   49 am   BACKBONE|DICT|INTERRES
    95   49   50 1    
    96   49  105 1    
    97   50   51 1    
    98   50   52 1    
    99   50  106 1    
   100   51  107 1    
   101   51  108 1    
   102   51  109 1    
   103   52   53 2    
   104   52   54 am   BACKBONE|DICT|INTERRES
   105   54   55 1    
   106   54  110 1    
   107   55   56 1    
   108   55   59 1    
   109   55  111 1    
   110   56   57 am   BACKBONE|DICT|INTERRES
   111   56   58 2    
   112   57  112 1    
   113   57  113 1    
   114   59   60 1    
   115   59  114 1    
   116   59  115 1    
   117   60   61 1    
   118   61  116 1    
   119   61  117 1    
@<TRIPOS>SUBSTRUCTURE
     1 UNK         1 GROUP             0       ****    0 ROOT    
