@<TRIPOS>MOLECULE
3R8
117   119    1
SMALL
USER_CHARGES


@<TRIPOS>ATOM
      1 CA         19.9535  -24.7419  -39.8755 C.3       0 UNK        -0.2013 
      2 C          19.5695  -24.5397  -41.3344 C.2       0 UNK         0.4866 
      3 O          19.7436  -23.4443  -41.8703 O.2       0 UNK        -0.5176 
      4 N          19.0294  -25.5843  -41.9735 N.am      1 UNK        -0.4884 
      5 CA         18.6435  -25.6047  -43.3901 C.3       1 UNK         0.0853 
      6 C6         17.7682  -26.8378  -43.7257 C.3       10 UNK        -0.0849 
      7 S7         16.3517  -27.0786  -42.5957 S.3       10 UNK        -0.2776 
      8 C8         15.4427  -28.4346  -43.4107 C.3       10 UNK         0.0316 
      9 C9         16.3124  -29.6679  -43.6182 C.ar      10 UNK        -0.0863 
     10 C10        16.4343  -30.6357  -42.6193 C.ar      10 UNK        -0.1009 
     11 C11        17.2406  -31.7612  -42.8177 C.ar      10 UNK        -0.0712 
     12 C12        17.9503  -31.8967  -44.0172 C.ar      10 UNK        -0.0894 
     13 C13        17.8586  -30.9237  -45.0203 C.ar      10 UNK        -0.0745 
     14 C14        17.0047  -29.8313  -44.8189 C.ar      10 UNK        -0.0972 
     15 C15        18.7055  -31.0821  -46.2881 C.3       10 UNK         0.0209 
     16 S16        18.7765  -29.5949  -47.3554 S.3       10 UNK        -0.2568 
     17 C17        20.4951  -29.6072  -47.9719 C.3       10 UNK        -0.0983 
     18 CA         21.4636  -28.6878  -47.1776 C.3       3 UNK         0.0876 
     19 N          20.9039  -27.3472  -46.9650 N.am      3 UNK        -0.4424 
     20 C          21.6278  -26.2303  -46.8218 C.2       2 UNK         0.4918 
     21 O          22.8559  -26.1953  -46.8976 O.2       2 UNK        -0.4875 
     22 CA         20.8520  -24.9356  -46.5054 C.3       2 UNK         0.0481 
     23 CB         20.3070  -24.3081  -47.7983 C.3       2 UNK        -0.1831 
     24 N          19.7586  -25.0882  -45.5324 N.am      2 UNK        -0.4498 
     25 C          19.8943  -25.5933  -44.2969 C.2       1 UNK         0.5027 
     26 O          20.9429  -26.0948  -43.8867 O.2       1 UNK        -0.4969 
     27 C          21.9287  -29.3616  -45.8679 C.2       3 UNK         0.5005 
     28 O          22.7003  -30.3195  -45.9366 O.2       3 UNK        -0.5279 
     29 N          21.4485  -28.8836  -44.7107 N.am      4 UNK        -0.4463 
     30 CA         21.7349  -29.4594  -43.3957 C.3       4 UNK         0.0283 
     31 CB         20.4907  -29.3336  -42.5007 C.3       4 UNK        -0.1875 
     32 C          22.9441  -28.8172  -42.7042 C.2       4 UNK         0.4949 
     33 O          23.4715  -29.4250  -41.7728 O.2       4 UNK        -0.5039 
     34 N          23.3403  -27.6105  -43.1357 N.am      5 UNK        -0.4663 
     35 CA         24.3976  -26.7723  -42.5610 C.3       5 UNK         0.0242 
     36 CB         25.7875  -27.4184  -42.7672 C.3       5 UNK        -0.1982 
     37 C          24.0640  -26.4185  -41.1003 C.2       5 UNK         0.5017 
     38 O          23.0112  -25.8284  -40.8565 O.2       5 UNK        -0.5012 
     39 N          24.9111  -26.8237  -40.1456 N.am      6 UNK        -0.4439 
     40 CA         24.7038  -26.6673  -38.7010 C.3       6 UNK         0.0297 
     41 CB         26.0739  -26.7047  -37.9977 C.3       6 UNK        -0.2006 
     42 C          23.7119  -27.7041  -38.1242 C.2       6 UNK         0.4892 
     43 O          23.9887  -28.2992  -37.0814 O.2       6 UNK        -0.5089 
     44 N          22.5836  -27.9060  -38.8225 N.am      7 UNK        -0.4243 
     45 CA         21.4969  -28.8521  -38.5346 C.3       7 UNK         0.0196 
     46 CB         20.7100  -28.4031  -37.2853 C.3       7 UNK        -0.2007 
     47 C          21.9602  -30.3236  -38.4552 C.2       7 UNK         0.5020 
     48 O          21.4288  -31.0935  -37.6534 O.2       7 UNK        -0.5147 
     49 N          22.9472  -30.6914  -39.2830 N.am      8 UNK        -0.4734 
     50 CA         23.5167  -32.0395  -39.3478 C.3       8 UNK         0.0238 
     51 CB         24.9693  -31.9464  -39.8431 C.3       8 UNK        -0.1912 
     52 C          22.7017  -32.9819  -40.2482 C.2       8 UNK         0.5038 
     53 O          22.7253  -34.1921  -40.0194 O.2       8 UNK        -0.5046 
     54 N          22.0046  -32.4124  -41.2420 N.am      9 UNK        -0.4200 
     55 CA         21.1983  -33.1104  -42.2601 C.3       9 UNK         0.0839 
     56 C          22.0599  -33.9892  -43.2202 C.2       9 UNK         0.5513 
     57 N          21.4495  -34.8604  -44.0137 N.am      9 UNK        -0.7519 
     58 O          23.2798  -33.8575  -43.2975 O.2       9 UNK        -0.4960 
     59 C59        19.9705  -33.8506  -41.6526 C.3       10 UNK        -0.0876 
     60 S60        18.8454  -32.7249  -40.7529 S.3       10 UNK        -0.2414 
     61 C61        17.3172  -32.8346  -41.7398 C.3       10 UNK         0.0169 
     62 H62        19.9041  -25.7907  -39.5834 H         1 UNK         0.0903 
     63 H63        20.9724  -24.3950  -39.7050 H         1 UNK         0.0903 
     64 H64        19.2867  -24.1732  -39.2281 H         1 UNK         0.0903 
     65 H65        18.8865  -26.4513  -41.4776 H         1 UNK         0.3096 
     66 H66        18.0662  -24.6993  -43.5905 H         1 UNK         0.1121 
     67 H67        17.3837  -26.7601  -44.7444 H         1 UNK         0.0849 
     68 H68        18.3736  -27.7440  -43.6937 H         1 UNK         0.0849 
     69 H69        14.5732  -28.6928  -42.8043 H         1 UNK         0.0865 
     70 H70        15.0494  -28.0817  -44.3655 H         1 UNK         0.0865 
     71 H71        15.8953  -30.5146  -41.6894 H         1 UNK         0.1346 
     72 H72        18.5841  -32.7590  -44.1673 H         1 UNK         0.1412 
     73 H73        16.8884  -29.0745  -45.5799 H         1 UNK         0.1426 
     74 H74        18.3170  -31.9148  -46.8755 H         1 UNK         0.0716 
     75 H75        19.7184  -31.3577  -45.9915 H         1 UNK         0.0716 
     76 H76        20.4593  -29.2640  -49.0069 H         1 UNK         0.0695 
     77 H77        20.8657  -30.6330  -48.0253 H         1 UNK         0.0695 
     78 H78        22.3651  -28.5813  -47.7858 H         1 UNK         0.0983 
     79 H79        19.8967  -27.2945  -46.9107 H         1 UNK         0.3095 
     80 H80        21.5659  -24.2336  -46.0695 H         1 UNK         0.0454 
     81 H81        21.1036  -24.1675  -48.5304 H         1 UNK         0.0851 
     82 H82        19.8686  -23.3279  -47.6109 H         1 UNK         0.0851 
     83 H83        19.5448  -24.9343  -48.2637 H         1 UNK         0.0851 
     84 H84        18.8610  -24.7159  -45.8090 H         1 UNK         0.2976 
     85 H85        20.8956  -28.0366  -44.7227 H         1 UNK         0.3116 
     86 H86        21.9656  -30.5175  -43.5180 H         1 UNK         0.0646 
     87 H87        20.2710  -28.2934  -42.2611 H         1 UNK         0.0847 
     88 H88        19.6107  -29.7645  -42.9760 H         1 UNK         0.0847 
     89 H89        20.6281  -29.8597  -41.5566 H         1 UNK         0.0847 
     90 H90        22.7398  -27.1447  -43.8070 H         1 UNK         0.3040 
     91 H91        24.3812  -25.8302  -43.1115 H         1 UNK         0.1015 
     92 H92        26.5839  -26.7641  -42.4100 H         1 UNK         0.0786 
     93 H93        25.9767  -27.5972  -43.8257 H         1 UNK         0.0786 
     94 H94        25.8851  -28.3757  -42.2540 H         1 UNK         0.0786 
     95 H95        25.7218  -27.3544  -40.4301 H         1 UNK         0.3172 
     96 H96        24.2689  -25.6823  -38.5186 H         1 UNK         0.0595 
     97 H97        26.5601  -27.6743  -38.1127 H         1 UNK         0.0839 
     98 H98        25.9711  -26.5164  -36.9280 H         1 UNK         0.0839 
     99 H99        26.7453  -25.9421  -38.3928 H         1 UNK         0.0839 
    100 H100       22.4734  -27.3426  -39.6599 H         1 UNK         0.2998 
    101 H101       20.8153  -28.7977  -39.3839 H         1 UNK         0.0822 
    102 H102       19.8220  -29.0193  -37.1384 H         1 UNK         0.0787 
    103 H103       20.3737  -27.3704  -37.3775 H         1 UNK         0.0787 
    104 H104       21.3132  -28.4801  -36.3800 H         1 UNK         0.0787 
    105 H105       23.2978  -30.0199  -39.9620 H         1 UNK         0.3055 
    106 H106       23.5268  -32.4706  -38.3439 H         1 UNK         0.1106 
    107 H107       25.5728  -31.3199  -39.1861 H         1 UNK         0.0828 
    108 H108       25.4356  -32.9322  -39.8702 H         1 UNK         0.0828 
    109 H109       25.0277  -31.5312  -40.8502 H         1 UNK         0.0828 
    110 H110       22.1063  -31.4161  -41.3607 H         1 UNK         0.2931 
    111 H111       20.8001  -32.3250  -42.9005 H         1 UNK         0.0412 
    112 H112       20.4507  -34.9861  -43.9980 H         1 UNK         0.3472 
    113 H113       22.0093  -35.4116  -44.6459 H         1 UNK         0.3472 
    114 H114       20.2948  -34.6339  -40.9663 H         1 UNK         0.0970 
    115 H115       19.4019  -34.3633  -42.4274 H         1 UNK         0.0970 
    116 H116       16.4714  -32.7338  -41.0580 H         1 UNK         0.0612 
    117 H117       17.2144  -33.8241  -42.1865 H         1 UNK         0.0612 
@<TRIPOS>BOND
     1    1    2 1    
     2    1   62 1    
     3    1   63 1    
     4    1   64 1    
     5    2    3 2    
     6    2    4 am   BACKBONE|DICT|INTERRES
     7    4    5 1    
     8    4   65 1    
     9    5    6 1    
    10    5   25 1    
    11    5   66 1    
    12    6    7 1    
    13    6   67 1    
    14    6   68 1    
    15    7    8 1    
    16    8    9 1    
    17    8   69 1    
    18    8   70 1    
    19    9   10 ar   
    20    9   14 ar   
    21   10   11 ar   
    22   10   71 1    
    23   11   12 ar   
    24   11   61 1    
    25   12   13 ar   
    26   12   72 1    
    27   13   14 ar   
    28   13   15 1    
    29   14   73 1    
    30   15   16 1    
    31   15   74 1    
    32   15   75 1    
    33   16   17 1    
    34   17   18 1    
    35   17   76 1    
    36   17   77 1    
    37   18   19 1    
    38   18   27 1    
    39   18   78 1    
    40   19   20 am   BACKBONE|DICT|INTERRES
    41   19   79 1    
    42   20   21 2    
    43   20   22 1    
    44   22   23 1    
    45   22   24 1    
    46   22   80 1    
    47   23   81 1    
    48   23   82 1    
    49   23   83 1    
    50   24   25 am   BACKBONE|DICT|INTERRES
    51   24   84 1    
    52   25   26 2    
    53   27   28 2    
    54   27   29 am   BACKBONE|DICT|INTERRES
    55   29   30 1    
    56   29   85 1    
    57   30   31 1    
    58   30   32 1    
    59   30   86 1    
    60   31   87 1    
    61   31   88 1    
    62   31   89 1    
    63   32   33 2    
    64   32   34 am   BACKBONE|DICT|INTERRES
    65   34   35 1    
    66   34   90 1    
    67   35   36 1    
    68   35   37 1    
    69   35   91 1    
    70   36   92 1    
    71   36   93 1    
    72   36   94 1    
    73   37   38 2    
    74   37   39 am   BACKBONE|DICT|INTERRES
    75   39   40 1    
    76   39   95 1    
    77   40   41 1    
    78   40   42 1    
    79   40   96 1    
    80   41   97 1    
    81   41   98 1    
    82   41   99 1    
    83   42   43 2    
    84   42   44 am   BACKBONE|DICT|INTERRES
    85   44   45 1    
    86   44  100 1    
    87   45   46 1    
    88   45   47 1    
    89   45  101 1    
    90   46  102 1    
    91   46  103 1    
    92   46  104 1    
    93   47   48 2    
    94   47   49 am   BACKBONE|DICT|INTERRES
    95   49   50 1    
    96   49  105 1    
    97   50   51 1    
    98   50   52 1    
    99   50  106 1    
   100   51  107 1    
   101   51  108 1    
   102   51  109 1    
   103   52   53 2    
   104   52   54 am   BACKBONE|DICT|INTERRES
   105   54   55 1    
   106   54  110 1    
   107   55   56 1    
   108   55   59 1    
   109   55  111 1    
   110   56   57 am   BACKBONE|DICT|INTERRES
   111   56   58 2    
   112   57  112 1    
   113   57  113 1    
   114   59   60 1    
   115   59  114 1    
   116   59  115 1    
   117   60   61 1    
   118   61  116 1    
   119   61  117 1    
@<TRIPOS>SUBSTRUCTURE
     1 UNK         1 GROUP             0       ****    0 ROOT    
