@<TRIPOS>MOLECULE
3R8
117   119    1
SMALL
USER_CHARGES


@<TRIPOS>ATOM
      1 CA         16.8871  -25.2923  -41.3882 C.3       0 UNK        -0.2013 
      2 C          17.2335  -25.6175  -42.8326 C.2       0 UNK         0.4866 
      3 O          18.2436  -26.2760  -43.0900 O.2       0 UNK        -0.5176 
      4 N          16.4183  -25.1271  -43.7790 N.am      1 UNK        -0.4884 
      5 CA         16.4561  -25.4080  -45.2281 C.3       1 UNK         0.0853 
      6 C6         16.1877  -26.9038  -45.5522 C.3       10 UNK        -0.0849 
      7 S7         14.6760  -27.5892  -44.7824 S.3       10 UNK        -0.2776 
      8 C8         14.5997  -29.2603  -45.5188 C.3       10 UNK         0.0316 
      9 C9         15.9169  -30.0089  -45.3680 C.ar      10 UNK        -0.0863 
     10 C10        16.2386  -30.6555  -44.1688 C.ar      10 UNK        -0.1009 
     11 C11        17.4914  -31.2572  -44.0077 C.ar      10 UNK        -0.0712 
     12 C12        18.4118  -31.2257  -45.0568 C.ar      10 UNK        -0.0894 
     13 C13        18.1137  -30.5478  -46.2406 C.ar      10 UNK        -0.0745 
     14 C14        16.8503  -29.9798  -46.4092 C.ar      10 UNK        -0.0972 
     15 C15        19.2038  -30.3103  -47.2738 C.3       10 UNK         0.0209 
     16 S16        19.9468  -28.6524  -47.0631 S.3       10 UNK        -0.2568 
     17 C17        20.3793  -28.6836  -45.2892 C.3       10 UNK        -0.0983 
     18 CA         21.2168  -27.4763  -44.8170 C.3       3 UNK         0.0876 
     19 N          20.4808  -26.2140  -44.9355 N.am      3 UNK        -0.4424 
     20 C          20.9352  -25.1012  -45.5284 C.2       2 UNK         0.4918 
     21 O          22.0528  -25.0121  -46.0388 O.2       2 UNK        -0.4875 
     22 CA         20.0047  -23.8645  -45.5324 C.3       2 UNK         0.0481 
     23 CB         20.1273  -23.0351  -46.8281 C.3       2 UNK        -0.1831 
     24 N          18.6038  -24.1812  -45.2210 N.am      2 UNK        -0.4498 
     25 C          17.7483  -24.9275  -45.9387 C.2       1 UNK         0.5027 
     26 O          17.9597  -25.2731  -47.1016 O.2       1 UNK        -0.4969 
     27 C          21.6571  -27.7188  -43.3615 C.2       3 UNK         0.5005 
     28 O          22.6905  -28.3539  -43.1544 O.2       3 UNK        -0.5279 
     29 N          20.8963  -27.2104  -42.3769 N.am      4 UNK        -0.4463 
     30 CA         21.0945  -27.4193  -40.9335 C.3       4 UNK         0.0283 
     31 CB         19.9077  -26.8113  -40.1714 C.3       4 UNK        -0.1875 
     32 C          22.4317  -26.9203  -40.3472 C.2       4 UNK         0.4949 
     33 O          22.7166  -27.2025  -39.1833 O.2       4 UNK        -0.5039 
     34 N          23.2369  -26.2104  -41.1486 N.am      5 UNK        -0.4663 
     35 CA         24.6389  -25.9027  -40.8606 C.3       5 UNK         0.0242 
     36 CB         25.1361  -24.8473  -41.8616 C.3       5 UNK        -0.1982 
     37 C          25.5466  -27.1501  -40.8927 C.2       5 UNK         0.5017 
     38 O          26.5948  -27.1386  -40.2454 O.2       5 UNK        -0.5012 
     39 N          25.1421  -28.1958  -41.6313 N.am      6 UNK        -0.4439 
     40 CA         25.7972  -29.5040  -41.6467 C.3       6 UNK         0.0297 
     41 CB         25.3230  -30.2968  -42.8755 C.3       6 UNK        -0.2006 
     42 C          25.4888  -30.2873  -40.3612 C.2       6 UNK         0.4892 
     43 O          24.4007  -30.1406  -39.7964 O.2       6 UNK        -0.5089 
     44 N          26.4442  -31.1303  -39.9454 N.am      7 UNK        -0.4243 
     45 CA         26.3564  -31.9938  -38.7649 C.3       7 UNK         0.0196 
     46 CB         27.6599  -32.7959  -38.6187 C.3       7 UNK        -0.2007 
     47 C          25.1409  -32.9321  -38.8341 C.2       7 UNK         0.5020 
     48 O          25.0224  -33.7022  -39.7896 O.2       7 UNK        -0.5147 
     49 N          24.2450  -32.8073  -37.8450 N.am      8 UNK        -0.4734 
     50 CA         22.9664  -33.5212  -37.7149 C.3       8 UNK         0.0238 
     51 CB         23.2150  -35.0119  -37.3973 C.3       8 UNK        -0.1912 
     52 C          22.0118  -33.3235  -38.9136 C.2       8 UNK         0.5038 
     53 O          21.2082  -34.2141  -39.1964 O.2       8 UNK        -0.5046 
     54 N          22.1161  -32.1721  -39.5967 N.am      9 UNK        -0.4200 
     55 CA         21.3943  -31.8431  -40.8379 C.3       9 UNK         0.0839 
     56 C          21.8984  -32.6320  -42.0890 C.2       9 UNK         0.5513 
     57 N          23.0485  -33.2965  -42.0396 N.am      9 UNK        -0.7519 
     58 O          21.2591  -32.6272  -43.1365 O.2       9 UNK        -0.4960 
     59 C59        19.8459  -31.8705  -40.6413 C.3       10 UNK        -0.0876 
     60 S60        18.9408  -30.7208  -41.7315 S.3       10 UNK        -0.2414 
     61 C61        17.9028  -31.8788  -42.6844 C.3       10 UNK         0.0169 
     62 H62        17.6814  -24.7021  -40.9332 H         1 UNK         0.0903 
     63 H63        15.9585  -24.7276  -41.3089 H         1 UNK         0.0903 
     64 H64        16.7697  -26.2122  -40.8164 H         1 UNK         0.0903 
     65 H65        15.6277  -24.5687  -43.4863 H         1 UNK         0.3096 
     66 H66        15.6471  -24.8246  -45.6709 H         1 UNK         0.1121 
     67 H67        17.0398  -27.5019  -45.2235 H         1 UNK         0.0849 
     68 H68        16.1057  -27.0514  -46.6307 H         1 UNK         0.0849 
     69 H69        13.7966  -29.8246  -45.0426 H         1 UNK         0.0865 
     70 H70        14.3283  -29.1759  -46.5723 H         1 UNK         0.0865 
     71 H71        15.5336  -30.6498  -43.3486 H         1 UNK         0.1346 
     72 H72        19.3963  -31.6502  -44.9112 H         1 UNK         0.1412 
     73 H73        16.6278  -29.4388  -47.3189 H         1 UNK         0.1426 
     74 H74        19.9837  -31.0691  -47.1912 H         1 UNK         0.0716 
     75 H75        18.7915  -30.3965  -48.2801 H         1 UNK         0.0716 
     76 H76        20.9140  -29.6169  -45.0982 H         1 UNK         0.0695 
     77 H77        19.4557  -28.7277  -44.7083 H         1 UNK         0.0695 
     78 H78        22.1257  -27.4399  -45.4214 H         1 UNK         0.0983 
     79 H79        19.5595  -26.1959  -44.5085 H         1 UNK         0.3095 
     80 H80        20.3498  -23.2343  -44.7117 H         1 UNK         0.0454 
     81 H81        19.9042  -23.6283  -47.7150 H         1 UNK         0.0851 
     82 H82        21.1397  -22.6478  -46.9484 H         1 UNK         0.0851 
     83 H83        19.4541  -22.1782  -46.8177 H         1 UNK         0.0851 
     84 H84        18.3108  -23.9552  -44.2802 H         1 UNK         0.2976 
     85 H85        20.0275  -26.7498  -42.6358 H         1 UNK         0.3116 
     86 H86        21.0762  -28.4975  -40.7666 H         1 UNK         0.0646 
     87 H87        18.9691  -27.2716  -40.4792 H         1 UNK         0.0847 
     88 H88        20.0028  -26.9712  -39.0965 H         1 UNK         0.0847 
     89 H89        19.8342  -25.7363  -40.3370 H         1 UNK         0.0847 
     90 H90        22.9129  -26.0218  -42.0857 H         1 UNK         0.3040 
     91 H91        24.6973  -25.4814  -39.8544 H         1 UNK         0.1015 
     92 H92        25.0895  -25.2110  -42.8890 H         1 UNK         0.0786 
     93 H93        26.1731  -24.5758  -41.6585 H         1 UNK         0.0786 
     94 H94        24.5457  -23.9328  -41.8008 H         1 UNK         0.0786 
     95 H95        24.2427  -28.1445  -42.1057 H         1 UNK         0.3172 
     96 H96        26.8758  -29.3515  -41.7245 H         1 UNK         0.0595 
     97 H97        24.2554  -30.5156  -42.8261 H         1 UNK         0.0839 
     98 H98        25.8440  -31.2521  -42.9510 H         1 UNK         0.0839 
     99 H99        25.5095  -29.7499  -43.7998 H         1 UNK         0.0839 
    100 H100       27.2877  -31.2098  -40.4945 H         1 UNK         0.2998 
    101 H101       26.2567  -31.3442  -37.8927 H         1 UNK         0.0822 
    102 H102       27.6252  -33.4378  -37.7372 H         1 UNK         0.0787 
    103 H103       27.8373  -33.4387  -39.4822 H         1 UNK         0.0787 
    104 H104       28.5221  -32.1383  -38.5055 H         1 UNK         0.0787 
    105 H105       24.4271  -32.1171  -37.1283 H         1 UNK         0.3055 
    106 H106       22.4544  -33.0830  -36.8565 H         1 UNK         0.1106 
    107 H107       22.2824  -35.5243  -37.1578 H         1 UNK         0.0828 
    108 H108       23.6651  -35.5352  -38.2416 H         1 UNK         0.0828 
    109 H109       23.8755  -35.1307  -36.5384 H         1 UNK         0.0828 
    110 H110       22.8421  -31.5132  -39.3356 H         1 UNK         0.2931 
    111 H111       21.6804  -30.8100  -41.0372 H         1 UNK         0.0412 
    112 H112       23.6036  -33.3337  -41.1917 H         1 UNK         0.3472 
    113 H113       23.3585  -33.7923  -42.8597 H         1 UNK         0.3472 
    114 H114       19.5985  -31.5738  -39.6210 H         1 UNK         0.0970 
    115 H115       19.4603  -32.8856  -40.7487 H         1 UNK         0.0970 
    116 H116       17.0283  -32.1545  -42.0934 H         1 UNK         0.0612 
    117 H117       18.4531  -32.8004  -42.8801 H         1 UNK         0.0612 
@<TRIPOS>BOND
     1    1    2 1    
     2    1   62 1    
     3    1   63 1    
     4    1   64 1    
     5    2    3 2    
     6    2    4 am   BACKBONE|DICT|INTERRES
     7    4    5 1    
     8    4   65 1    
     9    5    6 1    
    10    5   25 1    
    11    5   66 1    
    12    6    7 1    
    13    6   67 1    
    14    6   68 1    
    15    7    8 1    
    16    8    9 1    
    17    8   69 1    
    18    8   70 1    
    19    9   10 ar   
    20    9   14 ar   
    21   10   11 ar   
    22   10   71 1    
    23   11   12 ar   
    24   11   61 1    
    25   12   13 ar   
    26   12   72 1    
    27   13   14 ar   
    28   13   15 1    
    29   14   73 1    
    30   15   16 1    
    31   15   74 1    
    32   15   75 1    
    33   16   17 1    
    34   17   18 1    
    35   17   76 1    
    36   17   77 1    
    37   18   19 1    
    38   18   27 1    
    39   18   78 1    
    40   19   20 am   BACKBONE|DICT|INTERRES
    41   19   79 1    
    42   20   21 2    
    43   20   22 1    
    44   22   23 1    
    45   22   24 1    
    46   22   80 1    
    47   23   81 1    
    48   23   82 1    
    49   23   83 1    
    50   24   25 am   BACKBONE|DICT|INTERRES
    51   24   84 1    
    52   25   26 2    
    53   27   28 2    
    54   27   29 am   BACKBONE|DICT|INTERRES
    55   29   30 1    
    56   29   85 1    
    57   30   31 1    
    58   30   32 1    
    59   30   86 1    
    60   31   87 1    
    61   31   88 1    
    62   31   89 1    
    63   32   33 2    
    64   32   34 am   BACKBONE|DICT|INTERRES
    65   34   35 1    
    66   34   90 1    
    67   35   36 1    
    68   35   37 1    
    69   35   91 1    
    70   36   92 1    
    71   36   93 1    
    72   36   94 1    
    73   37   38 2    
    74   37   39 am   BACKBONE|DICT|INTERRES
    75   39   40 1    
    76   39   95 1    
    77   40   41 1    
    78   40   42 1    
    79   40   96 1    
    80   41   97 1    
    81   41   98 1    
    82   41   99 1    
    83   42   43 2    
    84   42   44 am   BACKBONE|DICT|INTERRES
    85   44   45 1    
    86   44  100 1    
    87   45   46 1    
    88   45   47 1    
    89   45  101 1    
    90   46  102 1    
    91   46  103 1    
    92   46  104 1    
    93   47   48 2    
    94   47   49 am   BACKBONE|DICT|INTERRES
    95   49   50 1    
    96   49  105 1    
    97   50   51 1    
    98   50   52 1    
    99   50  106 1    
   100   51  107 1    
   101   51  108 1    
   102   51  109 1    
   103   52   53 2    
   104   52   54 am   BACKBONE|DICT|INTERRES
   105   54   55 1    
   106   54  110 1    
   107   55   56 1    
   108   55   59 1    
   109   55  111 1    
   110   56   57 am   BACKBONE|DICT|INTERRES
   111   56   58 2    
   112   57  112 1    
   113   57  113 1    
   114   59   60 1    
   115   59  114 1    
   116   59  115 1    
   117   60   61 1    
   118   61  116 1    
   119   61  117 1    
@<TRIPOS>SUBSTRUCTURE
     1 UNK         1 GROUP             0       ****    0 ROOT    
