@<TRIPOS>MOLECULE
3R8
117   119    1
SMALL
USER_CHARGES


@<TRIPOS>ATOM
      1 CA         15.0375  -23.6800  -41.6201 C.3       0 UNK        -0.2013 
      2 C          15.4070  -24.1026  -43.0342 C.2       0 UNK         0.4866 
      3 O          15.0402  -23.4218  -43.9929 O.2       0 UNK        -0.5176 
      4 N          16.1201  -25.2272  -43.1707 N.am      1 UNK        -0.4884 
      5 CA         16.6062  -25.7711  -44.4448 C.3       1 UNK         0.0853 
      6 C6         17.1478  -27.2198  -44.3017 C.3       10 UNK        -0.0849 
      7 S7         16.0990  -28.3335  -43.3029 S.3       10 UNK        -0.2776 
      8 C8         16.6101  -29.9836  -43.8918 C.3       10 UNK         0.0316 
      9 C9         18.1235  -30.1327  -43.9960 C.ar      10 UNK        -0.0863 
     10 C10        18.9177  -30.1944  -42.8456 C.ar      10 UNK        -0.1009 
     11 C11        20.3118  -30.3175  -42.9466 C.ar      10 UNK        -0.0712 
     12 C12        20.8945  -30.3790  -44.2153 C.ar      10 UNK        -0.0894 
     13 C13        20.1163  -30.2950  -45.3695 C.ar      10 UNK        -0.0745 
     14 C14        18.7291  -30.1893  -45.2540 C.ar      10 UNK        -0.0972 
     15 C15        20.7697  -30.3082  -46.7416 C.3       10 UNK         0.0209 
     16 S16        20.6537  -28.6825  -47.5534 S.3       10 UNK        -0.2568 
     17 C17        22.0774  -27.7511  -46.8692 C.3       10 UNK        -0.0983 
     18 CA         21.7295  -26.5704  -45.9072 C.3       3 UNK         0.0876 
     19 N          20.4854  -25.8965  -46.2863 N.am      3 UNK        -0.4424 
     20 C          20.3595  -24.6508  -46.7549 C.2       2 UNK         0.4918 
     21 O          21.3009  -23.8734  -46.9120 O.2       2 UNK        -0.4875 
     22 CA         18.9281  -24.1890  -47.1023 C.3       2 UNK         0.0481 
     23 CB         18.6811  -24.3208  -48.6136 C.3       2 UNK        -0.1831 
     24 N          17.8701  -24.9075  -46.3750 N.am      2 UNK        -0.4498 
     25 C          17.7108  -24.8731  -45.0440 C.2       1 UNK         0.5027 
     26 O          18.4510  -24.2308  -44.2943 O.2       1 UNK        -0.4969 
     27 C          21.7382  -26.9478  -44.4070 C.2       3 UNK         0.5005 
     28 O          22.5379  -27.7954  -44.0080 O.2       3 UNK        -0.5279 
     29 N          20.8781  -26.3042  -43.5959 N.am      4 UNK        -0.4463 
     30 CA         20.7332  -26.5231  -42.1493 C.3       4 UNK         0.0283 
     31 CB         19.6201  -25.6136  -41.6019 C.3       4 UNK        -0.1875 
     32 C          22.0252  -26.2958  -41.3418 C.2       4 UNK         0.4949 
     33 O          22.8913  -25.5272  -41.7659 O.2       4 UNK        -0.5039 
     34 N          22.0847  -26.9384  -40.1647 N.am      5 UNK        -0.4663 
     35 CA         23.2051  -26.9591  -39.2142 C.3       5 UNK         0.0242 
     36 CB         23.4938  -25.5514  -38.6479 C.3       5 UNK        -0.1982 
     37 C          24.4434  -27.6414  -39.8234 C.2       5 UNK         0.5017 
     38 O          25.5073  -27.0294  -39.9378 O.2       5 UNK        -0.5012 
     39 N          24.2598  -28.9058  -40.2147 N.am      6 UNK        -0.4439 
     40 CA         25.2676  -29.7820  -40.8013 C.3       6 UNK         0.0297 
     41 CB         25.1467  -29.7384  -42.3355 C.3       6 UNK        -0.2006 
     42 C          25.0435  -31.2011  -40.2677 C.2       6 UNK         0.4892 
     43 O          23.9833  -31.4823  -39.7016 O.2       6 UNK        -0.5089 
     44 N          26.0249  -32.0857  -40.4900 N.am      7 UNK        -0.4243 
     45 CA         26.0416  -33.4836  -40.0307 C.3       7 UNK         0.0196 
     46 CB         27.3757  -34.1282  -40.4418 C.3       7 UNK        -0.2007 
     47 C          24.8587  -34.3514  -40.5073 C.2       7 UNK         0.5020 
     48 O          24.5800  -35.3799  -39.8912 O.2       7 UNK        -0.5147 
     49 N          24.1724  -33.9182  -41.5729 N.am      8 UNK        -0.4734 
     50 CA         22.9394  -34.5198  -42.0840 C.3       8 UNK         0.0238 
     51 CB         22.6681  -33.9707  -43.4956 C.3       8 UNK        -0.1912 
     52 C          21.7085  -34.3080  -41.1778 C.2       8 UNK         0.5038 
     53 O          20.7113  -35.0027  -41.3800 O.2       8 UNK        -0.5046 
     54 N          21.7749  -33.3679  -40.2237 N.am      9 UNK        -0.4200 
     55 CA         20.6664  -33.0157  -39.3232 C.3       9 UNK         0.0839 
     56 C          21.0944  -32.6971  -37.8641 C.2       9 UNK         0.5513 
     57 N          22.3514  -32.3750  -37.5866 N.am      9 UNK        -0.7519 
     58 O          20.2692  -32.7729  -36.9572 O.2       9 UNK        -0.4960 
     59 C59        19.7384  -31.9328  -39.9385 C.3       10 UNK        -0.0876 
     60 S60        20.4914  -30.2707  -40.0884 S.3       10 UNK        -0.2414 
     61 C61        21.2553  -30.3452  -41.7433 C.3       10 UNK         0.0169 
     62 H62        15.4498  -22.6947  -41.4040 H         1 UNK         0.0903 
     63 H63        13.9543  -23.6273  -41.5147 H         1 UNK         0.0903 
     64 H64        15.4174  -24.3773  -40.8735 H         1 UNK         0.0903 
     65 H65        16.3745  -25.7593  -42.3513 H         1 UNK         0.3096 
     66 H66        15.7608  -25.7830  -45.1366 H         1 UNK         0.1121 
     67 H67        18.1399  -27.2298  -43.8473 H         1 UNK         0.0849 
     68 H68        17.2698  -27.6595  -45.2933 H         1 UNK         0.0849 
     69 H69        16.2184  -30.7405  -43.2108 H         1 UNK         0.0865 
     70 H70        16.1378  -30.1728  -44.8571 H         1 UNK         0.0865 
     71 H71        18.4371  -30.1259  -41.8806 H         1 UNK         0.1346 
     72 H72        21.9701  -30.4498  -44.3042 H         1 UNK         0.1412 
     73 H73        18.1254  -30.1275  -46.1494 H         1 UNK         0.1426 
     74 H74        20.2638  -31.0464  -47.3655 H         1 UNK         0.0716 
     75 H75        21.8128  -30.6230  -46.6839 H         1 UNK         0.0716 
     76 H76        22.5944  -27.3339  -47.7344 H         1 UNK         0.0695 
     77 H77        22.7981  -28.4429  -46.4306 H         1 UNK         0.0695 
     78 H78        22.5520  -25.8563  -45.9872 H         1 UNK         0.0983 
     79 H79        19.6569  -26.4699  -46.2318 H         1 UNK         0.3095 
     80 H80        18.8537  -23.1324  -46.8367 H         1 UNK         0.0454 
     81 H81        18.7241  -25.3604  -48.9414 H         1 UNK         0.0851 
     82 H82        19.4328  -23.7704  -49.1812 H         1 UNK         0.0851 
     83 H83        17.7083  -23.9178  -48.8953 H         1 UNK         0.0851 
     84 H84        17.2346  -25.4598  -46.9338 H         1 UNK         0.2976 
     85 H85        20.3060  -25.5707  -43.9937 H         1 UNK         0.3116 
     86 H86        20.4241  -27.5599  -42.0125 H         1 UNK         0.0646 
     87 H87        18.6551  -25.8530  -42.0420 H         1 UNK         0.0847 
     88 H88        19.8277  -24.5609  -41.7984 H         1 UNK         0.0847 
     89 H89        19.5081  -25.7258  -40.5227 H         1 UNK         0.0847 
     90 H90        21.3042  -27.5324  -39.9178 H         1 UNK         0.3040 
     91 H91        22.8906  -27.5838  -38.3761 H         1 UNK         0.1015 
     92 H92        23.8646  -24.8677  -39.4119 H         1 UNK         0.0786 
     93 H93        24.2508  -25.5980  -37.8642 H         1 UNK         0.0786 
     94 H94        22.5993  -25.1098  -38.2087 H         1 UNK         0.0786 
     95 H95        23.3840  -29.3682  -40.0044 H         1 UNK         0.3172 
     96 H96        26.2661  -29.4587  -40.4995 H         1 UNK         0.0595 
     97 H97        24.1811  -30.1109  -42.6788 H         1 UNK         0.0839 
     98 H98        25.9194  -30.3415  -42.8132 H         1 UNK         0.0839 
     99 H99        25.2556  -28.7203  -42.7107 H         1 UNK         0.0839 
    100 H100       26.8513  -31.7696  -40.9778 H         1 UNK         0.2998 
    101 H101       25.9943  -33.4632  -38.9399 H         1 UNK         0.0822 
    102 H102       28.2247  -33.5926  -40.0166 H         1 UNK         0.0787 
    103 H103       27.4381  -35.1589  -40.0892 H         1 UNK         0.0787 
    104 H104       27.4968  -34.1471  -41.5257 H         1 UNK         0.0787 
    105 H105       24.4845  -33.0687  -42.0192 H         1 UNK         0.3055 
    106 H106       23.0946  -35.5984  -42.1599 H         1 UNK         0.1106 
    107 H107       22.5274  -32.8900  -43.4911 H         1 UNK         0.0828 
    108 H108       21.7660  -34.4126  -43.9213 H         1 UNK         0.0828 
    109 H109       23.4887  -34.2002  -44.1756 H         1 UNK         0.0828 
    110 H110       22.6273  -32.8306  -40.1076 H         1 UNK         0.2931 
    111 H111       20.0534  -33.9123  -39.2112 H         1 UNK         0.0412 
    112 H112       22.6058  -32.1897  -36.6298 H         1 UNK         0.3472 
    113 H113       23.0188  -32.1847  -38.3281 H         1 UNK         0.3472 
    114 H114       18.8376  -31.8336  -39.3305 H         1 UNK         0.0970 
    115 H115       19.3883  -32.2633  -40.9171 H         1 UNK         0.0970 
    116 H116       21.8903  -31.2271  -41.8048 H         1 UNK         0.0612 
    117 H117       21.9262  -29.4907  -41.8301 H         1 UNK         0.0612 
@<TRIPOS>BOND
     1    1    2 1    
     2    1   62 1    
     3    1   63 1    
     4    1   64 1    
     5    2    3 2    
     6    2    4 am   BACKBONE|DICT|INTERRES
     7    4    5 1    
     8    4   65 1    
     9    5    6 1    
    10    5   25 1    
    11    5   66 1    
    12    6    7 1    
    13    6   67 1    
    14    6   68 1    
    15    7    8 1    
    16    8    9 1    
    17    8   69 1    
    18    8   70 1    
    19    9   10 ar   
    20    9   14 ar   
    21   10   11 ar   
    22   10   71 1    
    23   11   12 ar   
    24   11   61 1    
    25   12   13 ar   
    26   12   72 1    
    27   13   14 ar   
    28   13   15 1    
    29   14   73 1    
    30   15   16 1    
    31   15   74 1    
    32   15   75 1    
    33   16   17 1    
    34   17   18 1    
    35   17   76 1    
    36   17   77 1    
    37   18   19 1    
    38   18   27 1    
    39   18   78 1    
    40   19   20 am   BACKBONE|DICT|INTERRES
    41   19   79 1    
    42   20   21 2    
    43   20   22 1    
    44   22   23 1    
    45   22   24 1    
    46   22   80 1    
    47   23   81 1    
    48   23   82 1    
    49   23   83 1    
    50   24   25 am   BACKBONE|DICT|INTERRES
    51   24   84 1    
    52   25   26 2    
    53   27   28 2    
    54   27   29 am   BACKBONE|DICT|INTERRES
    55   29   30 1    
    56   29   85 1    
    57   30   31 1    
    58   30   32 1    
    59   30   86 1    
    60   31   87 1    
    61   31   88 1    
    62   31   89 1    
    63   32   33 2    
    64   32   34 am   BACKBONE|DICT|INTERRES
    65   34   35 1    
    66   34   90 1    
    67   35   36 1    
    68   35   37 1    
    69   35   91 1    
    70   36   92 1    
    71   36   93 1    
    72   36   94 1    
    73   37   38 2    
    74   37   39 am   BACKBONE|DICT|INTERRES
    75   39   40 1    
    76   39   95 1    
    77   40   41 1    
    78   40   42 1    
    79   40   96 1    
    80   41   97 1    
    81   41   98 1    
    82   41   99 1    
    83   42   43 2    
    84   42   44 am   BACKBONE|DICT|INTERRES
    85   44   45 1    
    86   44  100 1    
    87   45   46 1    
    88   45   47 1    
    89   45  101 1    
    90   46  102 1    
    91   46  103 1    
    92   46  104 1    
    93   47   48 2    
    94   47   49 am   BACKBONE|DICT|INTERRES
    95   49   50 1    
    96   49  105 1    
    97   50   51 1    
    98   50   52 1    
    99   50  106 1    
   100   51  107 1    
   101   51  108 1    
   102   51  109 1    
   103   52   53 2    
   104   52   54 am   BACKBONE|DICT|INTERRES
   105   54   55 1    
   106   54  110 1    
   107   55   56 1    
   108   55   59 1    
   109   55  111 1    
   110   56   57 am   BACKBONE|DICT|INTERRES
   111   56   58 2    
   112   57  112 1    
   113   57  113 1    
   114   59   60 1    
   115   59  114 1    
   116   59  115 1    
   117   60   61 1    
   118   61  116 1    
   119   61  117 1    
@<TRIPOS>SUBSTRUCTURE
     1 UNK         1 GROUP             0       ****    0 ROOT    
