@<TRIPOS>MOLECULE
3R8
117   119    1
SMALL
USER_CHARGES


@<TRIPOS>ATOM
      1 CA         17.0221  -29.4015  -48.2859 C.3       0 UNK        -0.2013 
      2 C          17.3896  -28.5773  -47.0620 C.2       0 UNK         0.4866 
      3 O          18.5222  -28.6562  -46.5843 O.2       0 UNK        -0.5176 
      4 N          16.4515  -27.7662  -46.5567 N.am      1 UNK        -0.4884 
      5 CA         16.5875  -26.9359  -45.3496 C.3       1 UNK         0.0853 
      6 C6         15.2104  -26.6435  -44.6960 C.3       10 UNK        -0.0849 
      7 S7         14.3587  -28.1784  -44.1884 S.3       10 UNK        -0.2776 
      8 C8         14.6786  -28.2220  -42.3925 C.3       10 UNK         0.0316 
      9 C9         16.1666  -28.1948  -42.0667 C.ar      10 UNK        -0.0863 
     10 C10        16.9782  -29.2915  -42.3719 C.ar      10 UNK        -0.1009 
     11 C11        18.3498  -29.2571  -42.1011 C.ar      10 UNK        -0.0712 
     12 C12        18.9033  -28.1257  -41.4951 C.ar      10 UNK        -0.0894 
     13 C13        18.1031  -27.0215  -41.1870 C.ar      10 UNK        -0.0745 
     14 C14        16.7355  -27.0642  -41.4729 C.ar      10 UNK        -0.0972 
     15 C15        18.7005  -25.7770  -40.5462 C.3       10 UNK         0.0209 
     16 S16        18.9912  -24.4736  -41.7851 S.3       10 UNK        -0.2568 
     17 C17        20.7969  -24.5594  -42.0453 C.3       10 UNK        -0.0983 
     18 CA         21.2392  -25.6487  -43.0633 C.3       3 UNK         0.0876 
     19 N          20.5208  -25.5995  -44.3435 N.am      3 UNK        -0.4424 
     20 C          20.4959  -24.5904  -45.2274 C.2       2 UNK         0.4918 
     21 O          21.1534  -23.5561  -45.1155 O.2       2 UNK        -0.4875 
     22 CA         19.5913  -24.7778  -46.4600 C.3       2 UNK         0.0481 
     23 CB         20.4355  -25.1421  -47.6920 C.3       2 UNK        -0.1831 
     24 N          18.5777  -25.8160  -46.2527 N.am      2 UNK        -0.4498 
     25 C          17.4181  -25.6544  -45.6013 C.2       1 UNK         0.5027 
     26 O          17.0108  -24.5603  -45.2074 O.2       1 UNK        -0.4969 
     27 C          22.7763  -25.7272  -43.2184 C.2       3 UNK         0.5005 
     28 O          23.4999  -25.4561  -42.2587 O.2       3 UNK        -0.5279 
     29 N          23.2573  -26.1383  -44.4019 N.am      4 UNK        -0.4463 
     30 CA         24.6809  -26.2635  -44.7368 C.3       4 UNK         0.0283 
     31 CB         24.8248  -26.4655  -46.2540 C.3       4 UNK        -0.1875 
     32 C          25.4103  -27.3867  -43.9752 C.2       4 UNK         0.4949 
     33 O          26.6251  -27.2997  -43.7961 O.2       4 UNK        -0.5039 
     34 N          24.6643  -28.4104  -43.5423 N.am      5 UNK        -0.4663 
     35 CA         25.1596  -29.5567  -42.7782 C.3       5 UNK         0.0242 
     36 CB         25.3732  -30.7529  -43.7264 C.3       5 UNK        -0.1982 
     37 C          24.1976  -29.8801  -41.6253 C.2       5 UNK         0.5017 
     38 O          23.9507  -31.0539  -41.3467 O.2       5 UNK        -0.5012 
     39 N          23.6599  -28.8365  -40.9746 N.am      6 UNK        -0.4439 
     40 CA         22.6083  -28.8979  -39.9462 C.3       6 UNK         0.0297 
     41 CB         22.2693  -27.4690  -39.4942 C.3       6 UNK        -0.2006 
     42 C          22.9009  -29.7790  -38.7157 C.2       6 UNK         0.4892 
     43 O          21.9628  -30.1491  -38.0096 O.2       6 UNK        -0.5089 
     44 N          24.1778  -30.1085  -38.4827 N.am      7 UNK        -0.4243 
     45 CA         24.6268  -31.0421  -37.4491 C.3       7 UNK         0.0196 
     46 CB         26.1549  -30.9378  -37.3139 C.3       7 UNK        -0.2007 
     47 C          24.2105  -32.5044  -37.7059 C.2       7 UNK         0.5020 
     48 O          24.1839  -33.2827  -36.7516 O.2       7 UNK        -0.5147 
     49 N          23.9116  -32.8637  -38.9635 N.am      8 UNK        -0.4734 
     50 CA         23.5353  -34.2257  -39.3582 C.3       8 UNK         0.0238 
     51 CB         24.7841  -34.9764  -39.8536 C.3       8 UNK        -0.1912 
     52 C          22.4198  -34.2804  -40.4135 C.2       8 UNK         0.5038 
     53 O          21.6826  -35.2669  -40.4342 O.2       8 UNK        -0.5046 
     54 N          22.3228  -33.2602  -41.2781 N.am      9 UNK        -0.4200 
     55 CA         21.4189  -33.1860  -42.4403 C.3       9 UNK         0.0839 
     56 C          21.7096  -34.2463  -43.5482 C.2       9 UNK         0.5513 
     57 N          22.9075  -34.8157  -43.6153 N.am      9 UNK        -0.7519 
     58 O          20.8550  -34.5368  -44.3815 O.2       9 UNK        -0.4960 
     59 C59        19.9143  -33.1038  -42.0491 C.3       10 UNK        -0.0876 
     60 S60        19.5004  -31.5855  -41.1237 S.3       10 UNK        -0.2414 
     61 C61        19.2341  -30.4273  -42.5024 C.3       10 UNK         0.0169 
     62 H62        17.1379  -30.4632  -48.0700 H         1 UNK         0.0903 
     63 H63        15.9926  -29.2296  -48.5995 H         1 UNK         0.0903 
     64 H64        17.6779  -29.1493  -49.1188 H         1 UNK         0.0903 
     65 H65        15.5446  -27.7289  -47.0007 H         1 UNK         0.3096 
     66 H66        17.1692  -27.5065  -44.6228 H         1 UNK         0.1121 
     67 H67        14.5660  -26.1020  -45.3909 H         1 UNK         0.0849 
     68 H68        15.3188  -25.9972  -43.8230 H         1 UNK         0.0849 
     69 H69        14.1610  -27.3867  -41.9179 H         1 UNK         0.0865 
     70 H70        14.2367  -29.1282  -41.9759 H         1 UNK         0.0865 
     71 H71        16.5435  -30.1627  -42.8432 H         1 UNK         0.1346 
     72 H72        19.9580  -28.1063  -41.2698 H         1 UNK         0.1412 
     73 H73        16.1170  -26.2077  -41.2401 H         1 UNK         0.1426 
     74 H74        19.6208  -26.0165  -40.0133 H         1 UNK         0.0716 
     75 H75        18.0107  -25.3929  -39.7933 H         1 UNK         0.0716 
     76 H76        21.1250  -23.5761  -42.3863 H         1 UNK         0.0695 
     77 H77        21.2767  -24.7053  -41.0766 H         1 UNK         0.0695 
     78 H78        20.9716  -26.6110  -42.6328 H         1 UNK         0.0983 
     79 H79        19.9383  -26.3994  -44.5425 H         1 UNK         0.3095 
     80 H80        19.0927  -23.8263  -46.6557 H         1 UNK         0.0454 
     81 H81        21.1930  -24.3813  -47.8859 H         1 UNK         0.0851 
     82 H82        20.9535  -26.0933  -47.5638 H         1 UNK         0.0851 
     83 H83        19.8175  -25.2158  -48.5869 H         1 UNK         0.0851 
     84 H84        18.8079  -26.7614  -46.5493 H         1 UNK         0.2976 
     85 H85        22.5971  -26.3453  -45.1369 H         1 UNK         0.3116 
     86 H86        25.1686  -25.3228  -44.4718 H         1 UNK         0.0646 
     87 H87        25.8756  -26.5282  -46.5410 H         1 UNK         0.0847 
     88 H88        24.3899  -25.6343  -46.8095 H         1 UNK         0.0847 
     89 H89        24.3419  -27.3846  -46.5883 H         1 UNK         0.0847 
     90 H90        23.6730  -28.3969  -43.7370 H         1 UNK         0.3040 
     91 H91        26.1176  -29.3127  -42.3134 H         1 UNK         0.1015 
     92 H92        26.0693  -30.5035  -44.5274 H         1 UNK         0.0786 
     93 H93        24.4373  -31.0763  -44.1838 H         1 UNK         0.0786 
     94 H94        25.7901  -31.6086  -43.1933 H         1 UNK         0.0786 
     95 H95        23.9565  -27.9107  -41.2543 H         1 UNK         0.3172 
     96 H96        21.7273  -29.3279  -40.4253 H         1 UNK         0.0595 
     97 H97        21.9599  -26.8494  -40.3324 H         1 UNK         0.0839 
     98 H98        23.1228  -26.9841  -39.0187 H         1 UNK         0.0839 
     99 H99        21.4504  -27.4682  -38.7730 H         1 UNK         0.0839 
    100 H100       24.8812  -29.7527  -39.1128 H         1 UNK         0.2998 
    101 H101       24.1765  -30.7376  -36.5017 H         1 UNK         0.0822 
    102 H102       26.5230  -31.5973  -36.5266 H         1 UNK         0.0787 
    103 H103       26.6619  -31.2195  -38.2378 H         1 UNK         0.0787 
    104 H104       26.4633  -29.9246  -37.0549 H         1 UNK         0.0787 
    105 H105       23.9506  -32.1597  -39.6936 H         1 UNK         0.3055 
    106 H106       23.1418  -34.7594  -38.4897 H         1 UNK         0.1106 
    107 H107       25.2475  -34.4713  -40.7019 H         1 UNK         0.0828 
    108 H108       25.5325  -35.0614  -39.0656 H         1 UNK         0.0828 
    109 H109       24.5339  -35.9899  -40.1709 H         1 UNK         0.0828 
    110 H110       22.9811  -32.4869  -41.2183 H         1 UNK         0.2931 
    111 H111       21.6693  -32.2408  -42.9232 H         1 UNK         0.0412 
    112 H112       23.0925  -35.4917  -44.3398 H         1 UNK         0.3472 
    113 H113       23.6269  -34.5738  -42.9537 H         1 UNK         0.3472 
    114 H114       19.6270  -33.9660  -41.4465 H         1 UNK         0.0970 
    115 H115       19.2736  -33.1464  -42.9310 H         1 UNK         0.0970 
    116 H116       18.7811  -30.9472  -43.3477 H         1 UNK         0.0612 
    117 H117       20.2013  -30.0634  -42.8527 H         1 UNK         0.0612 
@<TRIPOS>BOND
     1    1    2 1    
     2    1   62 1    
     3    1   63 1    
     4    1   64 1    
     5    2    3 2    
     6    2    4 am   BACKBONE|DICT|INTERRES
     7    4    5 1    
     8    4   65 1    
     9    5    6 1    
    10    5   25 1    
    11    5   66 1    
    12    6    7 1    
    13    6   67 1    
    14    6   68 1    
    15    7    8 1    
    16    8    9 1    
    17    8   69 1    
    18    8   70 1    
    19    9   10 ar   
    20    9   14 ar   
    21   10   11 ar   
    22   10   71 1    
    23   11   12 ar   
    24   11   61 1    
    25   12   13 ar   
    26   12   72 1    
    27   13   14 ar   
    28   13   15 1    
    29   14   73 1    
    30   15   16 1    
    31   15   74 1    
    32   15   75 1    
    33   16   17 1    
    34   17   18 1    
    35   17   76 1    
    36   17   77 1    
    37   18   19 1    
    38   18   27 1    
    39   18   78 1    
    40   19   20 am   BACKBONE|DICT|INTERRES
    41   19   79 1    
    42   20   21 2    
    43   20   22 1    
    44   22   23 1    
    45   22   24 1    
    46   22   80 1    
    47   23   81 1    
    48   23   82 1    
    49   23   83 1    
    50   24   25 am   BACKBONE|DICT|INTERRES
    51   24   84 1    
    52   25   26 2    
    53   27   28 2    
    54   27   29 am   BACKBONE|DICT|INTERRES
    55   29   30 1    
    56   29   85 1    
    57   30   31 1    
    58   30   32 1    
    59   30   86 1    
    60   31   87 1    
    61   31   88 1    
    62   31   89 1    
    63   32   33 2    
    64   32   34 am   BACKBONE|DICT|INTERRES
    65   34   35 1    
    66   34   90 1    
    67   35   36 1    
    68   35   37 1    
    69   35   91 1    
    70   36   92 1    
    71   36   93 1    
    72   36   94 1    
    73   37   38 2    
    74   37   39 am   BACKBONE|DICT|INTERRES
    75   39   40 1    
    76   39   95 1    
    77   40   41 1    
    78   40   42 1    
    79   40   96 1    
    80   41   97 1    
    81   41   98 1    
    82   41   99 1    
    83   42   43 2    
    84   42   44 am   BACKBONE|DICT|INTERRES
    85   44   45 1    
    86   44  100 1    
    87   45   46 1    
    88   45   47 1    
    89   45  101 1    
    90   46  102 1    
    91   46  103 1    
    92   46  104 1    
    93   47   48 2    
    94   47   49 am   BACKBONE|DICT|INTERRES
    95   49   50 1    
    96   49  105 1    
    97   50   51 1    
    98   50   52 1    
    99   50  106 1    
   100   51  107 1    
   101   51  108 1    
   102   51  109 1    
   103   52   53 2    
   104   52   54 am   BACKBONE|DICT|INTERRES
   105   54   55 1    
   106   54  110 1    
   107   55   56 1    
   108   55   59 1    
   109   55  111 1    
   110   56   57 am   BACKBONE|DICT|INTERRES
   111   56   58 2    
   112   57  112 1    
   113   57  113 1    
   114   59   60 1    
   115   59  114 1    
   116   59  115 1    
   117   60   61 1    
   118   61  116 1    
   119   61  117 1    
@<TRIPOS>SUBSTRUCTURE
     1 UNK         1 GROUP             0       ****    0 ROOT    
