@<TRIPOS>MOLECULE
3R8
117   119    1
SMALL
USER_CHARGES


@<TRIPOS>ATOM
      1 CA         15.9000  -27.4249  -39.4564 C.3       0 UNK        -0.2013 
      2 C          15.7706  -28.9316  -39.6622 C.2       0 UNK         0.4866 
      3 O          15.4719  -29.6473  -38.7084 O.2       0 UNK        -0.5176 
      4 N          15.9810  -29.4598  -40.8748 N.am      1 UNK        -0.4884 
      5 CA         16.4780  -28.7686  -42.0708 C.3       1 UNK         0.0853 
      6 C6         16.0341  -29.5410  -43.3351 C.3       10 UNK        -0.0849 
      7 S7         16.1172  -28.5680  -44.8756 S.3       10 UNK        -0.2776 
      8 C8         16.6130  -29.8498  -46.0721 C.3       10 UNK         0.0316 
      9 C9         18.1180  -30.0775  -46.0724 C.ar      10 UNK        -0.0863 
     10 C10        18.7005  -31.0082  -45.2082 C.ar      10 UNK        -0.1009 
     11 C11        20.0827  -31.2107  -45.2047 C.ar      10 UNK        -0.0712 
     12 C12        20.8882  -30.4951  -46.0961 C.ar      10 UNK        -0.0894 
     13 C13        20.3115  -29.5905  -46.9938 C.ar      10 UNK        -0.0745 
     14 C14        18.9302  -29.3759  -46.9663 C.ar      10 UNK        -0.0972 
     15 C15        21.1595  -28.8795  -48.0365 C.3       10 UNK         0.0209 
     16 S16        21.3185  -27.1030  -47.6912 S.3       10 UNK        -0.2568 
     17 C17        22.7546  -27.0689  -46.5737 C.3       10 UNK        -0.0983 
     18 CA         22.5236  -26.1406  -45.3487 C.3       3 UNK         0.0876 
     19 N          21.7722  -26.8041  -44.2784 N.am      3 UNK        -0.4424 
     20 C          20.4596  -26.7066  -44.0465 C.2       2 UNK         0.4918 
     21 O          19.6572  -26.0916  -44.7517 O.2       2 UNK        -0.4875 
     22 CA         19.9931  -27.3346  -42.7309 C.3       2 UNK         0.0481 
     23 CB         20.2258  -26.3446  -41.5697 C.3       2 UNK        -0.1831 
     24 N          18.5807  -27.6985  -42.7859 N.am      2 UNK        -0.4498 
     25 C          18.0114  -28.5941  -41.9708 C.2       1 UNK         0.5027 
     26 O          18.6454  -29.2328  -41.1242 O.2       1 UNK        -0.4969 
     27 C          23.8412  -25.5640  -44.7780 C.2       3 UNK         0.5005 
     28 O          24.8319  -25.4597  -45.5040 O.2       3 UNK        -0.5279 
     29 N          23.8510  -25.2141  -43.4805 N.am      4 UNK        -0.4463 
     30 CA         24.9569  -24.6725  -42.6709 C.3       4 UNK         0.0283 
     31 CB         25.4660  -23.3265  -43.2227 C.3       4 UNK        -0.1875 
     32 C          26.1206  -25.6548  -42.4367 C.2       4 UNK         0.4949 
     33 O          26.5511  -25.8146  -41.2949 O.2       4 UNK        -0.5039 
     34 N          26.5897  -26.3162  -43.5025 N.am      5 UNK        -0.4663 
     35 CA         27.5800  -27.3994  -43.4643 C.3       5 UNK         0.0242 
     36 CB         28.0912  -27.6626  -44.8896 C.3       5 UNK        -0.1982 
     37 C          27.0203  -28.6932  -42.8429 C.2       5 UNK         0.5017 
     38 O          27.7868  -29.4949  -42.3083 O.2       5 UNK        -0.5012 
     39 N          25.6952  -28.8494  -42.9085 N.am      6 UNK        -0.4439 
     40 CA         24.8934  -29.8296  -42.1913 C.3       6 UNK         0.0297 
     41 CB         24.4293  -30.9281  -43.1614 C.3       6 UNK        -0.2006 
     42 C          23.6981  -29.0623  -41.6184 C.2       6 UNK         0.4892 
     43 O          23.2347  -28.1110  -42.2579 O.2       6 UNK        -0.5089 
     44 N          23.2243  -29.4765  -40.4408 N.am      7 UNK        -0.4243 
     45 CA         22.0934  -28.8727  -39.7451 C.3       7 UNK         0.0196 
     46 CB         22.5511  -27.6298  -38.9596 C.3       7 UNK        -0.2007 
     47 C          21.4386  -29.9072  -38.8294 C.2       7 UNK         0.5020 
     48 O          22.1028  -30.8614  -38.4167 O.2       7 UNK        -0.5147 
     49 N          20.1469  -29.6878  -38.5422 N.am      8 UNK        -0.4734 
     50 CA         19.2286  -30.5873  -37.8287 C.3       8 UNK         0.0238 
     51 CB         19.6307  -30.7278  -36.3449 C.3       8 UNK        -0.1912 
     52 C          19.0817  -31.9410  -38.5516 C.2       8 UNK         0.5038 
     53 O          19.0806  -32.9925  -37.9077 O.2       8 UNK        -0.5046 
     54 N          19.0007  -31.8753  -39.8840 N.am      9 UNK        -0.4200 
     55 CA         19.0102  -33.0103  -40.8100 C.3       9 UNK         0.0839 
     56 C          17.7482  -33.0215  -41.7168 C.2       9 UNK         0.5513 
     57 N          17.6769  -33.9274  -42.6831 N.am      9 UNK        -0.7519 
     58 O          16.8094  -32.2481  -41.5342 O.2       9 UNK        -0.4960 
     59 C59        20.3659  -33.0791  -41.5718 C.3       10 UNK        -0.0876 
     60 S60        20.7502  -31.5849  -42.5562 S.3       10 UNK        -0.2414 
     61 C61        20.6832  -32.2323  -44.2543 C.3       10 UNK         0.0169 
     62 H62        15.6893  -27.1627  -38.4198 H         1 UNK         0.0903 
     63 H63        15.1914  -26.8844  -40.0831 H         1 UNK         0.0903 
     64 H64        16.9087  -27.0819  -39.6837 H         1 UNK         0.0903 
     65 H65        15.9787  -30.4717  -40.9604 H         1 UNK         0.3096 
     66 H66        16.0305  -27.7741  -42.1113 H         1 UNK         0.1121 
     67 H67        16.5980  -30.4655  -43.4315 H         1 UNK         0.0849 
     68 H68        14.9930  -29.8507  -43.2280 H         1 UNK         0.0849 
     69 H69        16.0854  -30.7818  -45.8625 H         1 UNK         0.0865 
     70 H70        16.2871  -29.5411  -47.0667 H         1 UNK         0.0865 
     71 H71        18.0863  -31.5853  -44.5326 H         1 UNK         0.1346 
     72 H72        21.9564  -30.6625  -46.1093 H         1 UNK         0.1412 
     73 H73        18.4872  -28.6676  -47.6536 H         1 UNK         0.1426 
     74 H74        20.6888  -29.0005  -49.0132 H         1 UNK         0.0716 
     75 H75        22.1478  -29.3340  -48.1218 H         1 UNK         0.0716 
     76 H76        23.0109  -28.0770  -46.2434 H         1 UNK         0.0695 
     77 H77        23.5884  -26.7366  -47.1939 H         1 UNK         0.0695 
     78 H78        21.9659  -25.2617  -45.6801 H         1 UNK         0.0983 
     79 H79        22.3335  -27.3342  -43.6104 H         1 UNK         0.3095 
     80 H80        20.5743  -28.2455  -42.5771 H         1 UNK         0.0454 
     81 H81        19.7077  -25.4001  -41.7407 H         1 UNK         0.0851 
     82 H82        19.8755  -26.7407  -40.6173 H         1 UNK         0.0851 
     83 H83        21.2858  -26.1187  -41.4521 H         1 UNK         0.0851 
     84 H84        18.0430  -27.2499  -43.5181 H         1 UNK         0.2976 
     85 H85        22.9950  -25.3667  -42.9665 H         1 UNK         0.3116 
     86 H86        24.5221  -24.4729  -41.6900 H         1 UNK         0.0646 
     87 H87        26.2093  -22.8902  -42.5542 H         1 UNK         0.0847 
     88 H88        24.6548  -22.6050  -43.3189 H         1 UNK         0.0847 
     89 H89        25.9370  -23.4334  -44.2001 H         1 UNK         0.0847 
     90 H90        26.1655  -26.0965  -44.4023 H         1 UNK         0.3040 
     91 H91        28.4206  -27.0751  -42.8467 H         1 UNK         0.1015 
     92 H92        28.5534  -26.7719  -45.3155 H         1 UNK         0.0786 
     93 H93        27.2857  -27.9741  -45.5561 H         1 UNK         0.0786 
     94 H94        28.8443  -28.4520  -44.8951 H         1 UNK         0.0786 
     95 H95        25.1527  -28.0930  -43.3040 H         1 UNK         0.3172 
     96 H96        25.4681  -30.2701  -41.3737 H         1 UNK         0.0595 
     97 H97        23.8536  -31.6916  -42.6371 H         1 UNK         0.0839 
     98 H98        25.2773  -31.4264  -43.6312 H         1 UNK         0.0839 
     99 H99        23.7944  -30.5273  -43.9530 H         1 UNK         0.0839 
    100 H100       23.6058  -30.2987  -39.9894 H         1 UNK         0.2998 
    101 H101       21.3492  -28.5886  -40.4859 H         1 UNK         0.0822 
    102 H102       23.3004  -27.8852  -38.2094 H         1 UNK         0.0787 
    103 H103       22.9830  -26.8775  -39.6199 H         1 UNK         0.0787 
    104 H104       21.7137  -27.1618  -38.4407 H         1 UNK         0.0787 
    105 H105       19.6997  -28.9011  -38.9948 H         1 UNK         0.3055 
    106 H106       18.2427  -30.1202  -37.8625 H         1 UNK         0.1106 
    107 H107       20.5826  -31.2466  -36.2285 H         1 UNK         0.0828 
    108 H108       19.7180  -29.7539  -35.8637 H         1 UNK         0.0828 
    109 H109       18.8825  -31.2962  -35.7911 H         1 UNK         0.0828 
    110 H110       18.9543  -30.9623  -40.3301 H         1 UNK         0.2931 
    111 H111       18.9265  -33.9302  -40.2291 H         1 UNK         0.0412 
    112 H112       18.4113  -34.6012  -42.8279 H         1 UNK         0.3472 
    113 H113       16.8499  -33.9597  -43.2578 H         1 UNK         0.3472 
    114 H114       20.4203  -33.9732  -42.1932 H         1 UNK         0.0970 
    115 H115       21.1710  -33.1975  -40.8449 H         1 UNK         0.0970 
    116 H116       21.6889  -32.5161  -44.5676 H         1 UNK         0.0612 
    117 H117       20.0791  -33.1393  -44.2946 H         1 UNK         0.0612 
@<TRIPOS>BOND
     1    1    2 1    
     2    1   62 1    
     3    1   63 1    
     4    1   64 1    
     5    2    3 2    
     6    2    4 am   BACKBONE|DICT|INTERRES
     7    4    5 1    
     8    4   65 1    
     9    5    6 1    
    10    5   25 1    
    11    5   66 1    
    12    6    7 1    
    13    6   67 1    
    14    6   68 1    
    15    7    8 1    
    16    8    9 1    
    17    8   69 1    
    18    8   70 1    
    19    9   10 ar   
    20    9   14 ar   
    21   10   11 ar   
    22   10   71 1    
    23   11   12 ar   
    24   11   61 1    
    25   12   13 ar   
    26   12   72 1    
    27   13   14 ar   
    28   13   15 1    
    29   14   73 1    
    30   15   16 1    
    31   15   74 1    
    32   15   75 1    
    33   16   17 1    
    34   17   18 1    
    35   17   76 1    
    36   17   77 1    
    37   18   19 1    
    38   18   27 1    
    39   18   78 1    
    40   19   20 am   BACKBONE|DICT|INTERRES
    41   19   79 1    
    42   20   21 2    
    43   20   22 1    
    44   22   23 1    
    45   22   24 1    
    46   22   80 1    
    47   23   81 1    
    48   23   82 1    
    49   23   83 1    
    50   24   25 am   BACKBONE|DICT|INTERRES
    51   24   84 1    
    52   25   26 2    
    53   27   28 2    
    54   27   29 am   BACKBONE|DICT|INTERRES
    55   29   30 1    
    56   29   85 1    
    57   30   31 1    
    58   30   32 1    
    59   30   86 1    
    60   31   87 1    
    61   31   88 1    
    62   31   89 1    
    63   32   33 2    
    64   32   34 am   BACKBONE|DICT|INTERRES
    65   34   35 1    
    66   34   90 1    
    67   35   36 1    
    68   35   37 1    
    69   35   91 1    
    70   36   92 1    
    71   36   93 1    
    72   36   94 1    
    73   37   38 2    
    74   37   39 am   BACKBONE|DICT|INTERRES
    75   39   40 1    
    76   39   95 1    
    77   40   41 1    
    78   40   42 1    
    79   40   96 1    
    80   41   97 1    
    81   41   98 1    
    82   41   99 1    
    83   42   43 2    
    84   42   44 am   BACKBONE|DICT|INTERRES
    85   44   45 1    
    86   44  100 1    
    87   45   46 1    
    88   45   47 1    
    89   45  101 1    
    90   46  102 1    
    91   46  103 1    
    92   46  104 1    
    93   47   48 2    
    94   47   49 am   BACKBONE|DICT|INTERRES
    95   49   50 1    
    96   49  105 1    
    97   50   51 1    
    98   50   52 1    
    99   50  106 1    
   100   51  107 1    
   101   51  108 1    
   102   51  109 1    
   103   52   53 2    
   104   52   54 am   BACKBONE|DICT|INTERRES
   105   54   55 1    
   106   54  110 1    
   107   55   56 1    
   108   55   59 1    
   109   55  111 1    
   110   56   57 am   BACKBONE|DICT|INTERRES
   111   56   58 2    
   112   57  112 1    
   113   57  113 1    
   114   59   60 1    
   115   59  114 1    
   116   59  115 1    
   117   60   61 1    
   118   61  116 1    
   119   61  117 1    
@<TRIPOS>SUBSTRUCTURE
     1 UNK         1 GROUP             0       ****    0 ROOT    
