@<TRIPOS>MOLECULE
3R8
117   119    1
SMALL
USER_CHARGES


@<TRIPOS>ATOM
      1 CA         16.0177  -23.2666  -43.1788 C.3       0 UNK        -0.2013 
      2 C          16.5870  -24.6602  -43.3982 C.2       0 UNK         0.4866 
      3 O          17.7898  -24.8621  -43.2296 O.2       0 UNK        -0.5176 
      4 N          15.7335  -25.6188  -43.7807 N.am      1 UNK        -0.4884 
      5 CA         16.0964  -27.0255  -43.9961 C.3       1 UNK         0.0853 
      6 C6         15.0431  -27.7665  -44.8504 C.3       10 UNK        -0.0849 
      7 S7         15.1041  -27.1490  -46.5639 S.3       10 UNK        -0.2776 
      8 C8         15.9520  -28.5110  -47.4302 C.3       10 UNK         0.0316 
      9 C9         17.2875  -28.9162  -46.8077 C.ar      10 UNK        -0.0863 
     10 C10        17.4761  -30.2333  -46.3777 C.ar      10 UNK        -0.1009 
     11 C11        18.7245  -30.6662  -45.9225 C.ar      10 UNK        -0.0712 
     12 C12        19.7847  -29.7552  -45.8702 C.ar      10 UNK        -0.0894 
     13 C13        19.6048  -28.4202  -46.2515 C.ar      10 UNK        -0.0745 
     14 C14        18.3542  -28.0122  -46.7321 C.ar      10 UNK        -0.0972 
     15 C15        20.7812  -27.4445  -46.2565 C.3       10 UNK         0.0209 
     16 S16        21.8328  -27.5213  -44.7622 S.3       10 UNK        -0.2568 
     17 C17        21.0508  -26.3100  -43.6381 C.3       10 UNK        -0.0983 
     18 CA         20.7067  -26.8521  -42.2258 C.3       3 UNK         0.0876 
     19 N          19.7935  -27.9867  -42.2997 N.am      3 UNK        -0.4424 
     20 C          19.0511  -28.4521  -41.2871 C.2       2 UNK         0.4918 
     21 O          19.1424  -28.0627  -40.1220 O.2       2 UNK        -0.4875 
     22 CA         17.9554  -29.4512  -41.6997 C.3       2 UNK         0.0481 
     23 CB         17.0999  -29.9642  -40.5217 C.3       2 UNK        -0.1831 
     24 N          17.1441  -28.8576  -42.7721 N.am      2 UNK        -0.4498 
     25 C          16.3876  -27.7518  -42.6699 C.2       1 UNK         0.5027 
     26 O          15.9713  -27.2864  -41.6057 O.2       1 UNK        -0.4969 
     27 C          21.9623  -27.1598  -41.3848 C.2       3 UNK         0.5005 
     28 O          22.5216  -28.2577  -41.4725 O.2       3 UNK        -0.5279 
     29 N          22.4155  -26.1616  -40.6121 N.am      4 UNK        -0.4463 
     30 CA         23.6237  -26.2283  -39.7809 C.3       4 UNK         0.0283 
     31 CB         23.7072  -24.9774  -38.8927 C.3       4 UNK        -0.1875 
     32 C          24.9164  -26.3942  -40.5982 C.2       4 UNK         0.4949 
     33 O          25.8650  -27.0052  -40.1080 O.2       4 UNK        -0.5039 
     34 N          24.9099  -25.9061  -41.8474 N.am      5 UNK        -0.4663 
     35 CA         25.9846  -26.0722  -42.8317 C.3       5 UNK         0.0242 
     36 CB         25.6436  -25.2510  -44.0857 C.3       5 UNK        -0.1982 
     37 C          26.2568  -27.5399  -43.2131 C.2       5 UNK         0.5017 
     38 O          27.3812  -27.8591  -43.5996 O.2       5 UNK        -0.5012 
     39 N          25.2385  -28.3996  -43.0761 N.am      6 UNK        -0.4439 
     40 CA         25.3152  -29.8457  -43.2790 C.3       6 UNK         0.0297 
     41 CB         24.1679  -30.2660  -44.2127 C.3       6 UNK        -0.2006 
     42 C          25.2588  -30.6099  -41.9424 C.2       6 UNK         0.4892 
     43 O          24.9898  -31.8111  -41.9572 O.2       6 UNK        -0.5089 
     44 N          25.4798  -29.9170  -40.8120 N.am      7 UNK        -0.4243 
     45 CA         25.4240  -30.4281  -39.4351 C.3       7 UNK         0.0196 
     46 CB         26.6067  -31.3817  -39.1618 C.3       7 UNK        -0.2007 
     47 C          24.0554  -31.0471  -39.0855 C.2       7 UNK         0.5020 
     48 O          23.9962  -32.1394  -38.5203 O.2       7 UNK        -0.5147 
     49 N          22.9828  -30.3413  -39.4721 N.am      8 UNK        -0.4734 
     50 CA         21.5635  -30.7128  -39.3812 C.3       8 UNK         0.0238 
     51 CB         21.1465  -31.1363  -37.9568 C.3       8 UNK        -0.1912 
     52 C          21.1057  -31.7169  -40.4569 C.2       8 UNK         0.5038 
     53 O          19.9330  -32.0870  -40.4576 O.2       8 UNK        -0.5046 
     54 N          22.0139  -32.1099  -41.3594 N.am      9 UNK        -0.4200 
     55 CA         21.7968  -32.9266  -42.5634 C.3       9 UNK         0.0839 
     56 C          21.3761  -34.4114  -42.3423 C.2       9 UNK         0.5513 
     57 N          21.3011  -34.9070  -41.1134 N.am      9 UNK        -0.7519 
     58 O          21.1744  -35.1464  -43.3058 O.2       9 UNK        -0.4960 
     59 C59        21.0211  -32.1501  -43.6729 C.3       10 UNK        -0.0876 
     60 S60        19.2168  -32.4189  -43.7988 S.3       10 UNK        -0.2414 
     61 C61        18.9354  -32.1372  -45.5758 C.3       10 UNK         0.0169 
     62 H62        16.1824  -22.9531  -42.1483 H         1 UNK         0.0903 
     63 H63        16.5124  -22.5519  -43.8359 H         1 UNK         0.0903 
     64 H64        14.9471  -23.2265  -43.3788 H         1 UNK         0.0903 
     65 H65        14.7544  -25.3983  -43.8919 H         1 UNK         0.3096 
     66 H66        17.0420  -27.0232  -44.5416 H         1 UNK         0.1121 
     67 H67        14.0394  -27.6170  -44.4485 H         1 UNK         0.0849 
     68 H68        15.2071  -28.8458  -44.8539 H         1 UNK         0.0849 
     69 H69        15.2728  -29.3638  -47.4772 H         1 UNK         0.0865 
     70 H70        16.1256  -28.2108  -48.4645 H         1 UNK         0.0865 
     71 H71        16.6609  -30.9409  -46.4481 H         1 UNK         0.1346 
     72 H72        20.7646  -30.0899  -45.5639 H         1 UNK         0.1412 
     73 H73        18.2140  -26.9967  -47.0778 H         1 UNK         0.1426 
     74 H74        20.4400  -26.4191  -46.4064 H         1 UNK         0.0716 
     75 H75        21.4057  -27.6821  -47.1185 H         1 UNK         0.0716 
     76 H76        21.7080  -25.4420  -43.5638 H         1 UNK         0.0695 
     77 H77        20.1373  -25.9389  -44.1049 H         1 UNK         0.0695 
     78 H78        20.1597  -26.0596  -41.7091 H         1 UNK         0.0983 
     79 H79        19.6858  -28.3897  -43.2181 H         1 UNK         0.3095 
     80 H80        18.4659  -30.3102  -42.1285 H         1 UNK         0.0454 
     81 H81        17.7192  -30.5131  -39.8115 H         1 UNK         0.0851 
     82 H82        16.3212  -30.6444  -40.8652 H         1 UNK         0.0851 
     83 H83        16.6229  -29.1553  -39.9688 H         1 UNK         0.0851 
     84 H84        17.3703  -29.1867  -43.7013 H         1 UNK         0.2976 
     85 H85        21.9036  -25.2905  -40.5896 H         1 UNK         0.3116 
     86 H86        23.5330  -27.1020  -39.1318 H         1 UNK         0.0646 
     87 H87        23.7793  -24.0635  -39.4837 H         1 UNK         0.0847 
     88 H88        24.5857  -25.0165  -38.2467 H         1 UNK         0.0847 
     89 H89        22.8357  -24.8913  -38.2434 H         1 UNK         0.0847 
     90 H90        24.0848  -25.4151  -42.1588 H         1 UNK         0.3040 
     91 H91        26.9030  -25.6748  -42.3937 H         1 UNK         0.1015 
     92 H92        24.7193  -25.5939  -44.5536 H         1 UNK         0.0786 
     93 H93        26.4353  -25.3310  -44.8321 H         1 UNK         0.0786 
     94 H94        25.5299  -24.1927  -43.8500 H         1 UNK         0.0786 
     95 H95        24.3501  -28.0518  -42.7323 H         1 UNK         0.3172 
     96 H96        26.2576  -30.1163  -43.7586 H         1 UNK         0.0595 
     97 H97        23.2002  -30.0445  -43.7646 H         1 UNK         0.0839 
     98 H98        24.1984  -31.3343  -44.4297 H         1 UNK         0.0839 
     99 H99        24.2209  -29.7415  -45.1668 H         1 UNK         0.0839 
    100 H100       25.6896  -28.9278  -40.8913 H         1 UNK         0.2998 
    101 H101       25.5415  -29.5626  -38.7811 H         1 UNK         0.0822 
    102 H102       26.6351  -31.6782  -38.1126 H         1 UNK         0.0787 
    103 H103       26.5379  -32.2939  -39.7555 H         1 UNK         0.0787 
    104 H104       27.5602  -30.9050  -39.3887 H         1 UNK         0.0787 
    105 H105       23.1434  -29.4948  -40.0122 H         1 UNK         0.3055 
    106 H106       21.0260  -29.7922  -39.6018 H         1 UNK         0.1106 
    107 H107       21.4823  -30.4149  -37.2122 H         1 UNK         0.0828 
    108 H108       20.0607  -31.2011  -37.8761 H         1 UNK         0.0828 
    109 H109       21.5448  -32.1141  -37.6861 H         1 UNK         0.0828 
    110 H110       22.9700  -31.8008  -41.2341 H         1 UNK         0.2931 
    111 H111       22.8114  -33.0306  -42.9487 H         1 UNK         0.0412 
    112 H112       21.4599  -34.3102  -40.3174 H         1 UNK         0.3472 
    113 H113       21.0490  -35.8740  -40.9822 H         1 UNK         0.3472 
    114 H114       21.4666  -32.4068  -44.6348 H         1 UNK         0.0970 
    115 H115       21.1815  -31.0789  -43.5549 H         1 UNK         0.0970 
    116 H116       18.0606  -32.7201  -45.8680 H         1 UNK         0.0612 
    117 H117       19.7635  -32.5387  -46.1610 H         1 UNK         0.0612 
@<TRIPOS>BOND
     1    1    2 1    
     2    1   62 1    
     3    1   63 1    
     4    1   64 1    
     5    2    3 2    
     6    2    4 am   BACKBONE|DICT|INTERRES
     7    4    5 1    
     8    4   65 1    
     9    5    6 1    
    10    5   25 1    
    11    5   66 1    
    12    6    7 1    
    13    6   67 1    
    14    6   68 1    
    15    7    8 1    
    16    8    9 1    
    17    8   69 1    
    18    8   70 1    
    19    9   10 ar   
    20    9   14 ar   
    21   10   11 ar   
    22   10   71 1    
    23   11   12 ar   
    24   11   61 1    
    25   12   13 ar   
    26   12   72 1    
    27   13   14 ar   
    28   13   15 1    
    29   14   73 1    
    30   15   16 1    
    31   15   74 1    
    32   15   75 1    
    33   16   17 1    
    34   17   18 1    
    35   17   76 1    
    36   17   77 1    
    37   18   19 1    
    38   18   27 1    
    39   18   78 1    
    40   19   20 am   BACKBONE|DICT|INTERRES
    41   19   79 1    
    42   20   21 2    
    43   20   22 1    
    44   22   23 1    
    45   22   24 1    
    46   22   80 1    
    47   23   81 1    
    48   23   82 1    
    49   23   83 1    
    50   24   25 am   BACKBONE|DICT|INTERRES
    51   24   84 1    
    52   25   26 2    
    53   27   28 2    
    54   27   29 am   BACKBONE|DICT|INTERRES
    55   29   30 1    
    56   29   85 1    
    57   30   31 1    
    58   30   32 1    
    59   30   86 1    
    60   31   87 1    
    61   31   88 1    
    62   31   89 1    
    63   32   33 2    
    64   32   34 am   BACKBONE|DICT|INTERRES
    65   34   35 1    
    66   34   90 1    
    67   35   36 1    
    68   35   37 1    
    69   35   91 1    
    70   36   92 1    
    71   36   93 1    
    72   36   94 1    
    73   37   38 2    
    74   37   39 am   BACKBONE|DICT|INTERRES
    75   39   40 1    
    76   39   95 1    
    77   40   41 1    
    78   40   42 1    
    79   40   96 1    
    80   41   97 1    
    81   41   98 1    
    82   41   99 1    
    83   42   43 2    
    84   42   44 am   BACKBONE|DICT|INTERRES
    85   44   45 1    
    86   44  100 1    
    87   45   46 1    
    88   45   47 1    
    89   45  101 1    
    90   46  102 1    
    91   46  103 1    
    92   46  104 1    
    93   47   48 2    
    94   47   49 am   BACKBONE|DICT|INTERRES
    95   49   50 1    
    96   49  105 1    
    97   50   51 1    
    98   50   52 1    
    99   50  106 1    
   100   51  107 1    
   101   51  108 1    
   102   51  109 1    
   103   52   53 2    
   104   52   54 am   BACKBONE|DICT|INTERRES
   105   54   55 1    
   106   54  110 1    
   107   55   56 1    
   108   55   59 1    
   109   55  111 1    
   110   56   57 am   BACKBONE|DICT|INTERRES
   111   56   58 2    
   112   57  112 1    
   113   57  113 1    
   114   59   60 1    
   115   59  114 1    
   116   59  115 1    
   117   60   61 1    
   118   61  116 1    
   119   61  117 1    
@<TRIPOS>SUBSTRUCTURE
     1 UNK         1 GROUP             0       ****    0 ROOT    
