@<TRIPOS>MOLECULE
3R8
117   119    1
SMALL
USER_CHARGES


@<TRIPOS>ATOM
      1 CA         15.6353  -24.9240  -39.7622 C.3       0 UNK        -0.2013 
      2 C          16.0488  -24.8254  -41.2230 C.2       0 UNK         0.4866 
      3 O          16.5239  -23.7748  -41.6534 O.2       0 UNK        -0.5176 
      4 N          15.8606  -25.9093  -41.9858 N.am      1 UNK        -0.4884 
      5 CA         16.2584  -26.0503  -43.3903 C.3       1 UNK         0.0853 
      6 C6         15.5243  -27.2283  -44.0883 C.3       10 UNK        -0.0849 
      7 S7         15.4760  -28.7802  -43.1134 S.3       10 UNK        -0.2776 
      8 C8         15.5877  -30.0544  -44.4075 C.3       10 UNK         0.0316 
      9 C9         16.9991  -30.1762  -44.9599 C.ar      10 UNK        -0.0863 
     10 C10        17.9758  -30.8730  -44.2424 C.ar      10 UNK        -0.1009 
     11 C11        19.2786  -30.9936  -44.7411 C.ar      10 UNK        -0.0712 
     12 C12        19.5881  -30.4219  -45.9794 C.ar      10 UNK        -0.0894 
     13 C13        18.6184  -29.7281  -46.7084 C.ar      10 UNK        -0.0745 
     14 C14        17.3254  -29.6096  -46.1943 C.ar      10 UNK        -0.0972 
     15 C15        18.9530  -29.1220  -48.0620 C.3       10 UNK         0.0209 
     16 S16        19.3093  -27.3430  -47.9350 S.3       10 UNK        -0.2568 
     17 C17        21.0433  -27.3516  -47.3685 C.3       10 UNK        -0.0983 
     18 CA         21.2992  -26.3112  -46.2464 C.3       3 UNK         0.0876 
     19 N          20.5121  -26.5674  -45.0279 N.am      3 UNK        -0.4424 
     20 C          20.7184  -27.5178  -44.1071 C.2       2 UNK         0.4918 
     21 O          21.6437  -28.3262  -44.1659 O.2       2 UNK        -0.4875 
     22 CA         19.8045  -27.5362  -42.8652 C.3       2 UNK         0.0481 
     23 CB         20.3977  -26.6443  -41.7577 C.3       2 UNK        -0.1831 
     24 N          18.3796  -27.2310  -43.0650 N.am      2 UNK        -0.4498 
     25 C          17.7942  -26.1140  -43.5195 C.2       1 UNK         0.5027 
     26 O          18.4070  -25.1490  -43.9796 O.2       1 UNK        -0.4969 
     27 C          22.8073  -26.1090  -45.9537 C.2       3 UNK         0.5005 
     28 O          23.6563  -26.5154  -46.7494 O.2       3 UNK        -0.5279 
     29 N          23.1056  -25.4995  -44.7948 N.am      4 UNK        -0.4463 
     30 CA         24.4333  -25.2452  -44.2223 C.3       4 UNK         0.0283 
     31 CB         25.2583  -24.3025  -45.1243 C.3       4 UNK        -0.1875 
     32 C          25.2268  -26.5091  -43.8252 C.2       4 UNK         0.4949 
     33 O          26.4069  -26.3868  -43.4958 O.2       4 UNK        -0.5039 
     34 N          24.5906  -27.6907  -43.7857 N.am      5 UNK        -0.4663 
     35 CA         25.2100  -28.9715  -43.4100 C.3       5 UNK         0.0242 
     36 CB         24.4343  -30.1189  -44.0845 C.3       5 UNK        -0.1982 
     37 C          25.3143  -29.1614  -41.8810 C.2       5 UNK         0.5017 
     38 O          25.0522  -30.2549  -41.3764 O.2       5 UNK        -0.5012 
     39 N          25.6390  -28.0772  -41.1588 N.am      6 UNK        -0.4439 
     40 CA         25.7596  -27.9532  -39.6958 C.3       6 UNK         0.0297 
     41 CB         26.9781  -28.7580  -39.1966 C.3       6 UNK        -0.2006 
     42 C          24.4814  -28.3107  -38.9031 C.2       6 UNK         0.4892 
     43 O          24.5580  -28.4890  -37.6868 O.2       6 UNK        -0.5089 
     44 N          23.3452  -28.4388  -39.6072 N.am      7 UNK        -0.4243 
     45 CA         22.0657  -29.0004  -39.1572 C.3       7 UNK         0.0196 
     46 CB         21.4012  -28.0948  -38.0996 C.3       7 UNK        -0.2007 
     47 C          22.1653  -30.4749  -38.7072 C.2       7 UNK         0.5020 
     48 O          21.2929  -30.9486  -37.9777 O.2       7 UNK        -0.5147 
     49 N          23.1932  -31.2019  -39.1719 N.am      8 UNK        -0.4734 
     50 CA         23.4449  -32.6153  -38.8686 C.3       8 UNK         0.0238 
     51 CB         24.9616  -32.8720  -38.9446 C.3       8 UNK        -0.1912 
     52 C          22.6365  -33.5376  -39.8021 C.2       8 UNK         0.5038 
     53 O          23.1962  -34.4454  -40.4203 O.2       8 UNK        -0.5046 
     54 N          21.3362  -33.2522  -39.9119 N.am      9 UNK        -0.4200 
     55 CA         20.4053  -33.8388  -40.8861 C.3       9 UNK         0.0839 
     56 C          19.6029  -35.0545  -40.3426 C.2       9 UNK         0.5513 
     57 N          19.7814  -35.4666  -39.0931 N.am      9 UNK        -0.7519 
     58 O          18.8112  -35.6446  -41.0730 O.2       9 UNK        -0.4960 
     59 C59        19.4711  -32.7504  -41.4799 C.3       10 UNK        -0.0876 
     60 S60        20.4131  -31.3579  -42.2004 S.3       10 UNK        -0.2414 
     61 C61        20.3608  -31.7532  -43.9783 C.3       10 UNK         0.0169 
     62 H62        16.4959  -24.7509  -39.1166 H         1 UNK         0.0903 
     63 H63        14.8810  -24.1715  -39.5339 H         1 UNK         0.0903 
     64 H64        15.2216  -25.9028  -39.5199 H         1 UNK         0.0903 
     65 H65        15.4656  -26.7447  -41.5752 H         1 UNK         0.3096 
     66 H66        15.9525  -25.1371  -43.9070 H         1 UNK         0.1121 
     67 H67        14.4888  -26.9386  -44.2740 H         1 UNK         0.0849 
     68 H68        15.9509  -27.4102  -45.0755 H         1 UNK         0.0849 
     69 H69        15.2826  -31.0128  -43.9846 H         1 UNK         0.0865 
     70 H70        14.8729  -29.8346  -45.2023 H         1 UNK         0.0865 
     71 H71        17.7177  -31.3133  -43.2900 H         1 UNK         0.1346 
     72 H72        20.5893  -30.5161  -46.3765 H         1 UNK         0.1412 
     73 H73        16.5738  -29.0763  -46.7605 H         1 UNK         0.1426 
     74 H74        18.1090  -29.2611  -48.7392 H         1 UNK         0.0716 
     75 H75        19.7971  -29.6374  -48.5229 H         1 UNK         0.0716 
     76 H76        21.6570  -27.1385  -48.2456 H         1 UNK         0.0695 
     77 H77        21.3311  -28.3477  -47.0313 H         1 UNK         0.0695 
     78 H78        20.9582  -25.3441  -46.6196 H         1 UNK         0.0983 
     79 H79        19.7391  -25.9276  -44.8521 H         1 UNK         0.3095 
     80 H80        19.8205  -28.5605  -42.4956 H         1 UNK         0.0454 
     81 H81        21.4415  -26.8957  -41.5665 H         1 UNK         0.0851 
     82 H82        19.8587  -26.7702  -40.8187 H         1 UNK         0.0851 
     83 H83        20.3624  -25.5874  -42.0232 H         1 UNK         0.0851 
     84 H84        17.7495  -27.9717  -42.7829 H         1 UNK         0.2976 
     85 H85        22.3266  -25.2121  -44.2185 H         1 UNK         0.3116 
     86 H86        24.2488  -24.7145  -43.2872 H         1 UNK         0.0646 
     87 H87        25.5562  -24.7869  -46.0544 H         1 UNK         0.0847 
     88 H88        24.6979  -23.4029  -45.3783 H         1 UNK         0.0847 
     89 H89        26.1719  -23.9801  -44.6233 H         1 UNK         0.0847 
     90 H90        23.6074  -27.7309  -44.0364 H         1 UNK         0.3040 
     91 H91        26.2307  -28.9923  -43.7986 H         1 UNK         0.1015 
     92 H92        24.9432  -31.0730  -43.9413 H         1 UNK         0.0786 
     93 H93        24.3397  -29.9601  -45.1588 H         1 UNK         0.0786 
     94 H94        23.4304  -30.2229  -43.6710 H         1 UNK         0.0786 
     95 H95        25.8625  -27.2423  -41.6907 H         1 UNK         0.3172 
     96 H96        25.9525  -26.8982  -39.4966 H         1 UNK         0.0595 
     97 H97        26.8261  -29.8322  -39.3095 H         1 UNK         0.0839 
     98 H98        27.1710  -28.5675  -38.1401 H         1 UNK         0.0839 
     99 H99        27.8830  -28.4883  -39.7410 H         1 UNK         0.0839 
    100 H100       23.4176  -28.2765  -40.6011 H         1 UNK         0.2998 
    101 H101       21.4171  -29.0095  -40.0345 H         1 UNK         0.0822 
    102 H102       20.3865  -28.4291  -37.8803 H         1 UNK         0.0787 
    103 H103       21.3327  -27.0639  -38.4466 H         1 UNK         0.0787 
    104 H104       21.9533  -28.0975  -37.1595 H         1 UNK         0.0787 
    105 H105       23.8328  -30.7706  -39.8334 H         1 UNK         0.3055 
    106 H106       23.1210  -32.8273  -37.8471 H         1 UNK         0.1106 
    107 H107       25.5080  -32.2229  -38.2600 H         1 UNK         0.0828 
    108 H108       25.2000  -33.9014  -38.6740 H         1 UNK         0.0828 
    109 H109       25.3489  -32.6987  -39.9496 H         1 UNK         0.0828 
    110 H110       20.9725  -32.4974  -39.3424 H         1 UNK         0.2931 
    111 H111       20.9906  -34.2347  -41.7185 H         1 UNK         0.0412 
    112 H112       19.2598  -36.2596  -38.7532 H         1 UNK         0.3472 
    113 H113       20.4351  -34.9941  -38.4892 H         1 UNK         0.3472 
    114 H114       18.8145  -33.1784  -42.2394 H         1 UNK         0.0970 
    115 H115       18.8141  -32.3504  -40.7056 H         1 UNK         0.0970 
    116 H116       21.3421  -31.5112  -44.3890 H         1 UNK         0.0612 
    117 H117       20.2265  -32.8253  -44.1256 H         1 UNK         0.0612 
@<TRIPOS>BOND
     1    1    2 1    
     2    1   62 1    
     3    1   63 1    
     4    1   64 1    
     5    2    3 2    
     6    2    4 am   BACKBONE|DICT|INTERRES
     7    4    5 1    
     8    4   65 1    
     9    5    6 1    
    10    5   25 1    
    11    5   66 1    
    12    6    7 1    
    13    6   67 1    
    14    6   68 1    
    15    7    8 1    
    16    8    9 1    
    17    8   69 1    
    18    8   70 1    
    19    9   10 ar   
    20    9   14 ar   
    21   10   11 ar   
    22   10   71 1    
    23   11   12 ar   
    24   11   61 1    
    25   12   13 ar   
    26   12   72 1    
    27   13   14 ar   
    28   13   15 1    
    29   14   73 1    
    30   15   16 1    
    31   15   74 1    
    32   15   75 1    
    33   16   17 1    
    34   17   18 1    
    35   17   76 1    
    36   17   77 1    
    37   18   19 1    
    38   18   27 1    
    39   18   78 1    
    40   19   20 am   BACKBONE|DICT|INTERRES
    41   19   79 1    
    42   20   21 2    
    43   20   22 1    
    44   22   23 1    
    45   22   24 1    
    46   22   80 1    
    47   23   81 1    
    48   23   82 1    
    49   23   83 1    
    50   24   25 am   BACKBONE|DICT|INTERRES
    51   24   84 1    
    52   25   26 2    
    53   27   28 2    
    54   27   29 am   BACKBONE|DICT|INTERRES
    55   29   30 1    
    56   29   85 1    
    57   30   31 1    
    58   30   32 1    
    59   30   86 1    
    60   31   87 1    
    61   31   88 1    
    62   31   89 1    
    63   32   33 2    
    64   32   34 am   BACKBONE|DICT|INTERRES
    65   34   35 1    
    66   34   90 1    
    67   35   36 1    
    68   35   37 1    
    69   35   91 1    
    70   36   92 1    
    71   36   93 1    
    72   36   94 1    
    73   37   38 2    
    74   37   39 am   BACKBONE|DICT|INTERRES
    75   39   40 1    
    76   39   95 1    
    77   40   41 1    
    78   40   42 1    
    79   40   96 1    
    80   41   97 1    
    81   41   98 1    
    82   41   99 1    
    83   42   43 2    
    84   42   44 am   BACKBONE|DICT|INTERRES
    85   44   45 1    
    86   44  100 1    
    87   45   46 1    
    88   45   47 1    
    89   45  101 1    
    90   46  102 1    
    91   46  103 1    
    92   46  104 1    
    93   47   48 2    
    94   47   49 am   BACKBONE|DICT|INTERRES
    95   49   50 1    
    96   49  105 1    
    97   50   51 1    
    98   50   52 1    
    99   50  106 1    
   100   51  107 1    
   101   51  108 1    
   102   51  109 1    
   103   52   53 2    
   104   52   54 am   BACKBONE|DICT|INTERRES
   105   54   55 1    
   106   54  110 1    
   107   55   56 1    
   108   55   59 1    
   109   55  111 1    
   110   56   57 am   BACKBONE|DICT|INTERRES
   111   56   58 2    
   112   57  112 1    
   113   57  113 1    
   114   59   60 1    
   115   59  114 1    
   116   59  115 1    
   117   60   61 1    
   118   61  116 1    
   119   61  117 1    
@<TRIPOS>SUBSTRUCTURE
     1 UNK         1 GROUP             0       ****    0 ROOT    
