@<TRIPOS>MOLECULE
3R8
117   119    1
SMALL
USER_CHARGES


@<TRIPOS>ATOM
      1 CA         19.0043  -23.9073  -39.5278 C.3       0 UNK        -0.2013 
      2 C          18.8133  -24.6306  -40.8517 C.2       0 UNK         0.4866 
      3 O          18.2246  -24.0753  -41.7804 O.2       0 UNK        -0.5176 
      4 N          19.3201  -25.8632  -40.9553 N.am      1 UNK        -0.4884 
      5 CA         19.2937  -26.6940  -42.1605 C.3       1 UNK         0.0853 
      6 C6         19.3985  -28.1989  -41.8045 C.3       10 UNK        -0.0849 
      7 S7         17.9467  -28.8418  -40.9009 S.3       10 UNK        -0.2776 
      8 C8         16.7802  -29.2787  -42.2359 C.3       10 UNK         0.0316 
      9 C9         17.4050  -30.1726  -43.2992 C.ar      10 UNK        -0.0863 
     10 C10        17.5729  -31.5408  -43.0748 C.ar      10 UNK        -0.1009 
     11 C11        18.1718  -32.3471  -44.0481 C.ar      10 UNK        -0.0712 
     12 C12        18.6089  -31.7726  -45.2461 C.ar      10 UNK        -0.0894 
     13 C13        18.4574  -30.4028  -45.4842 C.ar      10 UNK        -0.0745 
     14 C14        17.8325  -29.6160  -44.5070 C.ar      10 UNK        -0.0972 
     15 C15        19.0160  -29.8256  -46.7882 C.3       10 UNK         0.0209 
     16 S16        18.7862  -28.0257  -47.0048 S.3       10 UNK        -0.2568 
     17 C17        20.1859  -27.5828  -48.0898 C.3       10 UNK        -0.0983 
     18 CA         21.4295  -27.0420  -47.3315 C.3       3 UNK         0.0876 
     19 N          21.0623  -26.0713  -46.2915 N.am      3 UNK        -0.4424 
     20 C          21.8990  -25.2163  -45.6906 C.2       2 UNK         0.4918 
     21 O          23.0840  -25.0931  -46.0003 O.2       2 UNK        -0.4875 
     22 CA         21.3315  -24.3913  -44.5179 C.3       2 UNK         0.0481 
     23 CB         20.7805  -23.0506  -45.0265 C.3       2 UNK        -0.1831 
     24 N          20.3021  -25.0635  -43.7092 N.am      2 UNK        -0.4498 
     25 C          20.4322  -26.2531  -43.1030 C.2       1 UNK         0.5027 
     26 O          21.4172  -26.9743  -43.2422 O.2       1 UNK        -0.4969 
     27 C          22.3359  -28.1865  -46.8170 C.2       3 UNK         0.5005 
     28 O          23.0007  -28.8313  -47.6290 O.2       3 UNK        -0.5279 
     29 N          22.3720  -28.4057  -45.4961 N.am      4 UNK        -0.4463 
     30 CA         23.2501  -29.3404  -44.7921 C.3       4 UNK         0.0283 
     31 CB         22.3811  -30.3800  -44.0606 C.3       4 UNK        -0.1875 
     32 C          24.1681  -28.5524  -43.8359 C.2       4 UNK         0.4949 
     33 O          24.4315  -28.9918  -42.7157 O.2       4 UNK        -0.5039 
     34 N          24.6118  -27.3700  -44.2882 N.am      5 UNK        -0.4663 
     35 CA         25.4109  -26.3497  -43.5978 C.3       5 UNK         0.0242 
     36 CB         26.7670  -26.8997  -43.1124 C.3       5 UNK        -0.1982 
     37 C          24.6562  -25.6231  -42.4713 C.2       5 UNK         0.5017 
     38 O          24.6245  -24.3922  -42.4817 O.2       5 UNK        -0.5012 
     39 N          24.0602  -26.3786  -41.5412 N.am      6 UNK        -0.4439 
     40 CA         23.2404  -25.8807  -40.4323 C.3       6 UNK         0.0297 
     41 CB         24.0626  -25.0158  -39.4529 C.3       6 UNK        -0.2006 
     42 C          22.5704  -27.0245  -39.6616 C.2       6 UNK         0.4892 
     43 O          21.4226  -26.8682  -39.2417 O.2       6 UNK        -0.5089 
     44 N          23.3005  -28.1284  -39.4518 N.am      7 UNK        -0.4243 
     45 CA         22.8441  -29.2827  -38.6760 C.3       7 UNK         0.0196 
     46 CB         24.0670  -30.1058  -38.2389 C.3       7 UNK        -0.2007 
     47 C          21.8689  -30.1605  -39.4740 C.2       7 UNK         0.5020 
     48 O          22.0536  -30.3420  -40.6773 O.2       7 UNK        -0.5147 
     49 N          20.8737  -30.7250  -38.7801 N.am      8 UNK        -0.4734 
     50 CA         19.9308  -31.6946  -39.3433 C.3       8 UNK         0.0238 
     51 CB         18.7160  -31.8157  -38.4085 C.3       8 UNK        -0.1912 
     52 C          20.5914  -33.0674  -39.5607 C.2       8 UNK         0.5038 
     53 O          21.5674  -33.3974  -38.8812 O.2       8 UNK        -0.5046 
     54 N          20.0285  -33.8464  -40.4910 N.am      9 UNK        -0.4200 
     55 CA         20.5485  -35.1567  -40.9206 C.3       9 UNK         0.0839 
     56 C          20.4006  -36.3057  -39.8802 C.2       9 UNK         0.5513 
     57 N          19.6359  -36.1413  -38.8075 N.am      9 UNK        -0.7519 
     58 O          20.9931  -37.3677  -40.0529 O.2       9 UNK        -0.4960 
     59 C59        19.9749  -35.5884  -42.2980 C.3       10 UNK        -0.0876 
     60 S60        20.0972  -34.2770  -43.5653 S.3       10 UNK        -0.2414 
     61 C61        18.3451  -33.8387  -43.8077 C.3       10 UNK         0.0169 
     62 H62        19.5519  -22.9782  -39.6834 H         1 UNK         0.0903 
     63 H63        18.0368  -23.6651  -39.0894 H         1 UNK         0.0903 
     64 H64        19.5605  -24.5128  -38.8117 H         1 UNK         0.0903 
     65 H65        19.8564  -26.2521  -40.1826 H         1 UNK         0.3096 
     66 H66        18.3523  -26.5366  -42.6913 H         1 UNK         0.1121 
     67 H67        20.2728  -28.3686  -41.1770 H         1 UNK         0.0849 
     68 H68        19.5795  -28.8065  -42.6896 H         1 UNK         0.0849 
     69 H69        15.9173  -29.7827  -41.7983 H         1 UNK         0.0865 
     70 H70        16.3950  -28.3616  -42.6842 H         1 UNK         0.0865 
     71 H71        17.2404  -31.9718  -42.1405 H         1 UNK         0.1346 
     72 H72        19.0868  -32.3966  -45.9893 H         1 UNK         0.1412 
     73 H73        17.6979  -28.5551  -44.6548 H         1 UNK         0.1426 
     74 H74        18.5561  -30.3368  -47.6351 H         1 UNK         0.0716 
     75 H75        20.0808  -30.0567  -46.8271 H         1 UNK         0.0716 
     76 H76        19.8235  -26.8053  -48.7640 H         1 UNK         0.0695 
     77 H77        20.4397  -28.4252  -48.7368 H         1 UNK         0.0695 
     78 H78        22.0376  -26.5039  -48.0624 H         1 UNK         0.0983 
     79 H79        20.1027  -26.1133  -45.9791 H         1 UNK         0.3095 
     80 H80        22.1653  -24.1775  -43.8470 H         1 UNK         0.0454 
     81 H81        19.9105  -23.1892  -45.6694 H         1 UNK         0.0851 
     82 H82        21.5325  -22.5133  -45.6063 H         1 UNK         0.0851 
     83 H83        20.4884  -22.4019  -44.2006 H         1 UNK         0.0851 
     84 H84        19.4777  -24.5191  -43.4800 H         1 UNK         0.2976 
     85 H85        21.8378  -27.7973  -44.8792 H         1 UNK         0.3116 
     86 H86        23.8989  -29.8667  -45.4946 H         1 UNK         0.0646 
     87 H87        21.7491  -30.9332  -44.7553 H         1 UNK         0.0847 
     88 H88        21.7310  -29.9073  -43.3238 H         1 UNK         0.0847 
     89 H89        22.9961  -31.1077  -43.5299 H         1 UNK         0.0847 
     90 H90        24.2800  -27.0853  -45.2007 H         1 UNK         0.3040 
     91 H91        25.6244  -25.5947  -44.3570 H         1 UNK         0.1015 
     92 H92        26.6536  -27.6462  -42.3262 H         1 UNK         0.0786 
     93 H93        27.3856  -26.0982  -42.7067 H         1 UNK         0.0786 
     94 H94        27.3244  -27.3565  -43.9302 H         1 UNK         0.0786 
     95 H95        24.0656  -27.3843  -41.6995 H         1 UNK         0.3172 
     96 H96        22.4450  -25.2661  -40.8588 H         1 UNK         0.0595 
     97 H97        24.9413  -25.5475  -39.0865 H         1 UNK         0.0839 
     98 H98        23.4658  -24.7345  -38.5839 H         1 UNK         0.0839 
     99 H99        24.4007  -24.0876  -39.9122 H         1 UNK         0.0839 
    100 H100       24.2269  -28.1912  -39.8464 H         1 UNK         0.2998 
    101 H101       22.3370  -28.9162  -37.7804 H         1 UNK         0.0822 
    102 H102       24.7490  -29.5132  -37.6288 H         1 UNK         0.0787 
    103 H103       23.7642  -30.9680  -37.6428 H         1 UNK         0.0787 
    104 H104       24.6238  -30.4845  -39.0973 H         1 UNK         0.0787 
    105 H105       20.8170  -30.5647  -37.7849 H         1 UNK         0.3055 
    106 H106       19.5939  -31.3189  -40.3128 H         1 UNK         0.1106 
    107 H107       18.9978  -32.1938  -37.4249 H         1 UNK         0.0828 
    108 H108       17.9697  -32.4969  -38.8191 H         1 UNK         0.0828 
    109 H109       18.2261  -30.8513  -38.2711 H         1 UNK         0.0828 
    110 H110       19.2285  -33.5056  -41.0012 H         1 UNK         0.2931 
    111 H111       21.6239  -35.0256  -41.0574 H         1 UNK         0.0412 
    112 H112       19.5511  -36.8928  -38.1409 H         1 UNK         0.3472 
    113 H113       19.1528  -35.2714  -38.6525 H         1 UNK         0.3472 
    114 H114       18.9395  -35.9184  -42.1975 H         1 UNK         0.0970 
    115 H115       20.5218  -36.4560  -42.6724 H         1 UNK         0.0970 
    116 H116       17.7539  -34.1424  -42.9429 H         1 UNK         0.0612 
    117 H117       17.9521  -34.3972  -44.6584 H         1 UNK         0.0612 
@<TRIPOS>BOND
     1    1    2 1    
     2    1   62 1    
     3    1   63 1    
     4    1   64 1    
     5    2    3 2    
     6    2    4 am   BACKBONE|DICT|INTERRES
     7    4    5 1    
     8    4   65 1    
     9    5    6 1    
    10    5   25 1    
    11    5   66 1    
    12    6    7 1    
    13    6   67 1    
    14    6   68 1    
    15    7    8 1    
    16    8    9 1    
    17    8   69 1    
    18    8   70 1    
    19    9   10 ar   
    20    9   14 ar   
    21   10   11 ar   
    22   10   71 1    
    23   11   12 ar   
    24   11   61 1    
    25   12   13 ar   
    26   12   72 1    
    27   13   14 ar   
    28   13   15 1    
    29   14   73 1    
    30   15   16 1    
    31   15   74 1    
    32   15   75 1    
    33   16   17 1    
    34   17   18 1    
    35   17   76 1    
    36   17   77 1    
    37   18   19 1    
    38   18   27 1    
    39   18   78 1    
    40   19   20 am   BACKBONE|DICT|INTERRES
    41   19   79 1    
    42   20   21 2    
    43   20   22 1    
    44   22   23 1    
    45   22   24 1    
    46   22   80 1    
    47   23   81 1    
    48   23   82 1    
    49   23   83 1    
    50   24   25 am   BACKBONE|DICT|INTERRES
    51   24   84 1    
    52   25   26 2    
    53   27   28 2    
    54   27   29 am   BACKBONE|DICT|INTERRES
    55   29   30 1    
    56   29   85 1    
    57   30   31 1    
    58   30   32 1    
    59   30   86 1    
    60   31   87 1    
    61   31   88 1    
    62   31   89 1    
    63   32   33 2    
    64   32   34 am   BACKBONE|DICT|INTERRES
    65   34   35 1    
    66   34   90 1    
    67   35   36 1    
    68   35   37 1    
    69   35   91 1    
    70   36   92 1    
    71   36   93 1    
    72   36   94 1    
    73   37   38 2    
    74   37   39 am   BACKBONE|DICT|INTERRES
    75   39   40 1    
    76   39   95 1    
    77   40   41 1    
    78   40   42 1    
    79   40   96 1    
    80   41   97 1    
    81   41   98 1    
    82   41   99 1    
    83   42   43 2    
    84   42   44 am   BACKBONE|DICT|INTERRES
    85   44   45 1    
    86   44  100 1    
    87   45   46 1    
    88   45   47 1    
    89   45  101 1    
    90   46  102 1    
    91   46  103 1    
    92   46  104 1    
    93   47   48 2    
    94   47   49 am   BACKBONE|DICT|INTERRES
    95   49   50 1    
    96   49  105 1    
    97   50   51 1    
    98   50   52 1    
    99   50  106 1    
   100   51  107 1    
   101   51  108 1    
   102   51  109 1    
   103   52   53 2    
   104   52   54 am   BACKBONE|DICT|INTERRES
   105   54   55 1    
   106   54  110 1    
   107   55   56 1    
   108   55   59 1    
   109   55  111 1    
   110   56   57 am   BACKBONE|DICT|INTERRES
   111   56   58 2    
   112   57  112 1    
   113   57  113 1    
   114   59   60 1    
   115   59  114 1    
   116   59  115 1    
   117   60   61 1    
   118   61  116 1    
   119   61  117 1    
@<TRIPOS>SUBSTRUCTURE
     1 UNK         1 GROUP             0       ****    0 ROOT    
