@<TRIPOS>MOLECULE
3R8
117   119    1
SMALL
USER_CHARGES


@<TRIPOS>ATOM
      1 CA         14.0037  -24.8536  -42.1952 C.3       0 UNK        -0.2013 
      2 C          15.2275  -25.5846  -42.7256 C.2       0 UNK         0.4866 
      3 O          15.1027  -26.4245  -43.6184 O.2       0 UNK        -0.5176 
      4 N          16.4147  -25.2752  -42.1875 N.am      1 UNK        -0.4884 
      5 CA         17.6976  -25.8512  -42.5981 C.3       1 UNK         0.0853 
      6 C6         18.7317  -25.7936  -41.4407 C.3       10 UNK        -0.0849 
      7 S7         20.2190  -26.8096  -41.7410 S.3       10 UNK        -0.2776 
      8 C8         19.5687  -28.4881  -41.4556 C.3       10 UNK         0.0316 
      9 C9         20.0222  -29.4324  -42.5572 C.ar      10 UNK        -0.0863 
     10 C10        20.8238  -30.5373  -42.2623 C.ar      10 UNK        -0.1009 
     11 C11        21.2325  -31.4074  -43.2783 C.ar      10 UNK        -0.0712 
     12 C12        20.8564  -31.1508  -44.6017 C.ar      10 UNK        -0.0894 
     13 C13        20.0537  -30.0471  -44.9074 C.ar      10 UNK        -0.0745 
     14 C14        19.6274  -29.2045  -43.8780 C.ar      10 UNK        -0.0972 
     15 C15        19.6395  -29.7527  -46.3437 C.3       10 UNK         0.0209 
     16 S16        21.0113  -29.1599  -47.3951 S.3       10 UNK        -0.2568 
     17 C17        21.8562  -27.8957  -46.3824 C.3       10 UNK        -0.0983 
     18 CA         21.4237  -26.4374  -46.6805 C.3       3 UNK         0.0876 
     19 N          19.9972  -26.2202  -46.4188 N.am      3 UNK        -0.4424 
     20 C          19.2946  -25.1690  -46.8612 C.2       2 UNK         0.4918 
     21 O          19.7541  -24.3007  -47.6031 O.2       2 UNK        -0.4875 
     22 CA         17.8365  -25.0528  -46.3785 C.3       2 UNK         0.0481 
     23 CB         16.8897  -25.7348  -47.3785 C.3       2 UNK        -0.1831 
     24 N          17.5888  -25.5914  -45.0345 N.am      2 UNK        -0.4498 
     25 C          18.1821  -25.1835  -43.9027 C.2       1 UNK         0.5027 
     26 O          19.0547  -24.3158  -43.8648 O.2       1 UNK        -0.4969 
     27 C          22.3188  -25.4803  -45.8629 C.2       3 UNK         0.5005 
     28 O          23.4546  -25.2332  -46.2700 O.2       3 UNK        -0.5279 
     29 N          21.8230  -25.0238  -44.6986 N.am      4 UNK        -0.4463 
     30 CA         22.5409  -24.3096  -43.6319 C.3       4 UNK         0.0283 
     31 CB         22.9831  -22.9098  -44.1063 C.3       4 UNK        -0.1875 
     32 C          23.7021  -25.1243  -43.0179 C.2       4 UNK         0.4949 
     33 O          24.6167  -24.5415  -42.4345 O.2       4 UNK        -0.5039 
     34 N          23.6553  -26.4545  -43.1742 N.am      5 UNK        -0.4663 
     35 CA         24.7139  -27.3812  -42.7797 C.3       5 UNK         0.0242 
     36 CB         24.6309  -28.6451  -43.6544 C.3       5 UNK        -0.1982 
     37 C          24.6432  -27.7517  -41.2944 C.2       5 UNK         0.5017 
     38 O          25.6765  -27.7609  -40.6260 O.2       5 UNK        -0.5012 
     39 N          23.4309  -28.0900  -40.8262 N.am      6 UNK        -0.4439 
     40 CA         23.1011  -28.5888  -39.4814 C.3       6 UNK         0.0297 
     41 CB         23.3022  -27.4808  -38.4280 C.3       6 UNK        -0.2006 
     42 C          23.8132  -29.9050  -39.0913 C.2       6 UNK         0.4892 
     43 O          23.8734  -30.2380  -37.9062 O.2       6 UNK        -0.5089 
     44 N          24.3273  -30.6449  -40.0838 N.am      7 UNK        -0.4243 
     45 CA         25.0976  -31.8807  -39.9287 C.3       7 UNK         0.0196 
     46 CB         26.0167  -32.0383  -41.1551 C.3       7 UNK        -0.2007 
     47 C          24.1769  -33.0959  -39.7172 C.2       7 UNK         0.5020 
     48 O          24.1773  -34.0181  -40.5334 O.2       7 UNK        -0.5147 
     49 N          23.3849  -33.0500  -38.6388 N.am      8 UNK        -0.4734 
     50 CA         22.2954  -33.9689  -38.2967 C.3       8 UNK         0.0238 
     51 CB         22.8087  -35.4099  -38.0614 C.3       8 UNK        -0.1912 
     52 C          21.1419  -33.8458  -39.3109 C.2       8 UNK         0.5038 
     53 O          20.5323  -32.7770  -39.3724 O.2       8 UNK        -0.5046 
     54 N          20.8501  -34.9218  -40.0558 N.am      9 UNK        -0.4200 
     55 CA         19.7086  -35.0624  -40.9818 C.3       9 UNK         0.0839 
     56 C          18.3171  -35.1255  -40.2768 C.2       9 UNK         0.5513 
     57 N          18.2433  -35.3820  -38.9760 N.am      9 UNK        -0.7519 
     58 O          17.2816  -34.9754  -40.9202 O.2       9 UNK        -0.4960 
     59 C59        19.7277  -34.0503  -42.1657 C.3       10 UNK        -0.0876 
     60 S60        21.2047  -34.1987  -43.2314 S.3       10 UNK        -0.2414 
     61 C61        22.0771  -32.6258  -42.9343 C.3       10 UNK         0.0169 
     62 H62        13.2868  -25.5676  -41.7909 H         1 UNK         0.0903 
     63 H63        14.2602  -24.1469  -41.4063 H         1 UNK         0.0903 
     64 H64        13.5185  -24.3025  -43.0002 H         1 UNK         0.0903 
     65 H65        16.4636  -24.5555  -41.4793 H         1 UNK         0.3096 
     66 H66        17.5230  -26.9042  -42.8255 H         1 UNK         0.1121 
     67 H67        18.2745  -26.1405  -40.5124 H         1 UNK         0.0849 
     68 H68        19.0445  -24.7657  -41.2471 H         1 UNK         0.0849 
     69 H69        19.8956  -28.8365  -40.4755 H         1 UNK         0.0865 
     70 H70        18.4791  -28.4883  -41.4211 H         1 UNK         0.0865 
     71 H71        21.1145  -30.7339  -41.2389 H         1 UNK         0.1346 
     72 H72        21.1815  -31.8142  -45.3915 H         1 UNK         0.1412 
     73 H73        18.9983  -28.3570  -44.1047 H         1 UNK         0.1426 
     74 H74        18.8345  -29.0172  -46.3704 H         1 UNK         0.0716 
     75 H75        19.2280  -30.6599  -46.7883 H         1 UNK         0.0716 
     76 H76        22.9216  -28.0120  -46.5924 H         1 UNK         0.0695 
     77 H77        21.7521  -28.1225  -45.3220 H         1 UNK         0.0695 
     78 H78        21.6115  -26.2327  -47.7371 H         1 UNK         0.0983 
     79 H79        19.5331  -26.9032  -45.8427 H         1 UNK         0.3095 
     80 H80        17.5892  -23.9897  -46.3491 H         1 UNK         0.0454 
     81 H81        17.0632  -26.8103  -47.4318 H         1 UNK         0.0851 
     82 H82        15.8454  -25.5757  -47.1092 H         1 UNK         0.0851 
     83 H83        17.0270  -25.3327  -48.3834 H         1 UNK         0.0851 
     84 H84        16.8144  -26.2396  -44.9425 H         1 UNK         0.2976 
     85 H85        20.8473  -25.2041  -44.4913 H         1 UNK         0.3116 
     86 H86        21.8167  -24.1699  -42.8279 H         1 UNK         0.0646 
     87 H87        23.3763  -22.3212  -43.2766 H         1 UNK         0.0847 
     88 H88        22.1467  -22.3528  -44.5283 H         1 UNK         0.0847 
     89 H89        23.7662  -22.9660  -44.8627 H         1 UNK         0.0847 
     90 H90        22.8542  -26.8427  -43.6473 H         1 UNK         0.3040 
     91 H91        25.6820  -26.9077  -42.9590 H         1 UNK         0.1015 
     92 H92        24.7739  -28.4036  -44.7078 H         1 UNK         0.0786 
     93 H93        23.6697  -29.1520  -43.5574 H         1 UNK         0.0786 
     94 H94        25.4074  -29.3613  -43.3816 H         1 UNK         0.0786 
     95 H95        22.6489  -28.0113  -41.4624 H         1 UNK         0.3172 
     96 H96        22.0384  -28.8270  -39.5018 H         1 UNK         0.0595 
     97 H97        22.7699  -26.5708  -38.7049 H         1 UNK         0.0839 
     98 H98        24.3551  -27.2288  -38.3015 H         1 UNK         0.0839 
     99 H99        22.9239  -27.7911  -37.4534 H         1 UNK         0.0839 
    100 H100       24.2031  -30.3123  -41.0275 H         1 UNK         0.2998 
    101 H101       25.7330  -31.7946  -39.0443 H         1 UNK         0.0822 
    102 H102       26.6892  -31.1864  -41.2583 H         1 UNK         0.0787 
    103 H103       26.6377  -32.9307  -41.0657 H         1 UNK         0.0787 
    104 H104       25.4457  -32.1291  -42.0802 H         1 UNK         0.0787 
    105 H105       23.4414  -32.2060  -38.0753 H         1 UNK         0.3055 
    106 H106       21.8893  -33.6152  -37.3474 H         1 UNK         0.1106 
    107 H107       22.0045  -36.0614  -37.7172 H         1 UNK         0.0828 
    108 H108       23.2362  -35.8595  -38.9578 H         1 UNK         0.0828 
    109 H109       23.5791  -35.4259  -37.2904 H         1 UNK         0.0828 
    110 H110       21.4255  -35.7440  -39.9491 H         1 UNK         0.2931 
    111 H111       19.8266  -36.0549  -41.4184 H         1 UNK         0.0412 
    112 H112       17.3381  -35.4324  -38.5348 H         1 UNK         0.3472 
    113 H113       19.0778  -35.5299  -38.4327 H         1 UNK         0.3472 
    114 H114       18.8685  -34.2147  -42.8184 H         1 UNK         0.0970 
    115 H115       19.6167  -33.0309  -41.7976 H         1 UNK         0.0970 
    116 H116       22.9943  -32.6091  -43.5244 H         1 UNK         0.0612 
    117 H117       22.3810  -32.5913  -41.8896 H         1 UNK         0.0612 
@<TRIPOS>BOND
     1    1    2 1    
     2    1   62 1    
     3    1   63 1    
     4    1   64 1    
     5    2    3 2    
     6    2    4 am   BACKBONE|DICT|INTERRES
     7    4    5 1    
     8    4   65 1    
     9    5    6 1    
    10    5   25 1    
    11    5   66 1    
    12    6    7 1    
    13    6   67 1    
    14    6   68 1    
    15    7    8 1    
    16    8    9 1    
    17    8   69 1    
    18    8   70 1    
    19    9   10 ar   
    20    9   14 ar   
    21   10   11 ar   
    22   10   71 1    
    23   11   12 ar   
    24   11   61 1    
    25   12   13 ar   
    26   12   72 1    
    27   13   14 ar   
    28   13   15 1    
    29   14   73 1    
    30   15   16 1    
    31   15   74 1    
    32   15   75 1    
    33   16   17 1    
    34   17   18 1    
    35   17   76 1    
    36   17   77 1    
    37   18   19 1    
    38   18   27 1    
    39   18   78 1    
    40   19   20 am   BACKBONE|DICT|INTERRES
    41   19   79 1    
    42   20   21 2    
    43   20   22 1    
    44   22   23 1    
    45   22   24 1    
    46   22   80 1    
    47   23   81 1    
    48   23   82 1    
    49   23   83 1    
    50   24   25 am   BACKBONE|DICT|INTERRES
    51   24   84 1    
    52   25   26 2    
    53   27   28 2    
    54   27   29 am   BACKBONE|DICT|INTERRES
    55   29   30 1    
    56   29   85 1    
    57   30   31 1    
    58   30   32 1    
    59   30   86 1    
    60   31   87 1    
    61   31   88 1    
    62   31   89 1    
    63   32   33 2    
    64   32   34 am   BACKBONE|DICT|INTERRES
    65   34   35 1    
    66   34   90 1    
    67   35   36 1    
    68   35   37 1    
    69   35   91 1    
    70   36   92 1    
    71   36   93 1    
    72   36   94 1    
    73   37   38 2    
    74   37   39 am   BACKBONE|DICT|INTERRES
    75   39   40 1    
    76   39   95 1    
    77   40   41 1    
    78   40   42 1    
    79   40   96 1    
    80   41   97 1    
    81   41   98 1    
    82   41   99 1    
    83   42   43 2    
    84   42   44 am   BACKBONE|DICT|INTERRES
    85   44   45 1    
    86   44  100 1    
    87   45   46 1    
    88   45   47 1    
    89   45  101 1    
    90   46  102 1    
    91   46  103 1    
    92   46  104 1    
    93   47   48 2    
    94   47   49 am   BACKBONE|DICT|INTERRES
    95   49   50 1    
    96   49  105 1    
    97   50   51 1    
    98   50   52 1    
    99   50  106 1    
   100   51  107 1    
   101   51  108 1    
   102   51  109 1    
   103   52   53 2    
   104   52   54 am   BACKBONE|DICT|INTERRES
   105   54   55 1    
   106   54  110 1    
   107   55   56 1    
   108   55   59 1    
   109   55  111 1    
   110   56   57 am   BACKBONE|DICT|INTERRES
   111   56   58 2    
   112   57  112 1    
   113   57  113 1    
   114   59   60 1    
   115   59  114 1    
   116   59  115 1    
   117   60   61 1    
   118   61  116 1    
   119   61  117 1    
@<TRIPOS>SUBSTRUCTURE
     1 UNK         1 GROUP             0       ****    0 ROOT    
