@<TRIPOS>MOLECULE
3R8
117   119    1
SMALL
USER_CHARGES


@<TRIPOS>ATOM
      1 CA         14.6152  -24.7230  -44.1799 C.3       0 UNK        -0.2013 
      2 C          15.7780  -24.2581  -45.0436 C.2       0 UNK         0.4866 
      3 O          15.7634  -23.1306  -45.5375 O.2       0 UNK        -0.5176 
      4 N          16.7855  -25.1209  -45.2242 N.am      1 UNK        -0.4884 
      5 CA         17.9836  -24.8549  -46.0274 C.3       1 UNK         0.0853 
      6 C6         18.7207  -26.1564  -46.4327 C.3       10 UNK        -0.0849 
      7 S7         17.7124  -27.1487  -47.5832 S.3       10 UNK        -0.2776 
      8 C8         18.6252  -28.7303  -47.5973 C.3       10 UNK         0.0316 
      9 C9         18.4186  -29.6315  -46.3776 C.ar      10 UNK        -0.0863 
     10 C10        19.3106  -30.6902  -46.1785 C.ar      10 UNK        -0.1009 
     11 C11        19.1504  -31.5741  -45.1078 C.ar      10 UNK        -0.0712 
     12 C12        18.0905  -31.3871  -44.2156 C.ar      10 UNK        -0.0894 
     13 C13        17.1857  -30.3380  -44.4002 C.ar      10 UNK        -0.0745 
     14 C14        17.3492  -29.4718  -45.4855 C.ar      10 UNK        -0.0972 
     15 C15        16.0044  -30.1649  -43.4541 C.3       10 UNK         0.0209 
     16 S16        16.0391  -28.5695  -42.5763 S.3       10 UNK        -0.2568 
     17 C17        17.5063  -28.7573  -41.5059 C.3       10 UNK        -0.0983 
     18 CA         18.7235  -27.9521  -42.0224 C.3       3 UNK         0.0876 
     19 N          18.3960  -26.5361  -42.2370 N.am      3 UNK        -0.4424 
     20 C          19.1827  -25.6650  -42.8769 C.2       2 UNK         0.4918 
     21 O          20.2872  -25.9505  -43.3386 O.2       2 UNK        -0.4875 
     22 CA         18.6678  -24.2228  -42.9580 C.3       2 UNK         0.0481 
     23 CB         19.1568  -23.4415  -41.7270 C.3       2 UNK        -0.1831 
     24 N          19.1304  -23.5232  -44.1601 N.am      2 UNK        -0.4498 
     25 C          18.9578  -23.7795  -45.4713 C.2       1 UNK         0.5027 
     26 O          19.5784  -23.1136  -46.2995 O.2       1 UNK        -0.4969 
     27 C          19.9363  -28.1404  -41.0842 C.2       3 UNK         0.5005 
     28 O          20.6403  -29.1393  -41.1972 O.2       3 UNK        -0.5279 
     29 N          20.1843  -27.1667  -40.1966 N.am      4 UNK        -0.4463 
     30 CA         21.3185  -27.1373  -39.2690 C.3       4 UNK         0.0283 
     31 CB         20.9896  -26.1620  -38.1252 C.3       4 UNK        -0.1875 
     32 C          22.6669  -26.7691  -39.9238 C.2       4 UNK         0.4949 
     33 O          23.6814  -26.7725  -39.2264 O.2       4 UNK        -0.5039 
     34 N          22.6754  -26.4351  -41.2241 N.am      5 UNK        -0.4663 
     35 CA         23.8618  -25.9885  -41.9651 C.3       5 UNK         0.0242 
     36 CB         23.4202  -25.3746  -43.3037 C.3       5 UNK        -0.1982 
     37 C          24.9301  -27.0741  -42.2013 C.2       5 UNK         0.5017 
     38 O          26.0582  -26.7216  -42.5496 O.2       5 UNK        -0.5012 
     39 N          24.5783  -28.3529  -42.0202 N.am      6 UNK        -0.4439 
     40 CA         25.4857  -29.4927  -42.1229 C.3       6 UNK         0.0297 
     41 CB         25.2332  -30.2353  -43.4455 C.3       6 UNK        -0.2006 
     42 C          25.2483  -30.4178  -40.9278 C.2       6 UNK         0.4892 
     43 O          24.0950  -30.6416  -40.5545 O.2       6 UNK        -0.5089 
     44 N          26.3357  -30.9744  -40.3782 N.am      7 UNK        -0.4243 
     45 CA         26.3174  -31.8869  -39.2283 C.3       7 UNK         0.0196 
     46 CB         27.7568  -32.1189  -38.7407 C.3       7 UNK        -0.2007 
     47 C          25.6223  -33.2306  -39.5114 C.2       7 UNK         0.5020 
     48 O          25.0787  -33.8347  -38.5871 O.2       7 UNK        -0.5147 
     49 N          25.6380  -33.6670  -40.7788 N.am      8 UNK        -0.4734 
     50 CA         24.9198  -34.8531  -41.2532 C.3       8 UNK         0.0238 
     51 CB         25.4788  -35.2690  -42.6238 C.3       8 UNK        -0.1912 
     52 C          23.3980  -34.6360  -41.3385 C.2       8 UNK         0.5038 
     53 O          22.6465  -35.6013  -41.1951 O.2       8 UNK        -0.5046 
     54 N          22.9793  -33.3872  -41.5764 N.am      9 UNK        -0.4200 
     55 CA         21.5733  -32.9699  -41.6292 C.3       9 UNK         0.0839 
     56 C          21.0177  -32.6082  -40.2266 C.2       9 UNK         0.5513 
     57 N          21.7937  -31.9586  -39.3678 N.am      9 UNK        -0.7519 
     58 O          19.8771  -32.9366  -39.9110 O.2       9 UNK        -0.4960 
     59 C59        21.3644  -31.8020  -42.6220 C.3       10 UNK        -0.0876 
     60 S60        21.7414  -32.2596  -44.3450 S.3       10 UNK        -0.2414 
     61 C61        20.0975  -32.7564  -44.9466 C.3       10 UNK         0.0169 
     62 H62        13.6881  -24.6932  -44.7518 H         1 UNK         0.0903 
     63 H63        14.7562  -25.7414  -43.8174 H         1 UNK         0.0903 
     64 H64        14.5041  -24.0681  -43.3162 H         1 UNK         0.0903 
     65 H65        16.7266  -26.0448  -44.8213 H         1 UNK         0.3096 
     66 H66        17.6162  -24.4136  -46.9576 H         1 UNK         0.1121 
     67 H67        18.9694  -26.7592  -45.5588 H         1 UNK         0.0849 
     68 H68        19.6660  -25.9331  -46.9319 H         1 UNK         0.0849 
     69 H69        18.3180  -29.2882  -48.4829 H         1 UNK         0.0865 
     70 H70        19.6881  -28.5180  -47.7238 H         1 UNK         0.0865 
     71 H71        20.1290  -30.8409  -46.8699 H         1 UNK         0.1346 
     72 H72        17.9589  -32.0715  -43.3886 H         1 UNK         0.1412 
     73 H73        16.6276  -28.6804  -45.6280 H         1 UNK         0.1426 
     74 H74        15.9618  -30.9745  -42.7238 H         1 UNK         0.0716 
     75 H75        15.0806  -30.2260  -44.0310 H         1 UNK         0.0716 
     76 H76        17.2290  -28.4303  -40.5019 H         1 UNK         0.0695 
     77 H77        17.7574  -29.8166  -41.4203 H         1 UNK         0.0695 
     78 H78        19.0133  -28.3689  -42.9904 H         1 UNK         0.0983 
     79 H79        17.5013  -26.2329  -41.8796 H         1 UNK         0.3095 
     80 H80        17.5800  -24.2178  -42.9285 H         1 UNK         0.0454 
     81 H81        18.7984  -23.8952  -40.8021 H         1 UNK         0.0851 
     82 H82        20.2463  -23.4101  -41.6727 H         1 UNK         0.0851 
     83 H83        18.7926  -22.4140  -41.7379 H         1 UNK         0.0851 
     84 H84        19.7820  -22.7801  -43.9593 H         1 UNK         0.2976 
     85 H85        19.5562  -26.3773  -40.1691 H         1 UNK         0.3116 
     86 H86        21.4358  -28.1352  -38.8404 H         1 UNK         0.0646 
     87 H87        21.7843  -26.1510  -37.3779 H         1 UNK         0.0847 
     88 H88        20.0721  -26.4469  -37.6102 H         1 UNK         0.0847 
     89 H89        20.8706  -25.1400  -38.4871 H         1 UNK         0.0847 
     90 H90        21.8057  -26.4606  -41.7425 H         1 UNK         0.3040 
     91 H91        24.3404  -25.2024  -41.3767 H         1 UNK         0.1015 
     92 H92        22.7203  -24.5522  -43.1538 H         1 UNK         0.0786 
     93 H93        22.9381  -26.1138  -43.9447 H         1 UNK         0.0786 
     94 H94        24.2736  -24.9748  -43.8532 H         1 UNK         0.0786 
     95 H95        23.6526  -28.5627  -41.6674 H         1 UNK         0.3172 
     96 H96        26.5247  -29.1572  -42.0976 H         1 UNK         0.0595 
     97 H97        25.4225  -29.5886  -44.3023 H         1 UNK         0.0839 
     98 H98        24.2054  -30.5913  -43.5196 H         1 UNK         0.0839 
     99 H99        25.8883  -31.1017  -43.5431 H         1 UNK         0.0839 
    100 H100       27.2440  -30.7429  -40.7555 H         1 UNK         0.2998 
    101 H101       25.7592  -31.3979  -38.4267 H         1 UNK         0.0822 
    102 H102       28.2332  -31.1830  -38.4482 H         1 UNK         0.0787 
    103 H103       27.7723  -32.7739  -37.8682 H         1 UNK         0.0787 
    104 H104       28.3741  -32.5860  -39.5093 H         1 UNK         0.0787 
    105 H105       26.1339  -33.1208  -41.4680 H         1 UNK         0.3055 
    106 H106       25.0949  -35.6691  -40.5480 H         1 UNK         0.1106 
    107 H107       25.3361  -34.4896  -43.3735 H         1 UNK         0.0828 
    108 H108       26.5443  -35.4923  -42.5676 H         1 UNK         0.0828 
    109 H109       24.9805  -36.1676  -42.9907 H         1 UNK         0.0828 
    110 H110       23.6604  -32.6431  -41.6110 H         1 UNK         0.2931 
    111 H111       20.9770  -33.8089  -41.9944 H         1 UNK         0.0412 
    112 H112       21.4378  -31.7276  -38.4549 H         1 UNK         0.3472 
    113 H113       22.6919  -31.5945  -39.6716 H         1 UNK         0.3472 
    114 H114       22.0078  -30.9635  -42.3531 H         1 UNK         0.0970 
    115 H115       20.3439  -31.4221  -42.5650 H         1 UNK         0.0970 
    116 H116       19.6775  -33.5029  -44.2707 H         1 UNK         0.0612 
    117 H117       20.2155  -33.2527  -45.9108 H         1 UNK         0.0612 
@<TRIPOS>BOND
     1    1    2 1    
     2    1   62 1    
     3    1   63 1    
     4    1   64 1    
     5    2    3 2    
     6    2    4 am   BACKBONE|DICT|INTERRES
     7    4    5 1    
     8    4   65 1    
     9    5    6 1    
    10    5   25 1    
    11    5   66 1    
    12    6    7 1    
    13    6   67 1    
    14    6   68 1    
    15    7    8 1    
    16    8    9 1    
    17    8   69 1    
    18    8   70 1    
    19    9   10 ar   
    20    9   14 ar   
    21   10   11 ar   
    22   10   71 1    
    23   11   12 ar   
    24   11   61 1    
    25   12   13 ar   
    26   12   72 1    
    27   13   14 ar   
    28   13   15 1    
    29   14   73 1    
    30   15   16 1    
    31   15   74 1    
    32   15   75 1    
    33   16   17 1    
    34   17   18 1    
    35   17   76 1    
    36   17   77 1    
    37   18   19 1    
    38   18   27 1    
    39   18   78 1    
    40   19   20 am   BACKBONE|DICT|INTERRES
    41   19   79 1    
    42   20   21 2    
    43   20   22 1    
    44   22   23 1    
    45   22   24 1    
    46   22   80 1    
    47   23   81 1    
    48   23   82 1    
    49   23   83 1    
    50   24   25 am   BACKBONE|DICT|INTERRES
    51   24   84 1    
    52   25   26 2    
    53   27   28 2    
    54   27   29 am   BACKBONE|DICT|INTERRES
    55   29   30 1    
    56   29   85 1    
    57   30   31 1    
    58   30   32 1    
    59   30   86 1    
    60   31   87 1    
    61   31   88 1    
    62   31   89 1    
    63   32   33 2    
    64   32   34 am   BACKBONE|DICT|INTERRES
    65   34   35 1    
    66   34   90 1    
    67   35   36 1    
    68   35   37 1    
    69   35   91 1    
    70   36   92 1    
    71   36   93 1    
    72   36   94 1    
    73   37   38 2    
    74   37   39 am   BACKBONE|DICT|INTERRES
    75   39   40 1    
    76   39   95 1    
    77   40   41 1    
    78   40   42 1    
    79   40   96 1    
    80   41   97 1    
    81   41   98 1    
    82   41   99 1    
    83   42   43 2    
    84   42   44 am   BACKBONE|DICT|INTERRES
    85   44   45 1    
    86   44  100 1    
    87   45   46 1    
    88   45   47 1    
    89   45  101 1    
    90   46  102 1    
    91   46  103 1    
    92   46  104 1    
    93   47   48 2    
    94   47   49 am   BACKBONE|DICT|INTERRES
    95   49   50 1    
    96   49  105 1    
    97   50   51 1    
    98   50   52 1    
    99   50  106 1    
   100   51  107 1    
   101   51  108 1    
   102   51  109 1    
   103   52   53 2    
   104   52   54 am   BACKBONE|DICT|INTERRES
   105   54   55 1    
   106   54  110 1    
   107   55   56 1    
   108   55   59 1    
   109   55  111 1    
   110   56   57 am   BACKBONE|DICT|INTERRES
   111   56   58 2    
   112   57  112 1    
   113   57  113 1    
   114   59   60 1    
   115   59  114 1    
   116   59  115 1    
   117   60   61 1    
   118   61  116 1    
   119   61  117 1    
@<TRIPOS>SUBSTRUCTURE
     1 UNK         1 GROUP             0       ****    0 ROOT    
