@<TRIPOS>MOLECULE
3R8
117   119    1
SMALL
USER_CHARGES


@<TRIPOS>ATOM
      1 CA         20.6196  -33.1969  -47.7547 C.3       0 UNK        -0.2013 
      2 C          20.4030  -31.7714  -47.2693 C.2       0 UNK         0.4866 
      3 O          20.7651  -30.8276  -47.9717 O.2       0 UNK        -0.5176 
      4 N          19.8208  -31.6185  -46.0722 N.am      1 UNK        -0.4884 
      5 CA         19.4827  -30.3450  -45.4223 C.3       1 UNK         0.0853 
      6 C6         18.4557  -29.4902  -46.2207 C.3       10 UNK        -0.0849 
      7 S7         16.8829  -30.4029  -46.4161 S.3       10 UNK        -0.2776 
      8 C8         15.6706  -29.3531  -45.5434 C.3       10 UNK         0.0316 
      9 C9         16.1004  -28.9291  -44.1416 C.ar      10 UNK        -0.0863 
     10 C10        16.5947  -29.8573  -43.2178 C.ar      10 UNK        -0.1009 
     11 C11        17.0067  -29.4443  -41.9467 C.ar      10 UNK        -0.0712 
     12 C12        16.8738  -28.1002  -41.5841 C.ar      10 UNK        -0.0894 
     13 C13        16.3510  -27.1683  -42.4862 C.ar      10 UNK        -0.0745 
     14 C14        15.9796  -27.5883  -43.7657 C.ar      10 UNK        -0.0972 
     15 C15        16.1390  -25.7161  -42.0752 C.3       10 UNK         0.0209 
     16 S16        17.6485  -24.9103  -41.4550 S.3       10 UNK        -0.2568 
     17 C17        18.7392  -24.9149  -42.9212 C.3       10 UNK        -0.0983 
     18 CA         20.1289  -25.5341  -42.6111 C.3       3 UNK         0.0876 
     19 N          20.7149  -26.1451  -43.8093 N.am      3 UNK        -0.4424 
     20 C          21.8300  -26.8878  -43.8702 C.2       2 UNK         0.4918 
     21 O          22.5607  -27.1373  -42.9089 O.2       2 UNK        -0.4875 
     22 CA         22.1198  -27.5052  -45.2503 C.3       2 UNK         0.0481 
     23 CB         23.5228  -28.1380  -45.3549 C.3       2 UNK        -0.1831 
     24 N          21.0692  -28.4638  -45.6161 N.am      2 UNK        -0.4498 
     25 C          20.7554  -29.6002  -44.9723 C.2       1 UNK         0.5027 
     26 O          21.4134  -30.0726  -44.0397 O.2       1 UNK        -0.4969 
     27 C          21.0647  -24.5217  -41.9064 C.2       3 UNK         0.5005 
     28 O          22.1088  -24.1426  -42.4433 O.2       3 UNK        -0.5279 
     29 N          20.6775  -24.1316  -40.6837 N.am      4 UNK        -0.4463 
     30 CA         21.4071  -23.3380  -39.6839 C.3       4 UNK         0.0283 
     31 CB         21.8620  -21.9674  -40.2235 C.3       4 UNK        -0.1875 
     32 C          22.5676  -24.1258  -39.0566 C.2       4 UNK         0.4949 
     33 O          22.6362  -24.2281  -37.8319 O.2       4 UNK        -0.5039 
     34 N          23.4217  -24.7134  -39.9024 N.am      5 UNK        -0.4663 
     35 CA         24.4274  -25.6997  -39.5092 C.3       5 UNK         0.0242 
     36 CB         25.4997  -25.7921  -40.6068 C.3       5 UNK        -0.1982 
     37 C          23.8056  -27.0834  -39.2500 C.2       5 UNK         0.5017 
     38 O          24.2873  -27.7992  -38.3721 O.2       5 UNK        -0.5012 
     39 N          22.7710  -27.4315  -40.0358 N.am      6 UNK        -0.4439 
     40 CA         22.1235  -28.7487  -40.1390 C.3       6 UNK         0.0297 
     41 CB         21.3863  -29.1125  -38.8330 C.3       6 UNK        -0.2006 
     42 C          23.1240  -29.8284  -40.5980 C.2       6 UNK         0.4892 
     43 O          23.1289  -30.9421  -40.0708 O.2       6 UNK        -0.5089 
     44 N          24.0012  -29.4432  -41.5361 N.am      7 UNK        -0.4243 
     45 CA         25.2364  -30.1592  -41.8565 C.3       7 UNK         0.0196 
     46 CB         26.1664  -29.2475  -42.6735 C.3       7 UNK        -0.2007 
     47 C          25.0310  -31.5054  -42.5634 C.2       7 UNK         0.5020 
     48 O          25.8816  -32.3833  -42.4114 O.2       7 UNK        -0.5147 
     49 N          23.9351  -31.6502  -43.3189 N.am      8 UNK        -0.4734 
     50 CA         23.6156  -32.8779  -44.0485 C.3       8 UNK         0.0238 
     51 CB         23.4428  -32.5551  -45.5385 C.3       8 UNK        -0.1912 
     52 C          22.3918  -33.6027  -43.4700 C.2       8 UNK         0.5038 
     53 O          22.3645  -34.8329  -43.5282 O.2       8 UNK        -0.5046 
     54 N          21.4172  -32.8674  -42.9122 N.am      9 UNK        -0.4200 
     55 CA         20.2727  -33.4603  -42.1961 C.3       9 UNK         0.0839 
     56 C          20.6066  -34.0072  -40.7777 C.2       9 UNK         0.5513 
     57 N          21.6701  -33.5609  -40.1205 N.am      9 UNK        -0.7519 
     58 O          19.8920  -34.8695  -40.2729 O.2       9 UNK        -0.4960 
     59 C59        19.0196  -32.5475  -42.1910 C.3       10 UNK        -0.0876 
     60 S60        19.2843  -30.9227  -41.3998 S.3       10 UNK        -0.2414 
     61 C61        17.5830  -30.4461  -40.9569 C.3       10 UNK         0.0169 
     62 H62        19.9165  -33.4298  -48.5539 H         1 UNK         0.0903 
     63 H63        21.6294  -33.3126  -48.1475 H         1 UNK         0.0903 
     64 H64        20.4826  -33.9252  -46.9554 H         1 UNK         0.0903 
     65 H65        19.5666  -32.4434  -45.5485 H         1 UNK         0.3096 
     66 H66        18.9951  -30.6032  -44.4849 H         1 UNK         0.1121 
     67 H67        18.8289  -29.2362  -47.2134 H         1 UNK         0.0849 
     68 H68        18.2652  -28.5414  -45.7166 H         1 UNK         0.0849 
     69 H69        15.4733  -28.4785  -46.1655 H         1 UNK         0.0865 
     70 H70        14.7261  -29.8939  -45.4713 H         1 UNK         0.0865 
     71 H71        16.6772  -30.8988  -43.4954 H         1 UNK         0.1346 
     72 H72        17.1694  -27.7767  -40.5954 H         1 UNK         0.1412 
     73 H73        15.5771  -26.8695  -44.4668 H         1 UNK         0.1426 
     74 H74        15.3807  -25.6840  -41.2919 H         1 UNK         0.0716 
     75 H75        15.7455  -25.1266  -42.9049 H         1 UNK         0.0716 
     76 H76        18.2425  -25.4827  -43.7094 H         1 UNK         0.0695 
     77 H77        18.8298  -23.8976  -43.3073 H         1 UNK         0.0695 
     78 H78        19.9868  -26.3647  -41.9153 H         1 UNK         0.0983 
     79 H79        20.2078  -25.9908  -44.6671 H         1 UNK         0.3095 
     80 H80        22.0741  -26.6935  -45.9778 H         1 UNK         0.0454 
     81 H81        23.7116  -28.5160  -46.3593 H         1 UNK         0.0851 
     82 H82        24.2968  -27.4030  -45.1316 H         1 UNK         0.0851 
     83 H83        23.6518  -28.9659  -44.6600 H         1 UNK         0.0851 
     84 H84        20.4932  -28.1980  -46.4020 H         1 UNK         0.2976 
     85 H85        19.7813  -24.4811  -40.3655 H         1 UNK         0.3116 
     86 H86        20.6884  -23.1458  -38.8854 H         1 UNK         0.0646 
     87 H87        22.2765  -21.3566  -39.4206 H         1 UNK         0.0847 
     88 H88        21.0274  -21.4141  -40.6536 H         1 UNK         0.0847 
     89 H89        22.6346  -22.0565  -40.9873 H         1 UNK         0.0847 
     90 H90        23.2752  -24.5577  -40.8963 H         1 UNK         0.3040 
     91 H91        24.9066  -25.3687  -38.5848 H         1 UNK         0.1015 
     92 H92        25.9948  -24.8327  -40.7579 H         1 UNK         0.0786 
     93 H93        25.0762  -26.1045  -41.5626 H         1 UNK         0.0786 
     94 H94        26.2711  -26.5149  -40.3373 H         1 UNK         0.0786 
     95 H95        22.5372  -26.7942  -40.7866 H         1 UNK         0.3172 
     96 H96        21.3764  -28.6680  -40.9299 H         1 UNK         0.0595 
     97 H97        20.6697  -28.3403  -38.5543 H         1 UNK         0.0839 
     98 H98        22.0764  -29.2495  -38.0003 H         1 UNK         0.0839 
     99 H99        20.8313  -30.0443  -38.9455 H         1 UNK         0.0839 
    100 H100       23.8580  -28.5387  -41.9707 H         1 UNK         0.2998 
    101 H101       25.7356  -30.3748  -40.9090 H         1 UNK         0.0822 
    102 H102       27.1182  -29.7425  -42.8718 H         1 UNK         0.0787 
    103 H103       25.7358  -28.9811  -43.6374 H         1 UNK         0.0787 
    104 H104       26.3908  -28.3252  -42.1385 H         1 UNK         0.0787 
    105 H105       23.2698  -30.8871  -43.3851 H         1 UNK         0.3055 
    106 H106       24.4404  -33.5907  -43.9763 H         1 UNK         0.1106 
    107 H107       24.3891  -32.2459  -45.9824 H         1 UNK         0.0828 
    108 H108       23.0960  -33.4273  -46.0933 H         1 UNK         0.0828 
    109 H109       22.7313  -31.7479  -45.6951 H         1 UNK         0.0828 
    110 H110       21.4742  -31.8563  -42.9232 H         1 UNK         0.2931 
    111 H111       19.9745  -34.3411  -42.7690 H         1 UNK         0.0412 
    112 H112       21.8710  -33.9349  -39.2072 H         1 UNK         0.3472 
    113 H113       22.2174  -32.7832  -40.4691 H         1 UNK         0.3472 
    114 H114       18.1978  -33.0617  -41.6894 H         1 UNK         0.0970 
    115 H115       18.6746  -32.3948  -43.2116 H         1 UNK         0.0970 
    116 H116       16.9348  -31.3208  -40.8960 H         1 UNK         0.0612 
    117 H117       17.6017  -30.0175  -39.9537 H         1 UNK         0.0612 
@<TRIPOS>BOND
     1    1    2 1    
     2    1   62 1    
     3    1   63 1    
     4    1   64 1    
     5    2    3 2    
     6    2    4 am   BACKBONE|DICT|INTERRES
     7    4    5 1    
     8    4   65 1    
     9    5    6 1    
    10    5   25 1    
    11    5   66 1    
    12    6    7 1    
    13    6   67 1    
    14    6   68 1    
    15    7    8 1    
    16    8    9 1    
    17    8   69 1    
    18    8   70 1    
    19    9   10 ar   
    20    9   14 ar   
    21   10   11 ar   
    22   10   71 1    
    23   11   12 ar   
    24   11   61 1    
    25   12   13 ar   
    26   12   72 1    
    27   13   14 ar   
    28   13   15 1    
    29   14   73 1    
    30   15   16 1    
    31   15   74 1    
    32   15   75 1    
    33   16   17 1    
    34   17   18 1    
    35   17   76 1    
    36   17   77 1    
    37   18   19 1    
    38   18   27 1    
    39   18   78 1    
    40   19   20 am   BACKBONE|DICT|INTERRES
    41   19   79 1    
    42   20   21 2    
    43   20   22 1    
    44   22   23 1    
    45   22   24 1    
    46   22   80 1    
    47   23   81 1    
    48   23   82 1    
    49   23   83 1    
    50   24   25 am   BACKBONE|DICT|INTERRES
    51   24   84 1    
    52   25   26 2    
    53   27   28 2    
    54   27   29 am   BACKBONE|DICT|INTERRES
    55   29   30 1    
    56   29   85 1    
    57   30   31 1    
    58   30   32 1    
    59   30   86 1    
    60   31   87 1    
    61   31   88 1    
    62   31   89 1    
    63   32   33 2    
    64   32   34 am   BACKBONE|DICT|INTERRES
    65   34   35 1    
    66   34   90 1    
    67   35   36 1    
    68   35   37 1    
    69   35   91 1    
    70   36   92 1    
    71   36   93 1    
    72   36   94 1    
    73   37   38 2    
    74   37   39 am   BACKBONE|DICT|INTERRES
    75   39   40 1    
    76   39   95 1    
    77   40   41 1    
    78   40   42 1    
    79   40   96 1    
    80   41   97 1    
    81   41   98 1    
    82   41   99 1    
    83   42   43 2    
    84   42   44 am   BACKBONE|DICT|INTERRES
    85   44   45 1    
    86   44  100 1    
    87   45   46 1    
    88   45   47 1    
    89   45  101 1    
    90   46  102 1    
    91   46  103 1    
    92   46  104 1    
    93   47   48 2    
    94   47   49 am   BACKBONE|DICT|INTERRES
    95   49   50 1    
    96   49  105 1    
    97   50   51 1    
    98   50   52 1    
    99   50  106 1    
   100   51  107 1    
   101   51  108 1    
   102   51  109 1    
   103   52   53 2    
   104   52   54 am   BACKBONE|DICT|INTERRES
   105   54   55 1    
   106   54  110 1    
   107   55   56 1    
   108   55   59 1    
   109   55  111 1    
   110   56   57 am   BACKBONE|DICT|INTERRES
   111   56   58 2    
   112   57  112 1    
   113   57  113 1    
   114   59   60 1    
   115   59  114 1    
   116   59  115 1    
   117   60   61 1    
   118   61  116 1    
   119   61  117 1    
@<TRIPOS>SUBSTRUCTURE
     1 UNK         1 GROUP             0       ****    0 ROOT    
