@<TRIPOS>MOLECULE
3R8
117   119    1
SMALL
USER_CHARGES


@<TRIPOS>ATOM
      1 CA         19.4521  -24.5345  -40.3447 C.3       0 UNK        -0.2013 
      2 C          18.1817  -24.6030  -41.1805 C.2       0 UNK         0.4866 
      3 O          17.0995  -24.2910  -40.6819 O.2       0 UNK        -0.5176 
      4 N          18.3072  -25.0100  -42.4450 N.am      1 UNK        -0.4884 
      5 CA         17.2095  -25.1859  -43.3985 C.3       1 UNK         0.0853 
      6 C6         16.4635  -26.5447  -43.2148 C.3       10 UNK        -0.0849 
      7 S7         17.5811  -27.9913  -43.1725 S.3       10 UNK        -0.2776 
      8 C8         16.8270  -29.1710  -44.3322 C.3       10 UNK         0.0316 
      9 C9         17.7563  -30.3596  -44.5330 C.ar      10 UNK        -0.0863 
     10 C10        17.4758  -31.5971  -43.9467 C.ar      10 UNK        -0.1009 
     11 C11        18.3412  -32.6823  -44.1222 C.ar      10 UNK        -0.0712 
     12 C12        19.5105  -32.5037  -44.8735 C.ar      10 UNK        -0.0894 
     13 C13        19.8191  -31.2676  -45.4520 C.ar      10 UNK        -0.0745 
     14 C14        18.9150  -30.2097  -45.2987 C.ar      10 UNK        -0.0972 
     15 C15        21.1416  -31.1360  -46.2152 C.3       10 UNK         0.0209 
     16 S16        21.5899  -29.4668  -46.8172 S.3       10 UNK        -0.2568 
     17 C17        21.8824  -28.5442  -45.2670 C.3       10 UNK        -0.0983 
     18 CA         21.5828  -27.0290  -45.4188 C.3       3 UNK         0.0876 
     19 N          20.1960  -26.7753  -45.7992 N.am      3 UNK        -0.4424 
     20 C          19.7782  -26.1933  -46.9294 C.2       2 UNK         0.4918 
     21 O          20.5200  -25.8794  -47.8606 O.2       2 UNK        -0.4875 
     22 CA         18.2677  -25.8992  -47.0392 C.3       2 UNK         0.0481 
     23 CB         17.5843  -26.9478  -47.9317 C.3       2 UNK        -0.1831 
     24 N          17.5984  -25.8664  -45.7346 N.am      2 UNK        -0.4498 
     25 C          17.7790  -24.9186  -44.8043 C.2       1 UNK         0.5027 
     26 O          18.4052  -23.8770  -45.0130 O.2       1 UNK        -0.4969 
     27 C          21.8440  -26.2769  -44.0999 C.2       3 UNK         0.5005 
     28 O          20.8957  -25.9044  -43.3990 O.2       3 UNK        -0.5279 
     29 N          23.1287  -26.0653  -43.7896 N.am      4 UNK        -0.4463 
     30 CA         23.6067  -25.4398  -42.5535 C.3       4 UNK         0.0283 
     31 CB         25.0848  -25.0556  -42.7480 C.3       4 UNK        -0.1875 
     32 C          23.4432  -26.3579  -41.3274 C.2       4 UNK         0.4949 
     33 O          23.1009  -27.5329  -41.4703 O.2       4 UNK        -0.5039 
     34 N          23.7347  -25.8164  -40.1364 N.am      5 UNK        -0.4663 
     35 CA         23.7731  -26.5563  -38.8690 C.3       5 UNK         0.0242 
     36 CB         24.1711  -25.5989  -37.7347 C.3       5 UNK        -0.1982 
     37 C          24.7353  -27.7591  -38.9253 C.2       5 UNK         0.5017 
     38 O          25.8031  -27.6564  -39.5341 O.2       5 UNK        -0.5012 
     39 N          24.3140  -28.8831  -38.3306 N.am      6 UNK        -0.4439 
     40 CA         24.9248  -30.2219  -38.3663 C.3       6 UNK         0.0297 
     41 CB         26.3739  -30.2227  -37.8404 C.3       6 UNK        -0.2006 
     42 C          24.8209  -30.9240  -39.7350 C.2       6 UNK         0.4892 
     43 O          24.5158  -32.1168  -39.7643 O.2       6 UNK        -0.5089 
     44 N          25.0284  -30.1890  -40.8378 N.am      7 UNK        -0.4243 
     45 CA         24.8347  -30.6652  -42.2130 C.3       7 UNK         0.0196 
     46 CB         25.3568  -29.6162  -43.2080 C.3       7 UNK        -0.2007 
     47 C          23.3688  -31.0260  -42.5120 C.2       7 UNK         0.5020 
     48 O          23.1159  -31.9981  -43.2235 O.2       7 UNK        -0.5147 
     49 N          22.4351  -30.2744  -41.9150 N.am      8 UNK        -0.4734 
     50 CA         20.9864  -30.4930  -41.8924 C.3       8 UNK         0.0238 
     51 CB         20.3213  -29.2100  -41.3620 C.3       8 UNK        -0.1912 
     52 C          20.5505  -31.7431  -41.0967 C.2       8 UNK         0.5038 
     53 O          19.6940  -31.6405  -40.2157 O.2       8 UNK        -0.5046 
     54 N          21.1432  -32.8993  -41.4184 N.am      9 UNK        -0.4200 
     55 CA         20.8666  -34.2169  -40.8264 C.3       9 UNK         0.0839 
     56 C          21.1451  -34.2980  -39.2934 C.2       9 UNK         0.5513 
     57 N          22.1579  -33.6116  -38.7779 N.am      9 UNK        -0.7519 
     58 O          20.4571  -35.0033  -38.5590 O.2       9 UNK        -0.4960 
     59 C59        19.4659  -34.7597  -41.2330 C.3       10 UNK        -0.0876 
     60 S60        19.3466  -35.0982  -43.0238 S.3       10 UNK        -0.2414 
     61 C61        17.9492  -34.0483  -43.5572 C.3       10 UNK         0.0169 
     62 H62        19.6399  -23.5090  -40.0282 H         1 UNK         0.0903 
     63 H63        19.3493  -25.1543  -39.4546 H         1 UNK         0.0903 
     64 H64        20.3230  -24.8845  -40.8991 H         1 UNK         0.0903 
     65 H65        19.2313  -25.2464  -42.8073 H         1 UNK         0.3096 
     66 H66        16.4832  -24.3866  -43.2343 H         1 UNK         0.1121 
     67 H67        15.9304  -26.5268  -42.2629 H         1 UNK         0.0849 
     68 H68        15.6866  -26.6773  -43.9697 H         1 UNK         0.0849 
     69 H69        15.8598  -29.4934  -43.9430 H         1 UNK         0.0865 
     70 H70        16.6332  -28.6929  -45.2925 H         1 UNK         0.0865 
     71 H71        16.5721  -31.7202  -43.3653 H         1 UNK         0.1346 
     72 H72        20.1893  -33.3331  -45.0161 H         1 UNK         0.1412 
     73 H73        19.1150  -29.2507  -45.7493 H         1 UNK         0.1426 
     74 H74        21.9543  -31.4977  -45.5844 H         1 UNK         0.0716 
     75 H75        21.1044  -31.8023  -47.0779 H         1 UNK         0.0716 
     76 H76        22.9215  -28.7062  -44.9766 H         1 UNK         0.0695 
     77 H77        21.2770  -28.9708  -44.4673 H         1 UNK         0.0695 
     78 H78        22.2555  -26.6121  -46.1717 H         1 UNK         0.0983 
     79 H79        19.5305  -26.9084  -45.0512 H         1 UNK         0.3095 
     80 H80        18.1519  -24.9204  -47.5093 H         1 UNK         0.0454 
     81 H81        16.5224  -26.7349  -48.0560 H         1 UNK         0.0851 
     82 H82        17.6823  -27.9549  -47.5252 H         1 UNK         0.0851 
     83 H83        18.0287  -26.9577  -48.9280 H         1 UNK         0.0851 
     84 H84        17.0684  -26.6851  -45.4764 H         1 UNK         0.2976 
     85 H85        23.8407  -26.4258  -44.4074 H         1 UNK         0.3116 
     86 H86        23.0244  -24.5328  -42.3778 H         1 UNK         0.0646 
     87 H87        25.2172  -24.4087  -43.6155 H         1 UNK         0.0847 
     88 H88        25.4734  -24.5124  -41.8859 H         1 UNK         0.0847 
     89 H89        25.7148  -25.9357  -42.8855 H         1 UNK         0.0847 
     90 H90        24.0348  -24.8532  -40.1031 H         1 UNK         0.3040 
     91 H91        22.7621  -26.9235  -38.6795 H         1 UNK         0.1015 
     92 H92        25.1665  -25.1808  -37.8917 H         1 UNK         0.0786 
     93 H93        24.1829  -26.1146  -36.7734 H         1 UNK         0.0786 
     94 H94        23.4676  -24.7706  -37.6473 H         1 UNK         0.0786 
     95 H95        23.4151  -28.8510  -37.8685 H         1 UNK         0.3172 
     96 H96        24.3342  -30.8205  -37.6707 H         1 UNK         0.0595 
     97 H97        27.0559  -29.6951  -38.5074 H         1 UNK         0.0839 
     98 H98        26.7476  -31.2428  -37.7437 H         1 UNK         0.0839 
     99 H99        26.4400  -29.7590  -36.8562 H         1 UNK         0.0839 
    100 H100       25.2784  -29.2135  -40.7119 H         1 UNK         0.2998 
    101 H101       25.4266  -31.5749  -42.3346 H         1 UNK         0.0822 
    102 H102       26.4161  -29.4133  -43.0503 H         1 UNK         0.0787 
    103 H103       25.2423  -29.9643  -44.2355 H         1 UNK         0.0787 
    104 H104       24.8192  -28.6722  -43.1224 H         1 UNK         0.0787 
    105 H105       22.7559  -29.4332  -41.4424 H         1 UNK         0.3055 
    106 H106       20.6479  -30.6495  -42.9156 H         1 UNK         0.1106 
    107 H107       20.5018  -28.3647  -42.0261 H         1 UNK         0.0828 
    108 H108       19.2412  -29.3302  -41.2811 H         1 UNK         0.0828 
    109 H109       20.6920  -28.9432  -40.3720 H         1 UNK         0.0828 
    110 H110       21.8597  -32.8691  -42.1385 H         1 UNK         0.2931 
    111 H111       21.6059  -34.8893  -41.2632 H         1 UNK         0.0412 
    112 H112       22.7843  -33.0679  -39.3612 H         1 UNK         0.3472 
    113 H113       22.3339  -33.6764  -37.7882 H         1 UNK         0.3472 
    114 H114       18.6801  -34.0733  -40.9152 H         1 UNK         0.0970 
    115 H115       19.2578  -35.7044  -40.7279 H         1 UNK         0.0970 
    116 H116       17.2432  -33.9376  -42.7330 H         1 UNK         0.0612 
    117 H117       17.4126  -34.5845  -44.3408 H         1 UNK         0.0612 
@<TRIPOS>BOND
     1    1    2 1    
     2    1   62 1    
     3    1   63 1    
     4    1   64 1    
     5    2    3 2    
     6    2    4 am   BACKBONE|DICT|INTERRES
     7    4    5 1    
     8    4   65 1    
     9    5    6 1    
    10    5   25 1    
    11    5   66 1    
    12    6    7 1    
    13    6   67 1    
    14    6   68 1    
    15    7    8 1    
    16    8    9 1    
    17    8   69 1    
    18    8   70 1    
    19    9   10 ar   
    20    9   14 ar   
    21   10   11 ar   
    22   10   71 1    
    23   11   12 ar   
    24   11   61 1    
    25   12   13 ar   
    26   12   72 1    
    27   13   14 ar   
    28   13   15 1    
    29   14   73 1    
    30   15   16 1    
    31   15   74 1    
    32   15   75 1    
    33   16   17 1    
    34   17   18 1    
    35   17   76 1    
    36   17   77 1    
    37   18   19 1    
    38   18   27 1    
    39   18   78 1    
    40   19   20 am   BACKBONE|DICT|INTERRES
    41   19   79 1    
    42   20   21 2    
    43   20   22 1    
    44   22   23 1    
    45   22   24 1    
    46   22   80 1    
    47   23   81 1    
    48   23   82 1    
    49   23   83 1    
    50   24   25 am   BACKBONE|DICT|INTERRES
    51   24   84 1    
    52   25   26 2    
    53   27   28 2    
    54   27   29 am   BACKBONE|DICT|INTERRES
    55   29   30 1    
    56   29   85 1    
    57   30   31 1    
    58   30   32 1    
    59   30   86 1    
    60   31   87 1    
    61   31   88 1    
    62   31   89 1    
    63   32   33 2    
    64   32   34 am   BACKBONE|DICT|INTERRES
    65   34   35 1    
    66   34   90 1    
    67   35   36 1    
    68   35   37 1    
    69   35   91 1    
    70   36   92 1    
    71   36   93 1    
    72   36   94 1    
    73   37   38 2    
    74   37   39 am   BACKBONE|DICT|INTERRES
    75   39   40 1    
    76   39   95 1    
    77   40   41 1    
    78   40   42 1    
    79   40   96 1    
    80   41   97 1    
    81   41   98 1    
    82   41   99 1    
    83   42   43 2    
    84   42   44 am   BACKBONE|DICT|INTERRES
    85   44   45 1    
    86   44  100 1    
    87   45   46 1    
    88   45   47 1    
    89   45  101 1    
    90   46  102 1    
    91   46  103 1    
    92   46  104 1    
    93   47   48 2    
    94   47   49 am   BACKBONE|DICT|INTERRES
    95   49   50 1    
    96   49  105 1    
    97   50   51 1    
    98   50   52 1    
    99   50  106 1    
   100   51  107 1    
   101   51  108 1    
   102   51  109 1    
   103   52   53 2    
   104   52   54 am   BACKBONE|DICT|INTERRES
   105   54   55 1    
   106   54  110 1    
   107   55   56 1    
   108   55   59 1    
   109   55  111 1    
   110   56   57 am   BACKBONE|DICT|INTERRES
   111   56   58 2    
   112   57  112 1    
   113   57  113 1    
   114   59   60 1    
   115   59  114 1    
   116   59  115 1    
   117   60   61 1    
   118   61  116 1    
   119   61  117 1    
@<TRIPOS>SUBSTRUCTURE
     1 UNK         1 GROUP             0       ****    0 ROOT    
