@<TRIPOS>MOLECULE
3R8
117   119    1
SMALL
USER_CHARGES


@<TRIPOS>ATOM
      1 CA         17.3550  -21.8261  -43.9302 C.3       0 UNK        -0.2013 
      2 C          17.8166  -23.0751  -44.6667 C.2       0 UNK         0.4866 
      3 O          18.5257  -22.9676  -45.6680 O.2       0 UNK        -0.5176 
      4 N          17.4154  -24.2565  -44.1798 N.am      1 UNK        -0.4884 
      5 CA         17.8460  -25.5646  -44.6898 C.3       1 UNK         0.0853 
      6 C6         16.7701  -26.6488  -44.4180 C.3       10 UNK        -0.0849 
      7 S7         16.6584  -27.8421  -45.7899 S.3       10 UNK        -0.2776 
      8 C8         15.8594  -29.2518  -44.9668 C.3       10 UNK         0.0316 
      9 C9         16.8709  -30.1289  -44.2454 C.ar      10 UNK        -0.0863 
     10 C10        17.6812  -30.9965  -44.9843 C.ar      10 UNK        -0.1009 
     11 C11        18.5777  -31.8519  -44.3400 C.ar      10 UNK        -0.0712 
     12 C12        18.6598  -31.8330  -42.9449 C.ar      10 UNK        -0.0894 
     13 C13        17.8499  -30.9767  -42.1927 C.ar      10 UNK        -0.0745 
     14 C14        16.9647  -30.1152  -42.8491 C.ar      10 UNK        -0.0972 
     15 C15        17.8786  -31.0546  -40.6727 C.3       10 UNK         0.0209 
     16 S16        19.4848  -30.5590  -39.9764 S.3       10 UNK        -0.2568 
     17 C17        19.2580  -28.7735  -39.6893 C.3       10 UNK        -0.0983 
     18 CA         20.4109  -27.9532  -40.3133 C.3       3 UNK         0.0876 
     19 N          20.3524  -27.9773  -41.7784 N.am      3 UNK        -0.4424 
     20 C          21.3472  -27.6062  -42.5928 C.2       2 UNK         0.4918 
     21 O          22.4218  -27.1619  -42.1964 O.2       2 UNK        -0.4875 
     22 CA         21.0574  -27.6618  -44.1035 C.3       2 UNK         0.0481 
     23 CB         21.2269  -29.0982  -44.6236 C.3       2 UNK        -0.1831 
     24 N          19.7338  -27.1427  -44.4852 N.am      2 UNK        -0.4498 
     25 C          19.2325  -25.9503  -44.1245 C.2       1 UNK         0.5027 
     26 O          19.8158  -25.1828  -43.3562 O.2       1 UNK        -0.4969 
     27 C          20.4955  -26.5373  -39.6934 C.2       3 UNK         0.5005 
     28 O          20.7832  -26.4397  -38.4991 O.2       3 UNK        -0.5279 
     29 N          20.2803  -25.4666  -40.4766 N.am      4 UNK        -0.4463 
     30 CA         20.5380  -24.0851  -40.0495 C.3       4 UNK         0.0283 
     31 CB         19.7121  -23.1096  -40.9059 C.3       4 UNK        -0.1875 
     32 C          22.0358  -23.7202  -40.1045 C.2       4 UNK         0.4949 
     33 O          22.4240  -22.7085  -39.5194 O.2       4 UNK        -0.5039 
     34 N          22.8440  -24.5343  -40.7956 N.am      5 UNK        -0.4663 
     35 CA         24.2966  -24.4263  -40.8896 C.3       5 UNK         0.0242 
     36 CB         24.6731  -23.9827  -42.3189 C.3       5 UNK        -0.1982 
     37 C          24.8979  -25.7772  -40.4627 C.2       5 UNK         0.5017 
     38 O          24.5170  -26.2975  -39.4116 O.2       5 UNK        -0.5012 
     39 N          25.8182  -26.3290  -41.2643 N.am      6 UNK        -0.4439 
     40 CA         26.3697  -27.6715  -41.0878 C.3       6 UNK         0.0297 
     41 CB         27.6920  -27.7881  -41.8658 C.3       6 UNK        -0.2006 
     42 C          25.3452  -28.7164  -41.5594 C.2       6 UNK         0.4892 
     43 O          25.0966  -28.8149  -42.7634 O.2       6 UNK        -0.5089 
     44 N          24.7638  -29.4514  -40.6015 N.am      7 UNK        -0.4243 
     45 CA         23.7556  -30.4910  -40.8267 C.3       7 UNK         0.0196 
     46 CB         23.2450  -30.9977  -39.4680 C.3       7 UNK        -0.2007 
     47 C          24.2815  -31.6602  -41.6781 C.2       7 UNK         0.5020 
     48 O          25.4765  -31.9653  -41.6461 O.2       7 UNK        -0.5147 
     49 N          23.3683  -32.3047  -42.4073 N.am      8 UNK        -0.4734 
     50 CA         23.6409  -33.3956  -43.3397 C.3       8 UNK         0.0238 
     51 CB         24.0674  -32.8021  -44.6999 C.3       8 UNK        -0.1912 
     52 C          22.3914  -34.2818  -43.4579 C.2       8 UNK         0.5038 
     53 O          21.4324  -34.0776  -42.7113 O.2       8 UNK        -0.5046 
     54 N          22.4348  -35.2345  -44.3983 N.am      9 UNK        -0.4200 
     55 CA         21.3561  -36.1441  -44.8296 C.3       9 UNK         0.0839 
     56 C          20.7790  -37.1265  -43.7634 C.2       9 UNK         0.5513 
     57 N          21.3526  -37.2279  -42.5711 N.am      9 UNK        -0.7519 
     58 O          19.8287  -37.8538  -44.0421 O.2       9 UNK        -0.4960 
     59 C59        20.2852  -35.4477  -45.7271 C.3       10 UNK        -0.0876 
     60 S60        18.9609  -34.5355  -44.8583 S.3       10 UNK        -0.2414 
     61 C61        19.4495  -32.8050  -45.1432 C.3       10 UNK         0.0169 
     62 H62        18.2165  -21.2707  -43.5604 H         1 UNK         0.0903 
     63 H63        16.7943  -21.1782  -44.6034 H         1 UNK         0.0903 
     64 H64        16.7167  -22.0654  -43.0799 H         1 UNK         0.0903 
     65 H65        16.8604  -24.2773  -43.3363 H         1 UNK         0.3096 
     66 H66        17.9743  -25.4616  -45.7702 H         1 UNK         0.1121 
     67 H67        15.7819  -26.1935  -44.3301 H         1 UNK         0.0849 
     68 H68        16.9405  -27.1644  -43.4707 H         1 UNK         0.0849 
     69 H69        15.0866  -28.8960  -44.2834 H         1 UNK         0.0865 
     70 H70        15.3421  -29.8490  -45.7193 H         1 UNK         0.0865 
     71 H71        17.6027  -31.0121  -46.0630 H         1 UNK         0.1346 
     72 H72        19.3369  -32.5098  -42.4413 H         1 UNK         0.1412 
     73 H73        16.3220  -29.4634  -42.2729 H         1 UNK         0.1426 
     74 H74        17.6842  -32.0871  -40.3789 H         1 UNK         0.0716 
     75 H75        17.0777  -30.4626  -40.2273 H         1 UNK         0.0716 
     76 H76        19.2150  -28.6354  -38.6070 H         1 UNK         0.0695 
     77 H77        18.2945  -28.4385  -40.0774 H         1 UNK         0.0695 
     78 H78        21.3505  -28.4326  -40.0289 H         1 UNK         0.0983 
     79 H79        19.4986  -28.3280  -42.1867 H         1 UNK         0.3095 
     80 H80        21.7998  -27.0338  -44.5999 H         1 UNK         0.0454 
     81 H81        20.4964  -29.7745  -44.1805 H         1 UNK         0.0851 
     82 H82        22.2178  -29.4860  -44.3805 H         1 UNK         0.0851 
     83 H83        21.1177  -29.1477  -45.7069 H         1 UNK         0.0851 
     84 H84        19.1758  -27.7270  -45.0941 H         1 UNK         0.2976 
     85 H85        20.0702  -25.5959  -41.4629 H         1 UNK         0.3116 
     86 H86        20.2100  -23.9732  -39.0139 H         1 UNK         0.0646 
     87 H87        20.0766  -23.0601  -41.9321 H         1 UNK         0.0847 
     88 H88        19.7674  -22.0989  -40.4998 H         1 UNK         0.0847 
     89 H89        18.6595  -23.3908  -40.9339 H         1 UNK         0.0847 
     90 H90        22.4539  -25.3778  -41.2050 H         1 UNK         0.3040 
     91 H91        24.6715  -23.6824  -40.1833 H         1 UNK         0.1015 
     92 H92        24.3586  -24.7122  -43.0671 H         1 UNK         0.0786 
     93 H93        25.7483  -23.8309  -42.4211 H         1 UNK         0.0786 
     94 H94        24.1970  -23.0340  -42.5682 H         1 UNK         0.0786 
     95 H95        26.0387  -25.8613  -42.1314 H         1 UNK         0.3172 
     96 H96        26.5893  -27.8316  -40.0298 H         1 UNK         0.0595 
     97 H97        28.1204  -28.7851  -41.7539 H         1 UNK         0.0839 
     98 H98        28.4315  -27.0750  -41.5012 H         1 UNK         0.0839 
     99 H99        27.5540  -27.6124  -42.9335 H         1 UNK         0.0839 
    100 H100       25.0358  -29.2898  -39.6428 H         1 UNK         0.2998 
    101 H101       22.9244  -30.0263  -41.3614 H         1 UNK         0.0822 
    102 H102       22.8146  -30.1893  -38.8765 H         1 UNK         0.0787 
    103 H103       22.4649  -31.7492  -39.5985 H         1 UNK         0.0787 
    104 H104       24.0436  -31.4557  -38.8831 H         1 UNK         0.0787 
    105 H105       22.3851  -32.0912  -42.2929 H         1 UNK         0.3055 
    106 H106       24.4465  -34.0177  -42.9427 H         1 UNK         0.1106 
    107 H107       24.3702  -33.5780  -45.4033 H         1 UNK         0.0828 
    108 H108       23.2575  -32.2360  -45.1621 H         1 UNK         0.0828 
    109 H109       24.9187  -32.1298  -44.5900 H         1 UNK         0.0828 
    110 H110       23.2950  -35.3383  -44.9165 H         1 UNK         0.2931 
    111 H111       21.8851  -36.8198  -45.5030 H         1 UNK         0.0412 
    112 H112       22.1180  -36.6220  -42.3228 H         1 UNK         0.3472 
    113 H113       20.9828  -37.8800  -41.8973 H         1 UNK         0.3472 
    114 H114       19.7914  -36.2054  -46.3380 H         1 UNK         0.0970 
    115 H115       20.7733  -34.7853  -46.4434 H         1 UNK         0.0970 
    116 H116       20.4917  -32.6558  -44.8633 H         1 UNK         0.0612 
    117 H117       19.3822  -32.5877  -46.2102 H         1 UNK         0.0612 
@<TRIPOS>BOND
     1    1    2 1    
     2    1   62 1    
     3    1   63 1    
     4    1   64 1    
     5    2    3 2    
     6    2    4 am   BACKBONE|DICT|INTERRES
     7    4    5 1    
     8    4   65 1    
     9    5    6 1    
    10    5   25 1    
    11    5   66 1    
    12    6    7 1    
    13    6   67 1    
    14    6   68 1    
    15    7    8 1    
    16    8    9 1    
    17    8   69 1    
    18    8   70 1    
    19    9   10 ar   
    20    9   14 ar   
    21   10   11 ar   
    22   10   71 1    
    23   11   12 ar   
    24   11   61 1    
    25   12   13 ar   
    26   12   72 1    
    27   13   14 ar   
    28   13   15 1    
    29   14   73 1    
    30   15   16 1    
    31   15   74 1    
    32   15   75 1    
    33   16   17 1    
    34   17   18 1    
    35   17   76 1    
    36   17   77 1    
    37   18   19 1    
    38   18   27 1    
    39   18   78 1    
    40   19   20 am   BACKBONE|DICT|INTERRES
    41   19   79 1    
    42   20   21 2    
    43   20   22 1    
    44   22   23 1    
    45   22   24 1    
    46   22   80 1    
    47   23   81 1    
    48   23   82 1    
    49   23   83 1    
    50   24   25 am   BACKBONE|DICT|INTERRES
    51   24   84 1    
    52   25   26 2    
    53   27   28 2    
    54   27   29 am   BACKBONE|DICT|INTERRES
    55   29   30 1    
    56   29   85 1    
    57   30   31 1    
    58   30   32 1    
    59   30   86 1    
    60   31   87 1    
    61   31   88 1    
    62   31   89 1    
    63   32   33 2    
    64   32   34 am   BACKBONE|DICT|INTERRES
    65   34   35 1    
    66   34   90 1    
    67   35   36 1    
    68   35   37 1    
    69   35   91 1    
    70   36   92 1    
    71   36   93 1    
    72   36   94 1    
    73   37   38 2    
    74   37   39 am   BACKBONE|DICT|INTERRES
    75   39   40 1    
    76   39   95 1    
    77   40   41 1    
    78   40   42 1    
    79   40   96 1    
    80   41   97 1    
    81   41   98 1    
    82   41   99 1    
    83   42   43 2    
    84   42   44 am   BACKBONE|DICT|INTERRES
    85   44   45 1    
    86   44  100 1    
    87   45   46 1    
    88   45   47 1    
    89   45  101 1    
    90   46  102 1    
    91   46  103 1    
    92   46  104 1    
    93   47   48 2    
    94   47   49 am   BACKBONE|DICT|INTERRES
    95   49   50 1    
    96   49  105 1    
    97   50   51 1    
    98   50   52 1    
    99   50  106 1    
   100   51  107 1    
   101   51  108 1    
   102   51  109 1    
   103   52   53 2    
   104   52   54 am   BACKBONE|DICT|INTERRES
   105   54   55 1    
   106   54  110 1    
   107   55   56 1    
   108   55   59 1    
   109   55  111 1    
   110   56   57 am   BACKBONE|DICT|INTERRES
   111   56   58 2    
   112   57  112 1    
   113   57  113 1    
   114   59   60 1    
   115   59  114 1    
   116   59  115 1    
   117   60   61 1    
   118   61  116 1    
   119   61  117 1    
@<TRIPOS>SUBSTRUCTURE
     1 UNK         1 GROUP             0       ****    0 ROOT    
