@<TRIPOS>MOLECULE
3R8
117   119    1
SMALL
USER_CHARGES


@<TRIPOS>ATOM
      1 CA         17.0921  -26.7156  -40.7363 C.3       0 UNK        -0.2013 
      2 C          17.4860  -26.6039  -42.2006 C.2       0 UNK         0.4866 
      3 O          18.5910  -27.0051  -42.5710 O.2       0 UNK        -0.5176 
      4 N          16.6004  -26.0277  -43.0284 N.am      1 UNK        -0.4884 
      5 CA         16.6834  -25.9200  -44.4990 C.3       1 UNK         0.0853 
      6 C6         16.6643  -27.3069  -45.1992 C.3       10 UNK        -0.0849 
      7 S7         15.2675  -28.3841  -44.7196 S.3       10 UNK        -0.2776 
      8 C8         15.3980  -29.7234  -45.9552 C.3       10 UNK         0.0316 
      9 C9         16.7579  -30.4080  -45.9113 C.ar      10 UNK        -0.0863 
     10 C10        16.9928  -31.4801  -45.0433 C.ar      10 UNK        -0.1009 
     11 C11        18.2625  -32.0640  -44.9699 C.ar      10 UNK        -0.0712 
     12 C12        19.3016  -31.5574  -45.7564 C.ar      10 UNK        -0.0894 
     13 C13        19.0777  -30.4837  -46.6214 C.ar      10 UNK        -0.0745 
     14 C14        17.7964  -29.9390  -46.7212 C.ar      10 UNK        -0.0972 
     15 C15        20.2266  -29.8747  -47.4113 C.3       10 UNK         0.0209 
     16 S16        20.6255  -28.1942  -46.8249 S.3       10 UNK        -0.2568 
     17 C17        21.0616  -28.5138  -45.0825 C.3       10 UNK        -0.0983 
     18 CA         21.6948  -27.2769  -44.4025 C.3       3 UNK         0.0876 
     19 N          20.7547  -26.1559  -44.3097 N.am      3 UNK        -0.4424 
     20 C          21.0634  -24.8633  -44.4833 C.2       2 UNK         0.4918 
     21 O          22.1949  -24.4717  -44.7715 O.2       2 UNK        -0.4875 
     22 CA         19.9412  -23.8209  -44.2621 C.3       2 UNK         0.0481 
     23 CB         19.9527  -22.7112  -45.3342 C.3       2 UNK        -0.1831 
     24 N          18.6045  -24.4123  -44.1006 N.am      2 UNK        -0.4498 
     25 C          17.8796  -25.0778  -45.0146 C.2       1 UNK         0.5027 
     26 O          18.1471  -25.0860  -46.2165 O.2       1 UNK        -0.4969 
     27 C          22.2324  -27.6502  -43.0085 C.2       3 UNK         0.5005 
     28 O          23.3473  -28.1676  -42.9215 O.2       3 UNK        -0.5279 
     29 N          21.4657  -27.3499  -41.9451 N.am      4 UNK        -0.4463 
     30 CA         21.7728  -27.6383  -40.5371 C.3       4 UNK         0.0283 
     31 CB         20.6483  -27.0909  -39.6461 C.3       4 UNK        -0.1875 
     32 C          23.1424  -27.1440  -40.0357 C.2       4 UNK         0.4949 
     33 O          23.6937  -27.7387  -39.1099 O.2       4 UNK        -0.5039 
     34 N          23.6741  -26.0854  -40.6616 N.am      5 UNK        -0.4663 
     35 CA         25.0182  -25.5590  -40.4173 C.3       5 UNK         0.0242 
     36 CB         25.1423  -24.1784  -41.0821 C.3       5 UNK        -0.1982 
     37 C          26.1440  -26.4932  -40.9031 C.2       5 UNK         0.5017 
     38 O          27.2430  -26.4322  -40.3505 O.2       5 UNK        -0.5012 
     39 N          25.8649  -27.3261  -41.9165 N.am      6 UNK        -0.4439 
     40 CA         26.7908  -28.3250  -42.4504 C.3       6 UNK         0.0297 
     41 CB         26.5911  -28.4672  -43.9691 C.3       6 UNK        -0.2006 
     42 C          26.6028  -29.6735  -41.7418 C.2       6 UNK         0.4892 
     43 O          27.5918  -30.2659  -41.3078 O.2       6 UNK        -0.5089 
     44 N          25.3482  -30.1252  -41.6177 N.am      7 UNK        -0.4243 
     45 CA         24.9662  -31.3481  -40.9149 C.3       7 UNK         0.0196 
     46 CB         25.2000  -32.5821  -41.8066 C.3       7 UNK        -0.2007 
     47 C          23.4947  -31.2322  -40.5150 C.2       7 UNK         0.5020 
     48 O          22.6740  -30.8768  -41.3597 O.2       7 UNK        -0.5147 
     49 N          23.1866  -31.5398  -39.2476 N.am      8 UNK        -0.4734 
     50 CA         21.8550  -31.3850  -38.6457 C.3       8 UNK         0.0238 
     51 CB         21.9492  -31.6388  -37.1322 C.3       8 UNK        -0.1912 
     52 C          20.7583  -32.2657  -39.2715 C.2       8 UNK         0.5038 
     53 O          19.6004  -31.8485  -39.2774 O.2       8 UNK        -0.5046 
     54 N          21.1531  -33.4508  -39.7620 N.am      9 UNK        -0.4200 
     55 CA         20.3519  -34.4536  -40.4910 C.3       9 UNK         0.0839 
     56 C          19.0171  -34.9248  -39.8340 C.2       9 UNK         0.5513 
     57 N          18.8440  -34.7827  -38.5258 N.am      9 UNK        -0.7519 
     58 O          18.1463  -35.4748  -40.5041 O.2       9 UNK        -0.4960 
     59 C59        20.2619  -34.1688  -42.0195 C.3       10 UNK        -0.0876 
     60 S60        19.3368  -32.6701  -42.5047 S.3       10 UNK        -0.2414 
     61 C61        18.5318  -33.2324  -44.0353 C.3       10 UNK         0.0169 
     62 H62        17.2228  -27.7413  -40.3925 H         1 UNK         0.0903 
     63 H63        17.7186  -26.0655  -40.1268 H         1 UNK         0.0903 
     64 H64        16.0515  -26.4367  -40.5722 H         1 UNK         0.0903 
     65 H65        15.7286  -25.6956  -42.6383 H         1 UNK         0.3096 
     66 H66        15.7901  -25.3785  -44.8145 H         1 UNK         0.1121 
     67 H67        17.5931  -27.8383  -44.9832 H         1 UNK         0.0849 
     68 H68        16.6245  -27.1822  -46.2829 H         1 UNK         0.0849 
     69 H69        14.6084  -30.4538  -45.7723 H         1 UNK         0.0865 
     70 H70        15.2097  -29.3174  -46.9504 H         1 UNK         0.0865 
     71 H71        16.1938  -31.8482  -44.4142 H         1 UNK         0.1346 
     72 H72        20.2911  -31.9863  -45.6736 H         1 UNK         0.1412 
     73 H73        17.6269  -29.1045  -47.3879 H         1 UNK         0.1426 
     74 H74        19.9557  -29.8289  -48.4670 H         1 UNK         0.0716 
     75 H75        21.1197  -30.4984  -47.3478 H         1 UNK         0.0716 
     76 H76        21.7515  -29.3602  -45.0590 H         1 UNK         0.0695 
     77 H77        20.1646  -28.8298  -44.5454 H         1 UNK         0.0695 
     78 H78        22.5591  -26.9757  -44.9989 H         1 UNK         0.0983 
     79 H79        19.8134  -26.3951  -44.0166 H         1 UNK         0.3095 
     80 H80        20.1649  -23.3472  -43.3053 H         1 UNK         0.0454 
     81 H81        20.8913  -22.1563  -45.3094 H         1 UNK         0.0851 
     82 H82        19.1494  -21.9927  -45.1726 H         1 UNK         0.0851 
     83 H83        19.8472  -23.1145  -46.3414 H         1 UNK         0.0851 
     84 H84        18.2766  -24.4761  -43.1464 H         1 UNK         0.2976 
     85 H85        20.5306  -27.0003  -42.1302 H         1 UNK         0.3116 
     86 H86        21.7709  -28.7207  -40.4343 H         1 UNK         0.0646 
     87 H87        20.5046  -26.0191  -39.7867 H         1 UNK         0.0847 
     88 H88        19.7055  -27.5930  -39.8587 H         1 UNK         0.0847 
     89 H89        20.8655  -27.2572  -38.5899 H         1 UNK         0.0847 
     90 H90        23.1435  -25.6591  -41.4073 H         1 UNK         0.3040 
     91 H91        25.1426  -25.4344  -39.3391 H         1 UNK         0.1015 
     92 H92        26.1267  -23.7447  -40.9001 H         1 UNK         0.0786 
     93 H93        24.4047  -23.4794  -40.6872 H         1 UNK         0.0786 
     94 H94        25.0065  -24.2365  -42.1630 H         1 UNK         0.0786 
     95 H95        24.9114  -27.3690  -42.2694 H         1 UNK         0.3172 
     96 H96        27.8192  -27.9965  -42.2844 H         1 UNK         0.0595 
     97 H97        25.5883  -28.8126  -44.2221 H         1 UNK         0.0839 
     98 H98        27.2965  -29.1868  -44.3868 H         1 UNK         0.0839 
     99 H99        26.7560  -27.5185  -44.4799 H         1 UNK         0.0839 
    100 H100       24.5750  -29.5822  -41.9955 H         1 UNK         0.2998 
    101 H101       25.5722  -31.4392  -40.0107 H         1 UNK         0.0822 
    102 H102       24.8923  -33.4962  -41.2973 H         1 UNK         0.0787 
    103 H103       24.6322  -32.5178  -42.7358 H         1 UNK         0.0787 
    104 H104       26.2530  -32.6947  -42.0651 H         1 UNK         0.0787 
    105 H105       23.9279  -31.8332  -38.6268 H         1 UNK         0.3055 
    106 H106       21.5476  -30.3479  -38.7916 H         1 UNK         0.1106 
    107 H107       22.6371  -30.9406  -36.6547 H         1 UNK         0.0828 
    108 H108       20.9775  -31.5087  -36.6532 H         1 UNK         0.0828 
    109 H109       22.2885  -32.6515  -36.9108 H         1 UNK         0.0828 
    110 H110       22.1313  -33.6772  -39.6631 H         1 UNK         0.2931 
    111 H111       20.9684  -35.3503  -40.4159 H         1 UNK         0.0412 
    112 H112       17.9870  -35.1031  -38.1027 H         1 UNK         0.3472 
    113 H113       19.5471  -34.3296  -37.9646 H         1 UNK         0.3472 
    114 H114       19.8351  -35.0360  -42.5264 H         1 UNK         0.0970 
    115 H115       21.2699  -34.0697  -42.4249 H         1 UNK         0.0970 
    116 H116       17.6072  -33.7552  -43.7857 H         1 UNK         0.0612 
    117 H117       19.1696  -33.9548  -44.5472 H         1 UNK         0.0612 
@<TRIPOS>BOND
     1    1    2 1    
     2    1   62 1    
     3    1   63 1    
     4    1   64 1    
     5    2    3 2    
     6    2    4 am   BACKBONE|DICT|INTERRES
     7    4    5 1    
     8    4   65 1    
     9    5    6 1    
    10    5   25 1    
    11    5   66 1    
    12    6    7 1    
    13    6   67 1    
    14    6   68 1    
    15    7    8 1    
    16    8    9 1    
    17    8   69 1    
    18    8   70 1    
    19    9   10 ar   
    20    9   14 ar   
    21   10   11 ar   
    22   10   71 1    
    23   11   12 ar   
    24   11   61 1    
    25   12   13 ar   
    26   12   72 1    
    27   13   14 ar   
    28   13   15 1    
    29   14   73 1    
    30   15   16 1    
    31   15   74 1    
    32   15   75 1    
    33   16   17 1    
    34   17   18 1    
    35   17   76 1    
    36   17   77 1    
    37   18   19 1    
    38   18   27 1    
    39   18   78 1    
    40   19   20 am   BACKBONE|DICT|INTERRES
    41   19   79 1    
    42   20   21 2    
    43   20   22 1    
    44   22   23 1    
    45   22   24 1    
    46   22   80 1    
    47   23   81 1    
    48   23   82 1    
    49   23   83 1    
    50   24   25 am   BACKBONE|DICT|INTERRES
    51   24   84 1    
    52   25   26 2    
    53   27   28 2    
    54   27   29 am   BACKBONE|DICT|INTERRES
    55   29   30 1    
    56   29   85 1    
    57   30   31 1    
    58   30   32 1    
    59   30   86 1    
    60   31   87 1    
    61   31   88 1    
    62   31   89 1    
    63   32   33 2    
    64   32   34 am   BACKBONE|DICT|INTERRES
    65   34   35 1    
    66   34   90 1    
    67   35   36 1    
    68   35   37 1    
    69   35   91 1    
    70   36   92 1    
    71   36   93 1    
    72   36   94 1    
    73   37   38 2    
    74   37   39 am   BACKBONE|DICT|INTERRES
    75   39   40 1    
    76   39   95 1    
    77   40   41 1    
    78   40   42 1    
    79   40   96 1    
    80   41   97 1    
    81   41   98 1    
    82   41   99 1    
    83   42   43 2    
    84   42   44 am   BACKBONE|DICT|INTERRES
    85   44   45 1    
    86   44  100 1    
    87   45   46 1    
    88   45   47 1    
    89   45  101 1    
    90   46  102 1    
    91   46  103 1    
    92   46  104 1    
    93   47   48 2    
    94   47   49 am   BACKBONE|DICT|INTERRES
    95   49   50 1    
    96   49  105 1    
    97   50   51 1    
    98   50   52 1    
    99   50  106 1    
   100   51  107 1    
   101   51  108 1    
   102   51  109 1    
   103   52   53 2    
   104   52   54 am   BACKBONE|DICT|INTERRES
   105   54   55 1    
   106   54  110 1    
   107   55   56 1    
   108   55   59 1    
   109   55  111 1    
   110   56   57 am   BACKBONE|DICT|INTERRES
   111   56   58 2    
   112   57  112 1    
   113   57  113 1    
   114   59   60 1    
   115   59  114 1    
   116   59  115 1    
   117   60   61 1    
   118   61  116 1    
   119   61  117 1    
@<TRIPOS>SUBSTRUCTURE
     1 UNK         1 GROUP             0       ****    0 ROOT    
