@<TRIPOS>MOLECULE
3R8
117   119    1
SMALL
USER_CHARGES


@<TRIPOS>ATOM
      1 CA         14.4980  -23.4044  -47.5300 C.3       0 UNK        -0.2013 
      2 C          15.4739  -24.4388  -46.9879 C.2       0 UNK         0.4866 
      3 O          15.0669  -25.3039  -46.2122 O.2       0 UNK        -0.5176 
      4 N          16.7453  -24.3535  -47.4085 N.am      1 UNK        -0.4884 
      5 CA         17.8935  -25.1729  -46.9909 C.3       1 UNK         0.0853 
      6 C6         17.6250  -26.7051  -47.0609 C.3       10 UNK        -0.0849 
      7 S7         19.0787  -27.6972  -47.5510 S.3       10 UNK        -0.2776 
      8 C8         19.9014  -28.1024  -45.9751 C.3       10 UNK         0.0316 
      9 C9         19.1603  -29.1317  -45.1347 C.ar      10 UNK        -0.0863 
     10 C10        19.5304  -30.4772  -45.1961 C.ar      10 UNK        -0.1009 
     11 C11        18.9335  -31.4176  -44.3519 C.ar      10 UNK        -0.0712 
     12 C12        17.9352  -31.0095  -43.4619 C.ar      10 UNK        -0.0894 
     13 C13        17.5459  -29.6685  -43.3993 C.ar      10 UNK        -0.0745 
     14 C14        18.1642  -28.7358  -44.2367 C.ar      10 UNK        -0.0972 
     15 C15        16.4601  -29.2316  -42.4253 C.3       10 UNK         0.0209 
     16 S16        17.1571  -28.5994  -40.8639 S.3       10 UNK        -0.2568 
     17 C17        17.5868  -26.8822  -41.3080 C.3       10 UNK        -0.0983 
     18 CA         19.0950  -26.7153  -41.6202 C.3       3 UNK         0.0876 
     19 N          19.3171  -25.6752  -42.6282 N.am      3 UNK        -0.4424 
     20 C          20.4816  -25.4235  -43.2360 C.2       2 UNK         0.4918 
     21 O          21.5038  -26.0858  -43.0462 O.2       2 UNK        -0.4875 
     22 CA         20.4799  -24.2681  -44.2586 C.3       2 UNK         0.0481 
     23 CB         21.9052  -23.8218  -44.6321 C.3       2 UNK        -0.1831 
     24 N          19.7591  -24.6221  -45.4869 N.am      2 UNK        -0.4498 
     25 C          18.4276  -24.7245  -45.6104 C.2       1 UNK         0.5027 
     26 O          17.6489  -24.4892  -44.6829 O.2       1 UNK        -0.4969 
     27 C          19.9303  -26.4617  -40.3483 C.2       3 UNK         0.5005 
     28 O          20.2183  -25.3069  -40.0226 O.2       3 UNK        -0.5279 
     29 N          20.3429  -27.5494  -39.6825 N.am      4 UNK        -0.4463 
     30 CA         21.2567  -27.6303  -38.5304 C.3       4 UNK         0.0283 
     31 CB         20.7342  -26.8306  -37.3206 C.3       4 UNK        -0.1875 
     32 C          22.7209  -27.2674  -38.8516 C.2       4 UNK         0.4949 
     33 O          23.6231  -27.8757  -38.2765 O.2       4 UNK        -0.5039 
     34 N          22.9430  -26.3159  -39.7685 N.am      5 UNK        -0.4663 
     35 CA         24.2537  -25.9859  -40.3331 C.3       5 UNK         0.0242 
     36 CB         24.1797  -24.6255  -41.0435 C.3       5 UNK        -0.1982 
     37 C          24.7626  -27.0788  -41.2898 C.2       5 UNK         0.5017 
     38 O          25.9666  -27.3367  -41.3215 O.2       5 UNK        -0.5012 
     39 N          23.8402  -27.7076  -42.0345 N.am      6 UNK        -0.4439 
     40 CA         24.0811  -28.8806  -42.8772 C.3       6 UNK         0.0297 
     41 CB         22.7905  -29.2310  -43.6374 C.3       6 UNK        -0.2006 
     42 C          24.5645  -30.0852  -42.0496 C.2       6 UNK         0.4892 
     43 O          23.9395  -30.4195  -41.0406 O.2       6 UNK        -0.5089 
     44 N          25.6643  -30.7069  -42.4940 N.am      7 UNK        -0.4243 
     45 CA         26.2812  -31.8717  -41.8552 C.3       7 UNK         0.0196 
     46 CB         27.6680  -32.1082  -42.4755 C.3       7 UNK        -0.2007 
     47 C          25.4124  -33.1325  -41.9897 C.2       7 UNK         0.5020 
     48 O          24.7022  -33.2817  -42.9854 O.2       7 UNK        -0.5147 
     49 N          25.4954  -34.0172  -40.9862 N.am      8 UNK        -0.4734 
     50 CA         24.7932  -35.3046  -40.8248 C.3       8 UNK         0.0238 
     51 CB         25.1211  -36.2745  -41.9778 C.3       8 UNK        -0.1912 
     52 C          23.2695  -35.2054  -40.6046 C.2       8 UNK         0.5038 
     53 O          22.7149  -36.0565  -39.9077 O.2       8 UNK        -0.5046 
     54 N          22.6264  -34.1867  -41.1832 N.am      9 UNK        -0.4200 
     55 CA         21.2074  -33.8429  -41.0296 C.3       9 UNK         0.0839 
     56 C          20.8129  -33.5304  -39.5598 C.2       9 UNK         0.5513 
     57 N          19.6015  -33.8887  -39.1566 N.am      9 UNK        -0.7519 
     58 O          21.5716  -32.9317  -38.8003 O.2       9 UNK        -0.4960 
     59 C59        20.8294  -32.6582  -41.9531 C.3       10 UNK        -0.0876 
     60 S60        21.0749  -33.0523  -43.7199 S.3       10 UNK        -0.2414 
     61 C61        19.3907  -32.8682  -44.3880 C.3       10 UNK         0.0169 
     62 H62        14.9778  -22.7084  -48.2180 H         1 UNK         0.0903 
     63 H63        13.6845  -23.8982  -48.0608 H         1 UNK         0.0903 
     64 H64        14.0695  -22.8286  -46.7101 H         1 UNK         0.0903 
     65 H65        16.9837  -23.6001  -48.0397 H         1 UNK         0.3096 
     66 H66        18.6636  -24.9365  -47.7275 H         1 UNK         0.1121 
     67 H67        17.1709  -27.0828  -46.1469 H         1 UNK         0.0849 
     68 H68        16.8800  -26.9015  -47.8336 H         1 UNK         0.0849 
     69 H69        20.8995  -28.4760  -46.2085 H         1 UNK         0.0865 
     70 H70        20.0653  -27.2052  -45.3880 H         1 UNK         0.0865 
     71 H71        20.3126  -30.7914  -45.8739 H         1 UNK         0.1346 
     72 H72        17.4693  -31.7334  -42.8072 H         1 UNK         0.1412 
     73 H73        17.8856  -27.6947  -44.1651 H         1 UNK         0.1426 
     74 H74        15.8106  -30.0773  -42.1940 H         1 UNK         0.0716 
     75 H75        15.8162  -28.4806  -42.8854 H         1 UNK         0.0716 
     76 H76        17.2695  -26.2170  -40.5021 H         1 UNK         0.0695 
     77 H77        16.9815  -26.5925  -42.1684 H         1 UNK         0.0695 
     78 H78        19.4683  -27.6389  -42.0678 H         1 UNK         0.0983 
     79 H79        18.5196  -25.1059  -42.8864 H         1 UNK         0.3095 
     80 H80        19.9788  -23.4163  -43.7939 H         1 UNK         0.0454 
     81 H81        21.8899  -22.9747  -45.3179 H         1 UNK         0.0851 
     82 H82        22.4737  -24.6251  -45.1028 H         1 UNK         0.0851 
     83 H83        22.4584  -23.5064  -43.7472 H         1 UNK         0.0851 
     84 H84        20.3361  -24.8446  -46.2857 H         1 UNK         0.2976 
     85 H85        20.0392  -28.4472  -40.0359 H         1 UNK         0.3116 
     86 H86        21.2603  -28.6832  -38.2431 H         1 UNK         0.0646 
     87 H87        20.7482  -25.7555  -37.5006 H         1 UNK         0.0847 
     88 H88        21.3514  -27.0153  -36.4405 H         1 UNK         0.0847 
     89 H89        19.7136  -27.1160  -37.0661 H         1 UNK         0.0847 
     90 H90        22.1352  -25.8240  -40.1379 H         1 UNK         0.3040 
     91 H91        24.9704  -25.9052  -39.5125 H         1 UNK         0.1015 
     92 H92        23.4691  -24.6408  -41.8693 H         1 UNK         0.0786 
     93 H93        25.1512  -24.3466  -41.4538 H         1 UNK         0.0786 
     94 H94        23.8784  -23.8347  -40.3562 H         1 UNK         0.0786 
     95 H95        22.8885  -27.3636  -41.9997 H         1 UNK         0.3172 
     96 H96        24.8496  -28.6137  -43.6055 H         1 UNK         0.0595 
     97 H97        22.9338  -30.1058  -44.2734 H         1 UNK         0.0839 
     98 H98        22.4763  -28.4091  -44.2800 H         1 UNK         0.0839 
     99 H99        21.9675  -29.4573  -42.9579 H         1 UNK         0.0839 
    100 H100       26.0922  -30.3845  -43.3496 H         1 UNK         0.2998 
    101 H101       26.4063  -31.6437  -40.7943 H         1 UNK         0.0822 
    102 H102       28.1711  -32.9517  -42.0006 H         1 UNK         0.0787 
    103 H103       27.6002  -32.3288  -43.5418 H         1 UNK         0.0787 
    104 H104       28.3128  -31.2377  -42.3521 H         1 UNK         0.0787 
    105 H105       26.0971  -33.7741  -40.2101 H         1 UNK         0.3055 
    106 H106       25.1971  -35.7428  -39.9102 H         1 UNK         0.1106 
    107 H107       24.6964  -37.2610  -41.7872 H         1 UNK         0.0828 
    108 H108       24.7172  -35.9302  -42.9302 H         1 UNK         0.0828 
    109 H109       26.1970  -36.4029  -42.0955 H         1 UNK         0.0828 
    110 H110       23.1679  -33.5818  -41.7908 H         1 UNK         0.2931 
    111 H111       20.6374  -34.7182  -41.3477 H         1 UNK         0.0412 
    112 H112       18.9684  -34.3750  -39.7726 H         1 UNK         0.3472 
    113 H113       19.3190  -33.6821  -38.2110 H         1 UNK         0.3472 
    114 H114       21.4284  -31.7777  -41.7114 H         1 UNK         0.0970 
    115 H115       19.7910  -32.3679  -41.7881 H         1 UNK         0.0970 
    116 H116       18.7076  -33.5121  -43.8320 H         1 UNK         0.0612 
    117 H117       19.3792  -33.2229  -45.4195 H         1 UNK         0.0612 
@<TRIPOS>BOND
     1    1    2 1    
     2    1   62 1    
     3    1   63 1    
     4    1   64 1    
     5    2    3 2    
     6    2    4 am   BACKBONE|DICT|INTERRES
     7    4    5 1    
     8    4   65 1    
     9    5    6 1    
    10    5   25 1    
    11    5   66 1    
    12    6    7 1    
    13    6   67 1    
    14    6   68 1    
    15    7    8 1    
    16    8    9 1    
    17    8   69 1    
    18    8   70 1    
    19    9   10 ar   
    20    9   14 ar   
    21   10   11 ar   
    22   10   71 1    
    23   11   12 ar   
    24   11   61 1    
    25   12   13 ar   
    26   12   72 1    
    27   13   14 ar   
    28   13   15 1    
    29   14   73 1    
    30   15   16 1    
    31   15   74 1    
    32   15   75 1    
    33   16   17 1    
    34   17   18 1    
    35   17   76 1    
    36   17   77 1    
    37   18   19 1    
    38   18   27 1    
    39   18   78 1    
    40   19   20 am   BACKBONE|DICT|INTERRES
    41   19   79 1    
    42   20   21 2    
    43   20   22 1    
    44   22   23 1    
    45   22   24 1    
    46   22   80 1    
    47   23   81 1    
    48   23   82 1    
    49   23   83 1    
    50   24   25 am   BACKBONE|DICT|INTERRES
    51   24   84 1    
    52   25   26 2    
    53   27   28 2    
    54   27   29 am   BACKBONE|DICT|INTERRES
    55   29   30 1    
    56   29   85 1    
    57   30   31 1    
    58   30   32 1    
    59   30   86 1    
    60   31   87 1    
    61   31   88 1    
    62   31   89 1    
    63   32   33 2    
    64   32   34 am   BACKBONE|DICT|INTERRES
    65   34   35 1    
    66   34   90 1    
    67   35   36 1    
    68   35   37 1    
    69   35   91 1    
    70   36   92 1    
    71   36   93 1    
    72   36   94 1    
    73   37   38 2    
    74   37   39 am   BACKBONE|DICT|INTERRES
    75   39   40 1    
    76   39   95 1    
    77   40   41 1    
    78   40   42 1    
    79   40   96 1    
    80   41   97 1    
    81   41   98 1    
    82   41   99 1    
    83   42   43 2    
    84   42   44 am   BACKBONE|DICT|INTERRES
    85   44   45 1    
    86   44  100 1    
    87   45   46 1    
    88   45   47 1    
    89   45  101 1    
    90   46  102 1    
    91   46  103 1    
    92   46  104 1    
    93   47   48 2    
    94   47   49 am   BACKBONE|DICT|INTERRES
    95   49   50 1    
    96   49  105 1    
    97   50   51 1    
    98   50   52 1    
    99   50  106 1    
   100   51  107 1    
   101   51  108 1    
   102   51  109 1    
   103   52   53 2    
   104   52   54 am   BACKBONE|DICT|INTERRES
   105   54   55 1    
   106   54  110 1    
   107   55   56 1    
   108   55   59 1    
   109   55  111 1    
   110   56   57 am   BACKBONE|DICT|INTERRES
   111   56   58 2    
   112   57  112 1    
   113   57  113 1    
   114   59   60 1    
   115   59  114 1    
   116   59  115 1    
   117   60   61 1    
   118   61  116 1    
   119   61  117 1    
@<TRIPOS>SUBSTRUCTURE
     1 UNK         1 GROUP             0       ****    0 ROOT    
