@<TRIPOS>MOLECULE
3R8
117   119    1
SMALL
USER_CHARGES


@<TRIPOS>ATOM
      1 CA         19.5685  -29.3059  -39.0177 C.3       0 UNK        -0.2013 
      2 C          19.3634  -29.2316  -40.5220 C.2       0 UNK         0.4866 
      3 O          18.2288  -29.0889  -40.9788 O.2       0 UNK        -0.5176 
      4 N          20.4515  -29.2876  -41.3004 N.am      1 UNK        -0.4884 
      5 CA         20.4618  -29.0513  -42.7445 C.3       1 UNK         0.0853 
      6 C6         21.6743  -29.7183  -43.4554 C.3       10 UNK        -0.0849 
      7 S7         21.6525  -31.5423  -43.4087 S.3       10 UNK        -0.2776 
      8 C8         20.9098  -31.9621  -45.0240 C.3       10 UNK         0.0316 
      9 C9         19.5429  -31.3139  -45.1432 C.ar      10 UNK        -0.0863 
     10 C10        18.5136  -31.7325  -44.3032 C.ar      10 UNK        -0.1009 
     11 C11        17.3265  -31.0001  -44.2078 C.ar      10 UNK        -0.0712 
     12 C12        17.1585  -29.8810  -45.0344 C.ar      10 UNK        -0.0894 
     13 C13        18.1610  -29.4763  -45.9264 C.ar      10 UNK        -0.0745 
     14 C14        19.3509  -30.2146  -45.9800 C.ar      10 UNK        -0.0972 
     15 C15        17.9350  -28.2186  -46.7734 C.3       10 UNK         0.0209 
     16 S16        19.4490  -27.5154  -47.5267 S.3       10 UNK        -0.2568 
     17 C17        19.0912  -25.7240  -47.5713 C.3       10 UNK        -0.0983 
     18 CA         19.7967  -24.9191  -46.4477 C.3       3 UNK         0.0876 
     19 N          19.3957  -25.3971  -45.1230 N.am      3 UNK        -0.4424 
     20 C          19.4964  -24.6982  -43.9869 C.2       2 UNK         0.4918 
     21 O          19.8903  -23.5338  -43.9302 O.2       2 UNK        -0.4875 
     22 CA         19.1144  -25.4307  -42.6868 C.3       2 UNK         0.0481 
     23 CB         17.6589  -25.1174  -42.3075 C.3       2 UNK        -0.1831 
     24 N          19.3005  -26.8882  -42.7087 N.am      2 UNK        -0.4498 
     25 C          20.4466  -27.5306  -42.9739 C.2       1 UNK         0.5027 
     26 O          21.4740  -26.9602  -43.3399 O.2       1 UNK        -0.4969 
     27 C          21.3339  -24.8771  -46.6352 C.2       3 UNK         0.5005 
     28 O          21.8128  -24.0917  -47.4554 O.2       3 UNK        -0.5279 
     29 N          22.0730  -25.7138  -45.8905 N.am      4 UNK        -0.4463 
     30 CA         23.5318  -25.8535  -45.9599 C.3       4 UNK         0.0283 
     31 CB         23.8749  -27.3483  -46.0792 C.3       4 UNK        -0.1875 
     32 C          24.2458  -25.2554  -44.7349 C.2       4 UNK         0.4949 
     33 O          25.4397  -24.9704  -44.8260 O.2       4 UNK        -0.5039 
     34 N          23.5153  -25.0959  -43.6213 N.am      5 UNK        -0.4663 
     35 CA         23.9700  -24.6843  -42.2892 C.3       5 UNK         0.0242 
     36 CB         24.5510  -23.2536  -42.3065 C.3       5 UNK        -0.1982 
     37 C          24.9113  -25.7272  -41.6546 C.2       5 UNK         0.5017 
     38 O          25.9902  -25.3731  -41.1746 O.2       5 UNK        -0.5012 
     39 N          24.4787  -26.9956  -41.6644 N.am      6 UNK        -0.4439 
     40 CA         25.1651  -28.1273  -41.0368 C.3       6 UNK         0.0297 
     41 CB         25.6777  -29.0838  -42.1264 C.3       6 UNK        -0.2006 
     42 C          24.1989  -28.8463  -40.0859 C.2       6 UNK         0.4892 
     43 O          22.9903  -28.8464  -40.3263 O.2       6 UNK        -0.5089 
     44 N          24.7415  -29.4481  -39.0224 N.am      7 UNK        -0.4243 
     45 CA         23.9789  -30.1429  -37.9853 C.3       7 UNK         0.0196 
     46 CB         24.7428  -30.0377  -36.6520 C.3       7 UNK        -0.2007 
     47 C          23.7147  -31.6046  -38.3843 C.2       7 UNK         0.5020 
     48 O          24.5040  -32.4844  -38.0351 O.2       7 UNK        -0.5147 
     49 N          22.6140  -31.8391  -39.1061 N.am      8 UNK        -0.4734 
     50 CA         22.1129  -33.1652  -39.4694 C.3       8 UNK         0.0238 
     51 CB         22.9212  -33.7698  -40.6387 C.3       8 UNK        -0.1912 
     52 C          20.5871  -33.1064  -39.6686 C.2       8 UNK         0.5038 
     53 O          19.9055  -32.5465  -38.8094 O.2       8 UNK        -0.5046 
     54 N          20.0695  -33.7083  -40.7490 N.am      9 UNK        -0.4200 
     55 CA         18.6364  -33.9782  -40.9852 C.3       9 UNK         0.0839 
     56 C          18.0251  -35.0274  -40.0006 C.2       9 UNK         0.5513 
     57 N          18.8229  -35.9093  -39.4084 N.am      9 UNK        -0.7519 
     58 O          16.8182  -35.0648  -39.7758 O.2       9 UNK        -0.4960 
     59 C59        17.7697  -32.6880  -41.1429 C.3       10 UNK        -0.0876 
     60 S60        16.3801  -32.9350  -42.3161 S.3       10 UNK        -0.2414 
     61 C61        16.2416  -31.3243  -43.1762 C.3       10 UNK         0.0169 
     62 H62        18.9245  -30.0729  -38.5886 H         1 UNK         0.0903 
     63 H63        20.5993  -29.5403  -38.7568 H         1 UNK         0.0903 
     64 H64        19.3107  -28.3519  -38.5590 H         1 UNK         0.0903 
     65 H65        21.3773  -29.2824  -40.8719 H         1 UNK         0.3096 
     66 H66        19.5432  -29.4479  -43.1738 H         1 UNK         0.1121 
     67 H67        21.7292  -29.4052  -44.4994 H         1 UNK         0.0849 
     68 H68        22.6053  -29.3853  -42.9983 H         1 UNK         0.0849 
     69 H69        20.8145  -33.0454  -45.1104 H         1 UNK         0.0865 
     70 H70        21.5742  -31.6411  -45.8278 H         1 UNK         0.0865 
     71 H71        18.6967  -32.5838  -43.6669 H         1 UNK         0.1346 
     72 H72        16.2466  -29.3034  -44.9627 H         1 UNK         0.1412 
     73 H73        20.1610  -29.9130  -46.6276 H         1 UNK         0.1426 
     74 H74        17.4626  -27.4590  -46.1490 H         1 UNK         0.0716 
     75 H75        17.2254  -28.4495  -47.5689 H         1 UNK         0.0716 
     76 H76        18.0124  -25.5701  -47.5161 H         1 UNK         0.0695 
     77 H77        19.3862  -25.3427  -48.5507 H         1 UNK         0.0695 
     78 H78        19.4569  -23.8844  -46.5350 H         1 UNK         0.0983 
     79 H79        19.0688  -26.3499  -45.0743 H         1 UNK         0.3095 
     80 H80        19.7614  -25.0401  -41.8988 H         1 UNK         0.0454 
     81 H81        16.9559  -25.5194  -43.0382 H         1 UNK         0.0851 
     82 H82        17.4913  -24.0408  -42.2516 H         1 UNK         0.0851 
     83 H83        17.4038  -25.5329  -41.3324 H         1 UNK         0.0851 
     84 H84        18.5365  -27.4484  -42.3461 H         1 UNK         0.2976 
     85 H85        21.6034  -26.2955  -45.2058 H         1 UNK         0.3116 
     86 H86        23.9180  -25.3452  -46.8458 H         1 UNK         0.0646 
     87 H87        24.9500  -27.4934  -46.1938 H         1 UNK         0.0847 
     88 H88        23.3927  -27.7992  -46.9466 H         1 UNK         0.0847 
     89 H89        23.5659  -27.9053  -45.1943 H         1 UNK         0.0847 
     90 H90        22.5702  -25.4657  -43.6450 H         1 UNK         0.3040 
     91 H91        23.0790  -24.6626  -41.6592 H         1 UNK         0.1015 
     92 H92        25.4841  -23.1966  -42.8675 H         1 UNK         0.0786 
     93 H93        24.7626  -22.9086  -41.2937 H         1 UNK         0.0786 
     94 H94        23.8492  -22.5469  -42.7492 H         1 UNK         0.0786 
     95 H95        23.5521  -27.1916  -42.0228 H         1 UNK         0.3172 
     96 H96        26.0172  -27.7781  -40.4499 H         1 UNK         0.0595 
     97 H97        24.8680  -29.4915  -42.7304 H         1 UNK         0.0839 
     98 H98        26.3711  -28.5782  -42.7988 H         1 UNK         0.0839 
     99 H99        26.2109  -29.9280  -41.6873 H         1 UNK         0.0839 
    100 H100       25.7462  -29.4468  -38.9174 H         1 UNK         0.2998 
    101 H101       23.0155  -29.6471  -37.8463 H         1 UNK         0.0822 
    102 H102       24.2098  -30.5591  -35.8557 H         1 UNK         0.0787 
    103 H103       25.7403  -30.4746  -36.7169 H         1 UNK         0.0787 
    104 H104       24.8529  -28.9988  -36.3403 H         1 UNK         0.0787 
    105 H105       22.0166  -31.0639  -39.3568 H         1 UNK         0.3055 
    106 H106       22.2530  -33.8217  -38.6074 H         1 UNK         0.1106 
    107 H107       22.5539  -34.7571  -40.9201 H         1 UNK         0.0828 
    108 H108       22.9007  -33.1352  -41.5208 H         1 UNK         0.0828 
    109 H109       23.9677  -33.8990  -40.3627 H         1 UNK         0.0828 
    110 H110       20.7053  -34.1212  -41.4156 H         1 UNK         0.2931 
    111 H111       18.6347  -34.4851  -41.9509 H         1 UNK         0.0412 
    112 H112       19.8135  -35.9142  -39.5896 H         1 UNK         0.3472 
    113 H113       18.4229  -36.5875  -38.7786 H         1 UNK         0.3472 
    114 H114       17.3797  -32.3528  -40.1802 H         1 UNK         0.0970 
    115 H115       18.3864  -31.8652  -41.5044 H         1 UNK         0.0970 
    116 H116       16.2216  -30.5318  -42.4268 H         1 UNK         0.0612 
    117 H117       15.2717  -31.3016  -43.6749 H         1 UNK         0.0612 
@<TRIPOS>BOND
     1    1    2 1    
     2    1   62 1    
     3    1   63 1    
     4    1   64 1    
     5    2    3 2    
     6    2    4 am   BACKBONE|DICT|INTERRES
     7    4    5 1    
     8    4   65 1    
     9    5    6 1    
    10    5   25 1    
    11    5   66 1    
    12    6    7 1    
    13    6   67 1    
    14    6   68 1    
    15    7    8 1    
    16    8    9 1    
    17    8   69 1    
    18    8   70 1    
    19    9   10 ar   
    20    9   14 ar   
    21   10   11 ar   
    22   10   71 1    
    23   11   12 ar   
    24   11   61 1    
    25   12   13 ar   
    26   12   72 1    
    27   13   14 ar   
    28   13   15 1    
    29   14   73 1    
    30   15   16 1    
    31   15   74 1    
    32   15   75 1    
    33   16   17 1    
    34   17   18 1    
    35   17   76 1    
    36   17   77 1    
    37   18   19 1    
    38   18   27 1    
    39   18   78 1    
    40   19   20 am   BACKBONE|DICT|INTERRES
    41   19   79 1    
    42   20   21 2    
    43   20   22 1    
    44   22   23 1    
    45   22   24 1    
    46   22   80 1    
    47   23   81 1    
    48   23   82 1    
    49   23   83 1    
    50   24   25 am   BACKBONE|DICT|INTERRES
    51   24   84 1    
    52   25   26 2    
    53   27   28 2    
    54   27   29 am   BACKBONE|DICT|INTERRES
    55   29   30 1    
    56   29   85 1    
    57   30   31 1    
    58   30   32 1    
    59   30   86 1    
    60   31   87 1    
    61   31   88 1    
    62   31   89 1    
    63   32   33 2    
    64   32   34 am   BACKBONE|DICT|INTERRES
    65   34   35 1    
    66   34   90 1    
    67   35   36 1    
    68   35   37 1    
    69   35   91 1    
    70   36   92 1    
    71   36   93 1    
    72   36   94 1    
    73   37   38 2    
    74   37   39 am   BACKBONE|DICT|INTERRES
    75   39   40 1    
    76   39   95 1    
    77   40   41 1    
    78   40   42 1    
    79   40   96 1    
    80   41   97 1    
    81   41   98 1    
    82   41   99 1    
    83   42   43 2    
    84   42   44 am   BACKBONE|DICT|INTERRES
    85   44   45 1    
    86   44  100 1    
    87   45   46 1    
    88   45   47 1    
    89   45  101 1    
    90   46  102 1    
    91   46  103 1    
    92   46  104 1    
    93   47   48 2    
    94   47   49 am   BACKBONE|DICT|INTERRES
    95   49   50 1    
    96   49  105 1    
    97   50   51 1    
    98   50   52 1    
    99   50  106 1    
   100   51  107 1    
   101   51  108 1    
   102   51  109 1    
   103   52   53 2    
   104   52   54 am   BACKBONE|DICT|INTERRES
   105   54   55 1    
   106   54  110 1    
   107   55   56 1    
   108   55   59 1    
   109   55  111 1    
   110   56   57 am   BACKBONE|DICT|INTERRES
   111   56   58 2    
   112   57  112 1    
   113   57  113 1    
   114   59   60 1    
   115   59  114 1    
   116   59  115 1    
   117   60   61 1    
   118   61  116 1    
   119   61  117 1    
@<TRIPOS>SUBSTRUCTURE
     1 UNK         1 GROUP             0       ****    0 ROOT    
