@<TRIPOS>MOLECULE
3R8
117   119    1
SMALL
USER_CHARGES


@<TRIPOS>ATOM
      1 CA         17.7055  -23.4002  -48.6325 C.3       0 UNK        -0.2013 
      2 C          18.8628  -24.2047  -48.0598 C.2       0 UNK         0.4866 
      3 O          20.0115  -23.7705  -48.1464 O.2       0 UNK        -0.5176 
      4 N          18.5699  -25.3751  -47.4764 N.am      1 UNK        -0.4884 
      5 CA         19.5587  -26.2738  -46.8632 C.3       1 UNK         0.0853 
      6 C6         18.9797  -27.7028  -46.6933 C.3       10 UNK        -0.0849 
      7 S7         20.2702  -28.9939  -46.7027 S.3       10 UNK        -0.2776 
      8 C8         19.3177  -30.4909  -46.2906 C.3       10 UNK         0.0316 
      9 C9         18.8457  -30.4919  -44.8432 C.ar      10 UNK        -0.0863 
     10 C10        19.6912  -30.9380  -43.8223 C.ar      10 UNK        -0.1009 
     11 C11        19.2547  -30.9469  -42.4929 C.ar      10 UNK        -0.0712 
     12 C12        17.9653  -30.5033  -42.1881 C.ar      10 UNK        -0.0894 
     13 C13        17.1215  -30.0325  -43.1980 C.ar      10 UNK        -0.0745 
     14 C14        17.5592  -30.0485  -44.5244 C.ar      10 UNK        -0.0972 
     15 C15        15.7488  -29.4744  -42.8606 C.3       10 UNK         0.0209 
     16 S16        15.8001  -27.6583  -42.7214 S.3       10 UNK        -0.2568 
     17 C17        16.6460  -27.4351  -41.1192 C.3       10 UNK        -0.0983 
     18 CA         18.1609  -27.1283  -41.2520 C.3       3 UNK         0.0876 
     19 N          18.4039  -25.9435  -42.0896 N.am      3 UNK        -0.4424 
     20 C          19.5943  -25.4360  -42.4373 C.2       2 UNK         0.4918 
     21 O          20.6694  -25.8160  -41.9746 O.2       2 UNK        -0.4875 
     22 CA         19.5534  -24.3255  -43.5008 C.3       2 UNK         0.0481 
     23 CB         20.8069  -23.4246  -43.4755 C.3       2 UNK        -0.1831 
     24 N          19.3179  -24.8921  -44.8350 N.am      2 UNK        -0.4498 
     25 C          20.1152  -25.7256  -45.5276 C.2       1 UNK         0.5027 
     26 O          21.2442  -26.0586  -45.1688 O.2       1 UNK        -0.4969 
     27 C          18.8092  -27.1049  -39.8489 C.2       3 UNK         0.5005 
     28 O          18.9739  -28.1684  -39.2492 O.2       3 UNK        -0.5279 
     29 N          19.1550  -25.9132  -39.3415 N.am      4 UNK        -0.4463 
     30 CA         19.8837  -25.7214  -38.0856 C.3       4 UNK         0.0283 
     31 CB         19.7970  -24.2421  -37.6759 C.3       4 UNK        -0.1875 
     32 C          21.3564  -26.1732  -38.1513 C.2       4 UNK         0.4949 
     33 O          21.9353  -26.4617  -37.1032 O.2       4 UNK        -0.5039 
     34 N          21.9419  -26.2144  -39.3558 N.am      5 UNK        -0.4663 
     35 CA         23.3112  -26.6641  -39.5996 C.3       5 UNK         0.0242 
     36 CB         23.9120  -25.8189  -40.7360 C.3       5 UNK        -0.1982 
     37 C          23.3310  -28.1502  -39.9837 C.2       5 UNK         0.5017 
     38 O          22.3512  -28.6693  -40.5249 O.2       5 UNK        -0.5012 
     39 N          24.4823  -28.7992  -39.7682 N.am      6 UNK        -0.4439 
     40 CA         24.7679  -30.1789  -40.1759 C.3       6 UNK         0.0297 
     41 CB         25.9000  -30.7362  -39.2930 C.3       6 UNK        -0.2006 
     42 C          25.0908  -30.2672  -41.6824 C.2       6 UNK         0.4892 
     43 O          26.1722  -30.7173  -42.0634 O.2       6 UNK        -0.5089 
     44 N          24.1470  -29.8077  -42.5138 N.am      7 UNK        -0.4243 
     45 CA         24.2539  -29.7395  -43.9750 C.3       7 UNK         0.0196 
     46 CB         23.1793  -28.7732  -44.4947 C.3       7 UNK        -0.2007 
     47 C          24.1392  -31.1076  -44.6736 C.2       7 UNK         0.5020 
     48 O          24.5210  -31.2276  -45.8378 O.2       7 UNK        -0.5147 
     49 N          23.6263  -32.1083  -43.9517 N.am      8 UNK        -0.4734 
     50 CA         23.5072  -33.5067  -44.3687 C.3       8 UNK         0.0238 
     51 CB         22.3374  -33.6941  -45.3547 C.3       8 UNK        -0.1912 
     52 C          23.3343  -34.4005  -43.1344 C.2       8 UNK         0.5038 
     53 O          23.8970  -35.4944  -43.0903 O.2       8 UNK        -0.5046 
     54 N          22.5645  -33.8991  -42.1590 N.am      9 UNK        -0.4200 
     55 CA         22.2870  -34.4975  -40.8466 C.3       9 UNK         0.0839 
     56 C          23.5707  -34.8113  -40.0315 C.2       9 UNK         0.5513 
     57 N          23.6048  -35.9378  -39.3336 N.am      9 UNK        -0.7519 
     58 O          24.5081  -34.0179  -39.9904 O.2       9 UNK        -0.4960 
     59 C59        21.3394  -33.5885  -40.0178 C.3       10 UNK        -0.0876 
     60 S60        19.8190  -33.1430  -40.9259 S.3       10 UNK        -0.2414 
     61 C61        20.1776  -31.4173  -41.3813 C.3       10 UNK         0.0169 
     62 H62        17.6508  -22.4253  -48.1487 H         1 UNK         0.0903 
     63 H63        17.8512  -23.2424  -49.7008 H         1 UNK         0.0903 
     64 H64        16.7486  -23.9027  -48.4919 H         1 UNK         0.0903 
     65 H65        17.6085  -25.6859  -47.4460 H         1 UNK         0.3096 
     66 H66        20.4041  -26.3294  -47.5536 H         1 UNK         0.1121 
     67 H67        18.3838  -27.7713  -45.7821 H         1 UNK         0.0849 
     68 H68        18.3009  -27.9360  -47.5154 H         1 UNK         0.0849 
     69 H69        19.9458  -31.3652  -46.4687 H         1 UNK         0.0865 
     70 H70        18.4708  -30.5842  -46.9723 H         1 UNK         0.0865 
     71 H71        20.6903  -31.2706  -44.0655 H         1 UNK         0.1346 
     72 H72        17.6325  -30.4979  -41.1590 H         1 UNK         0.1412 
     73 H73        16.9036  -29.6904  -45.3066 H         1 UNK         0.1426 
     74 H74        15.3654  -29.9112  -41.9372 H         1 UNK         0.0716 
     75 H75        15.0394  -29.7479  -43.6432 H         1 UNK         0.0716 
     76 H76        16.4818  -28.3269  -40.5111 H         1 UNK         0.0695 
     77 H77        16.1443  -26.6217  -40.5916 H         1 UNK         0.0695 
     78 H78        18.6395  -27.9546  -41.7780 H         1 UNK         0.0983 
     79 H79        17.5789  -25.5658  -42.5328 H         1 UNK         0.3095 
     80 H80        18.6950  -23.6903  -43.2765 H         1 UNK         0.0454 
     81 H81        20.7449  -22.6385  -44.2277 H         1 UNK         0.0851 
     82 H82        21.7246  -23.9858  -43.6534 H         1 UNK         0.0851 
     83 H83        20.9134  -22.9391  -42.5049 H         1 UNK         0.0851 
     84 H84        18.4195  -24.6801  -45.2455 H         1 UNK         0.2976 
     85 H85        18.9788  -25.0905  -39.8993 H         1 UNK         0.3116 
     86 H86        19.3924  -26.3179  -37.3137 H         1 UNK         0.0646 
     87 H87        20.3037  -24.0710  -36.7250 H         1 UNK         0.0847 
     88 H88        18.7622  -23.9232  -37.5504 H         1 UNK         0.0847 
     89 H89        20.2646  -23.5899  -38.4147 H         1 UNK         0.0847 
     90 H90        21.3812  -26.0463  -40.1874 H         1 UNK         0.3040 
     91 H91        23.9152  -26.5220  -38.7005 H         1 UNK         0.1015 
     92 H92        23.8896  -24.7561  -40.4941 H         1 UNK         0.0786 
     93 H93        23.3710  -25.9590  -41.6733 H         1 UNK         0.0786 
     94 H94        24.9532  -26.0873  -40.9192 H         1 UNK         0.0786 
     95 H95        25.2539  -28.2882  -39.3628 H         1 UNK         0.3172 
     96 H96        23.8809  -30.7914  -39.9991 H         1 UNK         0.0595 
     97 H97        26.8252  -30.1715  -39.4136 H         1 UNK         0.0839 
     98 H98        26.1170  -31.7747  -39.5477 H         1 UNK         0.0839 
     99 H99        25.6274  -30.7161  -38.2377 H         1 UNK         0.0839 
    100 H100       23.3075  -29.4184  -42.0934 H         1 UNK         0.2998 
    101 H101       25.2342  -29.3292  -44.2267 H         1 UNK         0.0822 
    102 H102       22.1733  -29.1123  -44.2443 H         1 UNK         0.0787 
    103 H103       23.3044  -27.7743  -44.0759 H         1 UNK         0.0787 
    104 H104       23.2287  -28.6747  -45.5800 H         1 UNK         0.0787 
    105 H105       23.4479  -31.9169  -42.9773 H         1 UNK         0.3055 
    106 H106       24.4369  -33.8011  -44.8615 H         1 UNK         0.1106 
    107 H107       22.2642  -34.7344  -45.6744 H         1 UNK         0.0828 
    108 H108       21.3803  -33.4246  -44.9078 H         1 UNK         0.0828 
    109 H109       22.4689  -33.0911  -46.2531 H         1 UNK         0.0828 
    110 H110       22.0654  -33.0444  -42.3407 H         1 UNK         0.2931 
    111 H111       21.7694  -35.4389  -41.0420 H         1 UNK         0.0412 
    112 H112       24.4238  -36.1488  -38.7845 H         1 UNK         0.3472 
    113 H113       22.8341  -36.5881  -39.3532 H         1 UNK         0.3472 
    114 H114       21.8520  -32.6789  -39.6969 H         1 UNK         0.0970 
    115 H115       21.0394  -34.0993  -39.1008 H         1 UNK         0.0970 
    116 H116       20.0614  -30.7787  -40.5036 H         1 UNK         0.0612 
    117 H117       21.2175  -31.3172  -41.6939 H         1 UNK         0.0612 
@<TRIPOS>BOND
     1    1    2 1    
     2    1   62 1    
     3    1   63 1    
     4    1   64 1    
     5    2    3 2    
     6    2    4 am   BACKBONE|DICT|INTERRES
     7    4    5 1    
     8    4   65 1    
     9    5    6 1    
    10    5   25 1    
    11    5   66 1    
    12    6    7 1    
    13    6   67 1    
    14    6   68 1    
    15    7    8 1    
    16    8    9 1    
    17    8   69 1    
    18    8   70 1    
    19    9   10 ar   
    20    9   14 ar   
    21   10   11 ar   
    22   10   71 1    
    23   11   12 ar   
    24   11   61 1    
    25   12   13 ar   
    26   12   72 1    
    27   13   14 ar   
    28   13   15 1    
    29   14   73 1    
    30   15   16 1    
    31   15   74 1    
    32   15   75 1    
    33   16   17 1    
    34   17   18 1    
    35   17   76 1    
    36   17   77 1    
    37   18   19 1    
    38   18   27 1    
    39   18   78 1    
    40   19   20 am   BACKBONE|DICT|INTERRES
    41   19   79 1    
    42   20   21 2    
    43   20   22 1    
    44   22   23 1    
    45   22   24 1    
    46   22   80 1    
    47   23   81 1    
    48   23   82 1    
    49   23   83 1    
    50   24   25 am   BACKBONE|DICT|INTERRES
    51   24   84 1    
    52   25   26 2    
    53   27   28 2    
    54   27   29 am   BACKBONE|DICT|INTERRES
    55   29   30 1    
    56   29   85 1    
    57   30   31 1    
    58   30   32 1    
    59   30   86 1    
    60   31   87 1    
    61   31   88 1    
    62   31   89 1    
    63   32   33 2    
    64   32   34 am   BACKBONE|DICT|INTERRES
    65   34   35 1    
    66   34   90 1    
    67   35   36 1    
    68   35   37 1    
    69   35   91 1    
    70   36   92 1    
    71   36   93 1    
    72   36   94 1    
    73   37   38 2    
    74   37   39 am   BACKBONE|DICT|INTERRES
    75   39   40 1    
    76   39   95 1    
    77   40   41 1    
    78   40   42 1    
    79   40   96 1    
    80   41   97 1    
    81   41   98 1    
    82   41   99 1    
    83   42   43 2    
    84   42   44 am   BACKBONE|DICT|INTERRES
    85   44   45 1    
    86   44  100 1    
    87   45   46 1    
    88   45   47 1    
    89   45  101 1    
    90   46  102 1    
    91   46  103 1    
    92   46  104 1    
    93   47   48 2    
    94   47   49 am   BACKBONE|DICT|INTERRES
    95   49   50 1    
    96   49  105 1    
    97   50   51 1    
    98   50   52 1    
    99   50  106 1    
   100   51  107 1    
   101   51  108 1    
   102   51  109 1    
   103   52   53 2    
   104   52   54 am   BACKBONE|DICT|INTERRES
   105   54   55 1    
   106   54  110 1    
   107   55   56 1    
   108   55   59 1    
   109   55  111 1    
   110   56   57 am   BACKBONE|DICT|INTERRES
   111   56   58 2    
   112   57  112 1    
   113   57  113 1    
   114   59   60 1    
   115   59  114 1    
   116   59  115 1    
   117   60   61 1    
   118   61  116 1    
   119   61  117 1    
@<TRIPOS>SUBSTRUCTURE
     1 UNK         1 GROUP             0       ****    0 ROOT    
