@<TRIPOS>MOLECULE
3R8
117   119    1
SMALL
USER_CHARGES


@<TRIPOS>ATOM
      1 CA         15.9885  -21.9430  -42.9046 C.3       0 UNK        -0.2013 
      2 C          16.7340  -23.1518  -43.4487 C.2       0 UNK         0.4866 
      3 O          17.5223  -23.7609  -42.7265 O.2       0 UNK        -0.5176 
      4 N          16.5104  -23.4934  -44.7253 N.am      1 UNK        -0.4884 
      5 CA         17.0670  -24.6365  -45.4711 C.3       1 UNK         0.0853 
      6 C6         16.7503  -26.0082  -44.8075 C.3       10 UNK        -0.0849 
      7 S7         16.3738  -27.3121  -46.0223 S.3       10 UNK        -0.2776 
      8 C8         16.1227  -28.7749  -44.9495 C.3       10 UNK         0.0316 
      9 C9         17.3544  -29.6676  -44.7800 C.ar      10 UNK        -0.0863 
     10 C10        17.5339  -30.3860  -43.5916 C.ar      10 UNK        -0.1009 
     11 C11        18.6093  -31.2709  -43.4415 C.ar      10 UNK        -0.0712 
     12 C12        19.5279  -31.4172  -44.4857 C.ar      10 UNK        -0.0894 
     13 C13        19.3656  -30.7051  -45.6774 C.ar      10 UNK        -0.0745 
     14 C14        18.2694  -29.8501  -45.8225 C.ar      10 UNK        -0.0972 
     15 C15        20.3470  -30.8860  -46.8284 C.3       10 UNK         0.0209 
     16 S16        21.8835  -29.9293  -46.6110 S.3       10 UNK        -0.2568 
     17 C17        21.2821  -28.2068  -46.5659 C.3       10 UNK        -0.0983 
     18 CA         21.7555  -27.3702  -45.3489 C.3       3 UNK         0.0876 
     19 N          21.2394  -26.0068  -45.4741 N.am      3 UNK        -0.4424 
     20 C          21.6654  -24.9293  -44.8084 C.2       2 UNK         0.4918 
     21 O          22.6602  -24.9204  -44.0847 O.2       2 UNK        -0.4875 
     22 CA         20.8152  -23.6518  -44.9468 C.3       2 UNK         0.0481 
     23 CB         21.2385  -22.8314  -46.1800 C.3       2 UNK        -0.1831 
     24 N          19.3604  -23.8869  -44.9191 N.am      2 UNK        -0.4498 
     25 C          18.5709  -24.5058  -45.8108 C.2       1 UNK         0.5027 
     26 O          18.9920  -24.9910  -46.8614 O.2       1 UNK        -0.4969 
     27 C          21.3930  -27.9875  -43.9737 C.2       3 UNK         0.5005 
     28 O          22.1593  -28.8039  -43.4565 O.2       3 UNK        -0.5279 
     29 N          20.2710  -27.5456  -43.3776 N.am      4 UNK        -0.4463 
     30 CA         19.8237  -27.9251  -42.0344 C.3       4 UNK         0.0283 
     31 CB         18.4850  -27.2513  -41.6987 C.3       4 UNK        -0.1875 
     32 C          20.8695  -27.5999  -40.9584 C.2       4 UNK         0.4949 
     33 O          21.4572  -26.5168  -40.9839 O.2       4 UNK        -0.5039 
     34 N          21.1006  -28.5645  -40.0594 N.am      5 UNK        -0.4663 
     35 CA         22.1245  -28.6145  -39.0052 C.3       5 UNK         0.0242 
     36 CB         21.9926  -27.4435  -38.0121 C.3       5 UNK        -0.1982 
     37 C          23.5632  -28.7388  -39.5401 C.2       5 UNK         0.5017 
     38 O          24.3267  -29.5406  -39.0029 O.2       5 UNK        -0.5012 
     39 N          23.8997  -27.9929  -40.6014 N.am      6 UNK        -0.4439 
     40 CA         25.1907  -28.0093  -41.2975 C.3       6 UNK         0.0297 
     41 CB         25.1858  -26.9450  -42.4062 C.3       6 UNK        -0.2006 
     42 C          25.5643  -29.3881  -41.8714 C.2       6 UNK         0.4892 
     43 O          26.7368  -29.7612  -41.8294 O.2       6 UNK        -0.5089 
     44 N          24.5608  -30.1345  -42.3523 N.am      7 UNK        -0.4243 
     45 CA         24.6872  -31.5180  -42.8193 C.3       7 UNK         0.0196 
     46 CB         23.4961  -31.8320  -43.7380 C.3       7 UNK        -0.2007 
     47 C          24.7880  -32.5655  -41.6912 C.2       7 UNK         0.5020 
     48 O          24.8744  -33.7535  -42.0039 O.2       7 UNK        -0.5147 
     49 N          24.7547  -32.1349  -40.4188 N.am      8 UNK        -0.4734 
     50 CA         24.7124  -32.9597  -39.2028 C.3       8 UNK         0.0238 
     51 CB         26.0032  -33.7915  -39.0383 C.3       8 UNK        -0.1912 
     52 C          23.4245  -33.8023  -39.1327 C.2       8 UNK         0.5038 
     53 O          23.4827  -35.0135  -38.9102 O.2       8 UNK        -0.5046 
     54 N          22.2904  -33.1257  -39.3588 N.am      9 UNK        -0.4200 
     55 CA         20.9233  -33.6668  -39.3665 C.3       9 UNK         0.0839 
     56 C          20.5532  -34.4320  -38.0655 C.2       9 UNK         0.5513 
     57 N          19.8490  -35.5494  -38.1807 N.am      9 UNK        -0.7519 
     58 O          20.8546  -33.9922  -36.9576 O.2       9 UNK        -0.4960 
     59 C59        19.8846  -32.5447  -39.6285 C.3       10 UNK        -0.0876 
     60 S60        20.1887  -31.6191  -41.1736 S.3       10 UNK        -0.2414 
     61 C61        18.7482  -32.1063  -42.1739 C.3       10 UNK         0.0169 
     62 H62        15.3810  -22.2332  -42.0477 H         1 UNK         0.0903 
     63 H63        16.6964  -21.1817  -42.5780 H         1 UNK         0.0903 
     64 H64        15.3311  -21.4978  -43.6511 H         1 UNK         0.0903 
     65 H65        15.8778  -22.9179  -45.2656 H         1 UNK         0.3096 
     66 H66        16.5492  -24.5983  -46.4315 H         1 UNK         0.1121 
     67 H67        17.5675  -26.3354  -44.1676 H         1 UNK         0.0849 
     68 H68        15.8781  -25.9223  -44.1572 H         1 UNK         0.0849 
     69 H69        15.7490  -28.4496  -43.9774 H         1 UNK         0.0865 
     70 H70        15.3307  -29.3830  -45.3883 H         1 UNK         0.0865 
     71 H71        16.8168  -30.2778  -42.7892 H         1 UNK         0.1346 
     72 H72        20.3633  -32.0945  -44.3745 H         1 UNK         0.1412 
     73 H73        18.1268  -29.3306  -46.7597 H         1 UNK         0.1426 
     74 H74        19.8842  -30.6039  -47.7754 H         1 UNK         0.0716 
     75 H75        20.6041  -31.9421  -46.9213 H         1 UNK         0.0716 
     76 H76        20.1957  -28.1858  -46.6321 H         1 UNK         0.0695 
     77 H77        21.6312  -27.7305  -47.4835 H         1 UNK         0.0695 
     78 H78        22.8457  -27.3147  -45.3856 H         1 UNK         0.0983 
     79 H79        20.4380  -25.8767  -46.0863 H         1 UNK         0.3095 
     80 H80        21.0242  -23.0437  -44.0652 H         1 UNK         0.0454 
     81 H81        21.0880  -23.3788  -47.1108 H         1 UNK         0.0851 
     82 H82        22.2967  -22.5721  -46.1274 H         1 UNK         0.0851 
     83 H83        20.6798  -21.8979  -46.2458 H         1 UNK         0.0851 
     84 H84        18.8971  -23.6076  -44.0576 H         1 UNK         0.2976 
     85 H85        19.7325  -26.8406  -43.8532 H         1 UNK         0.3116 
     86 H86        19.6622  -29.0010  -42.0510 H         1 UNK         0.0646 
     87 H87        18.1960  -27.4496  -40.6656 H         1 UNK         0.0847 
     88 H88        17.6808  -27.6345  -42.3246 H         1 UNK         0.0847 
     89 H89        18.5344  -26.1684  -41.8178 H         1 UNK         0.0847 
     90 H90        20.5822  -29.4259  -40.1808 H         1 UNK         0.3040 
     91 H91        21.9240  -29.5317  -38.4485 H         1 UNK         0.1015 
     92 H92        22.2242  -26.4832  -38.4732 H         1 UNK         0.0786 
     93 H93        22.6780  -27.5698  -37.1730 H         1 UNK         0.0786 
     94 H94        20.9848  -27.3841  -37.6011 H         1 UNK         0.0786 
     95 H95        23.1850  -27.3665  -40.9636 H         1 UNK         0.3172 
     96 H96        25.9561  -27.7386  -40.5674 H         1 UNK         0.0595 
     97 H97        24.4181  -27.1449  -43.1547 H         1 UNK         0.0839 
     98 H98        26.1457  -26.9142  -42.9235 H         1 UNK         0.0839 
     99 H99        25.0034  -25.9490  -42.0022 H         1 UNK         0.0839 
    100 H100       23.6389  -29.7127  -42.4336 H         1 UNK         0.2998 
    101 H101       25.6015  -31.6002  -43.4106 H         1 UNK         0.0822 
    102 H102       23.4815  -31.1574  -44.5917 H         1 UNK         0.0787 
    103 H103       23.5479  -32.8475  -44.1325 H         1 UNK         0.0787 
    104 H104       22.5457  -31.7289  -43.2134 H         1 UNK         0.0787 
    105 H105       24.6976  -31.1350  -40.2557 H         1 UNK         0.3055 
    106 H106       24.6661  -32.2660  -38.3613 H         1 UNK         0.1106 
    107 H107       26.0990  -34.5576  -39.8080 H         1 UNK         0.0828 
    108 H108       26.0154  -34.3011  -38.0741 H         1 UNK         0.0828 
    109 H109       26.8900  -33.1594  -39.0814 H         1 UNK         0.0828 
    110 H110       22.3630  -32.1413  -39.5619 H         1 UNK         0.2931 
    111 H111       20.8776  -34.3716  -40.1992 H         1 UNK         0.0412 
    112 H112       19.5887  -35.9113  -39.0854 H         1 UNK         0.3472 
    113 H113       19.5839  -36.0505  -37.3467 H         1 UNK         0.3472 
    114 H114       19.8851  -31.8286  -38.8042 H         1 UNK         0.0970 
    115 H115       18.8771  -32.9644  -39.6527 H         1 UNK         0.0970 
    116 H116       18.8397  -33.1600  -42.4413 H         1 UNK         0.0612 
    117 H117       17.8454  -32.0175  -41.5677 H         1 UNK         0.0612 
@<TRIPOS>BOND
     1    1    2 1    
     2    1   62 1    
     3    1   63 1    
     4    1   64 1    
     5    2    3 2    
     6    2    4 am   BACKBONE|DICT|INTERRES
     7    4    5 1    
     8    4   65 1    
     9    5    6 1    
    10    5   25 1    
    11    5   66 1    
    12    6    7 1    
    13    6   67 1    
    14    6   68 1    
    15    7    8 1    
    16    8    9 1    
    17    8   69 1    
    18    8   70 1    
    19    9   10 ar   
    20    9   14 ar   
    21   10   11 ar   
    22   10   71 1    
    23   11   12 ar   
    24   11   61 1    
    25   12   13 ar   
    26   12   72 1    
    27   13   14 ar   
    28   13   15 1    
    29   14   73 1    
    30   15   16 1    
    31   15   74 1    
    32   15   75 1    
    33   16   17 1    
    34   17   18 1    
    35   17   76 1    
    36   17   77 1    
    37   18   19 1    
    38   18   27 1    
    39   18   78 1    
    40   19   20 am   BACKBONE|DICT|INTERRES
    41   19   79 1    
    42   20   21 2    
    43   20   22 1    
    44   22   23 1    
    45   22   24 1    
    46   22   80 1    
    47   23   81 1    
    48   23   82 1    
    49   23   83 1    
    50   24   25 am   BACKBONE|DICT|INTERRES
    51   24   84 1    
    52   25   26 2    
    53   27   28 2    
    54   27   29 am   BACKBONE|DICT|INTERRES
    55   29   30 1    
    56   29   85 1    
    57   30   31 1    
    58   30   32 1    
    59   30   86 1    
    60   31   87 1    
    61   31   88 1    
    62   31   89 1    
    63   32   33 2    
    64   32   34 am   BACKBONE|DICT|INTERRES
    65   34   35 1    
    66   34   90 1    
    67   35   36 1    
    68   35   37 1    
    69   35   91 1    
    70   36   92 1    
    71   36   93 1    
    72   36   94 1    
    73   37   38 2    
    74   37   39 am   BACKBONE|DICT|INTERRES
    75   39   40 1    
    76   39   95 1    
    77   40   41 1    
    78   40   42 1    
    79   40   96 1    
    80   41   97 1    
    81   41   98 1    
    82   41   99 1    
    83   42   43 2    
    84   42   44 am   BACKBONE|DICT|INTERRES
    85   44   45 1    
    86   44  100 1    
    87   45   46 1    
    88   45   47 1    
    89   45  101 1    
    90   46  102 1    
    91   46  103 1    
    92   46  104 1    
    93   47   48 2    
    94   47   49 am   BACKBONE|DICT|INTERRES
    95   49   50 1    
    96   49  105 1    
    97   50   51 1    
    98   50   52 1    
    99   50  106 1    
   100   51  107 1    
   101   51  108 1    
   102   51  109 1    
   103   52   53 2    
   104   52   54 am   BACKBONE|DICT|INTERRES
   105   54   55 1    
   106   54  110 1    
   107   55   56 1    
   108   55   59 1    
   109   55  111 1    
   110   56   57 am   BACKBONE|DICT|INTERRES
   111   56   58 2    
   112   57  112 1    
   113   57  113 1    
   114   59   60 1    
   115   59  114 1    
   116   59  115 1    
   117   60   61 1    
   118   61  116 1    
   119   61  117 1    
@<TRIPOS>SUBSTRUCTURE
     1 UNK         1 GROUP             0       ****    0 ROOT    
