@<TRIPOS>MOLECULE
3R8
117   119    1
SMALL
USER_CHARGES


@<TRIPOS>ATOM
      1 CA         12.9294  -23.8054  -43.0811 C.3       0 UNK        -0.2013 
      2 C          13.8892  -24.2222  -44.1856 C.2       0 UNK         0.4866 
      3 O          13.6332  -23.9427  -45.3573 O.2       0 UNK        -0.5176 
      4 N          14.9922  -24.8836  -43.8221 N.am      1 UNK        -0.4884 
      5 CA         16.0170  -25.3756  -44.7433 C.3       1 UNK         0.0853 
      6 C6         15.6598  -26.7411  -45.3962 C.3       10 UNK        -0.0849 
      7 S7         15.1865  -28.0728  -44.2331 S.3       10 UNK        -0.2776 
      8 C8         15.8895  -29.5429  -45.0508 C.3       10 UNK         0.0316 
      9 C9         17.3754  -29.7151  -44.7622 C.ar      10 UNK        -0.0863 
     10 C10        17.7889  -30.3573  -43.5920 C.ar      10 UNK        -0.1009 
     11 C11        19.1478  -30.5651  -43.3309 C.ar      10 UNK        -0.0712 
     12 C12        20.1010  -30.0960  -44.2423 C.ar      10 UNK        -0.0894 
     13 C13        19.7006  -29.4360  -45.4096 C.ar      10 UNK        -0.0745 
     14 C14        18.3373  -29.2622  -45.6698 C.ar      10 UNK        -0.0972 
     15 C15        20.7299  -28.9243  -46.4081 C.3       10 UNK         0.0209 
     16 S16        20.9377  -27.1166  -46.3075 S.3       10 UNK        -0.2568 
     17 C17        22.1402  -26.9731  -44.9486 C.3       10 UNK        -0.0983 
     18 CA         22.3566  -25.5074  -44.4801 C.3       3 UNK         0.0876 
     19 N          21.2192  -25.0081  -43.7124 N.am      3 UNK        -0.4424 
     20 C          20.2676  -24.1889  -44.1624 C.2       2 UNK         0.4918 
     21 O          20.2334  -23.7173  -45.3013 O.2       2 UNK        -0.4875 
     22 CA         19.1566  -23.8274  -43.1605 C.3       2 UNK         0.0481 
     23 CB         19.2475  -22.3484  -42.7514 C.3       2 UNK        -0.1831 
     24 N          17.8340  -24.0994  -43.7267 N.am      2 UNK        -0.4498 
     25 C          17.3821  -25.3238  -44.0363 C.2       1 UNK         0.5027 
     26 O          17.9831  -26.3583  -43.7491 O.2       1 UNK        -0.4969 
     27 C          23.5883  -25.4346  -43.5663 C.2       3 UNK         0.5005 
     28 O          23.4505  -25.5450  -42.3452 O.2       3 UNK        -0.5279 
     29 N          24.7829  -25.3387  -44.1665 N.am      4 UNK        -0.4463 
     30 CA         26.0614  -25.5133  -43.4629 C.3       4 UNK         0.0283 
     31 CB         27.2169  -25.0757  -44.3770 C.3       4 UNK        -0.1875 
     32 C          26.2705  -26.9640  -42.9849 C.2       4 UNK         0.4949 
     33 O          26.9289  -27.1862  -41.9698 O.2       4 UNK        -0.5039 
     34 N          25.6705  -27.9163  -43.7115 N.am      5 UNK        -0.4663 
     35 CA         25.6583  -29.3487  -43.4175 C.3       5 UNK         0.0242 
     36 CB         25.7341  -30.1203  -44.7483 C.3       5 UNK        -0.1982 
     37 C          24.4315  -29.7794  -42.5886 C.2       5 UNK         0.5017 
     38 O          24.1064  -30.9663  -42.5873 O.2       5 UNK        -0.5012 
     39 N          23.7677  -28.8431  -41.8881 N.am      6 UNK        -0.4439 
     40 CA         22.5755  -29.0938  -41.0605 C.3       6 UNK         0.0297 
     41 CB         22.0645  -27.7789  -40.4539 C.3       6 UNK        -0.2006 
     42 C          22.7589  -30.1563  -39.9582 C.2       6 UNK         0.4892 
     43 O          21.7860  -30.8104  -39.5814 O.2       6 UNK        -0.5089 
     44 N          24.0046  -30.3464  -39.5003 N.am      7 UNK        -0.4243 
     45 CA         24.4157  -31.3969  -38.5657 C.3       7 UNK         0.0196 
     46 CB         25.8928  -31.1876  -38.1955 C.3       7 UNK        -0.2007 
     47 C          24.1918  -32.8307  -39.0861 C.2       7 UNK         0.5020 
     48 O          24.0784  -33.7453  -38.2698 O.2       7 UNK        -0.5147 
     49 N          24.0969  -33.0152  -40.4135 N.am      8 UNK        -0.4734 
     50 CA         23.8072  -34.3037  -41.0557 C.3       8 UNK         0.0238 
     51 CB         23.9863  -34.1726  -42.5767 C.3       8 UNK        -0.1912 
     52 C          22.4085  -34.8594  -40.7292 C.2       8 UNK         0.5038 
     53 O          22.2159  -36.0732  -40.8130 O.2       8 UNK        -0.5046 
     54 N          21.4742  -33.9786  -40.3461 N.am      9 UNK        -0.4200 
     55 CA         20.1478  -34.3446  -39.8296 C.3       9 UNK         0.0839 
     56 C          20.1555  -34.7916  -38.3367 C.2       9 UNK         0.5513 
     57 N          21.2685  -34.7286  -37.6132 N.am      9 UNK        -0.7519 
     58 O          19.1248  -35.2190  -37.8233 O.2       9 UNK        -0.4960 
     59 C59        19.1077  -33.2216  -40.0752 C.3       10 UNK        -0.0876 
     60 S60        18.8130  -32.9025  -41.8492 S.3       10 UNK        -0.2414 
     61 C61        19.5812  -31.2638  -42.0479 C.3       10 UNK         0.0169 
     62 H62        13.2795  -24.1164  -42.0970 H         1 UNK         0.0903 
     63 H63        12.8137  -22.7219  -43.0732 H         1 UNK         0.0903 
     64 H64        11.9495  -24.2518  -43.2484 H         1 UNK         0.0903 
     65 H65        15.1630  -25.0872  -42.8461 H         1 UNK         0.3096 
     66 H66        16.1066  -24.6605  -45.5651 H         1 UNK         0.1121 
     67 H67        14.8210  -26.5988  -46.0792 H         1 UNK         0.0849 
     68 H68        16.4869  -27.0733  -46.0239 H         1 UNK         0.0849 
     69 H69        15.3508  -30.4250  -44.7012 H         1 UNK         0.0865 
     70 H70        15.7081  -29.4910  -46.1256 H         1 UNK         0.0865 
     71 H71        17.0492  -30.7064  -42.8844 H         1 UNK         0.1346 
     72 H72        21.1542  -30.2404  -44.0427 H         1 UNK         0.1412 
     73 H73        18.0299  -28.7651  -46.5792 H         1 UNK         0.1426 
     74 H74        20.4065  -29.1819  -47.4177 H         1 UNK         0.0716 
     75 H75        21.6931  -29.4167  -46.2645 H         1 UNK         0.0716 
     76 H76        21.8116  -27.5977  -44.1151 H         1 UNK         0.0695 
     77 H77        23.0718  -27.4111  -45.3110 H         1 UNK         0.0695 
     78 H78        22.5394  -24.8637  -45.3436 H         1 UNK         0.0983 
     79 H79        21.2221  -25.2878  -42.7409 H         1 UNK         0.3095 
     80 H80        19.2707  -24.4367  -42.2611 H         1 UNK         0.0454 
     81 H81        20.2191  -22.1265  -42.3080 H         1 UNK         0.0851 
     82 H82        19.1212  -21.6831  -43.6066 H         1 UNK         0.0851 
     83 H83        18.4892  -22.0928  -42.0113 H         1 UNK         0.0851 
     84 H84        17.2788  -23.2975  -43.9889 H         1 UNK         0.2976 
     85 H85        24.8256  -25.2301  -45.1707 H         1 UNK         0.3116 
     86 H86        26.0596  -24.8691  -42.5807 H         1 UNK         0.0646 
     87 H87        28.1756  -25.1737  -43.8654 H         1 UNK         0.0847 
     88 H88        27.1162  -24.0314  -44.6730 H         1 UNK         0.0847 
     89 H89        27.2698  -25.6797  -45.2837 H         1 UNK         0.0847 
     90 H90        25.1582  -27.6276  -44.5312 H         1 UNK         0.3040 
     91 H91        26.5416  -29.6059  -42.8286 H         1 UNK         0.1015 
     92 H92        26.6069  -29.8233  -45.3301 H         1 UNK         0.0786 
     93 H93        24.8479  -29.9548  -45.3623 H         1 UNK         0.0786 
     94 H94        25.8160  -31.1948  -44.5776 H         1 UNK         0.0786 
     95 H95        24.0916  -27.8860  -41.9365 H         1 UNK         0.3172 
     96 H96        21.8016  -29.4621  -41.7326 H         1 UNK         0.0595 
     97 H97        21.6876  -27.1107  -41.2269 H         1 UNK         0.0839 
     98 H98        22.8450  -27.2549  -39.9012 H         1 UNK         0.0839 
     99 H99        21.2378  -27.9574  -39.7643 H         1 UNK         0.0839 
    100 H100       24.7365  -29.7582  -39.8707 H         1 UNK         0.2998 
    101 H101       23.8142  -31.2857  -37.6611 H         1 UNK         0.0822 
    102 H102       26.0542  -30.2105  -37.7397 H         1 UNK         0.0787 
    103 H103       26.2248  -31.9371  -37.4754 H         1 UNK         0.0787 
    104 H104       26.5423  -31.2644  -39.0685 H         1 UNK         0.0787 
    105 H105       24.1753  -32.2132  -41.0328 H         1 UNK         0.3055 
    106 H106       24.5358  -35.0285  -40.6858 H         1 UNK         0.1106 
    107 H107       23.2571  -33.4869  -43.0101 H         1 UNK         0.0828 
    108 H108       24.9817  -33.8088  -42.8319 H         1 UNK         0.0828 
    109 H109       23.8572  -35.1373  -43.0693 H         1 UNK         0.0828 
    110 H110       21.7238  -33.0005  -40.2777 H         1 UNK         0.2931 
    111 H111       19.8058  -35.2186  -40.3877 H         1 UNK         0.0412 
    112 H112       21.2427  -35.0303  -36.6520 H         1 UNK         0.3472 
    113 H113       22.1394  -34.3943  -38.0082 H         1 UNK         0.3472 
    114 H114       19.4112  -32.3045  -39.5673 H         1 UNK         0.0970 
    115 H115       18.1430  -33.4941  -39.6427 H         1 UNK         0.0970 
    116 H116       20.6619  -31.4049  -42.0298 H         1 UNK         0.0612 
    117 H117       19.3250  -30.6243  -41.2023 H         1 UNK         0.0612 
@<TRIPOS>BOND
     1    1    2 1    
     2    1   62 1    
     3    1   63 1    
     4    1   64 1    
     5    2    3 2    
     6    2    4 am   BACKBONE|DICT|INTERRES
     7    4    5 1    
     8    4   65 1    
     9    5    6 1    
    10    5   25 1    
    11    5   66 1    
    12    6    7 1    
    13    6   67 1    
    14    6   68 1    
    15    7    8 1    
    16    8    9 1    
    17    8   69 1    
    18    8   70 1    
    19    9   10 ar   
    20    9   14 ar   
    21   10   11 ar   
    22   10   71 1    
    23   11   12 ar   
    24   11   61 1    
    25   12   13 ar   
    26   12   72 1    
    27   13   14 ar   
    28   13   15 1    
    29   14   73 1    
    30   15   16 1    
    31   15   74 1    
    32   15   75 1    
    33   16   17 1    
    34   17   18 1    
    35   17   76 1    
    36   17   77 1    
    37   18   19 1    
    38   18   27 1    
    39   18   78 1    
    40   19   20 am   BACKBONE|DICT|INTERRES
    41   19   79 1    
    42   20   21 2    
    43   20   22 1    
    44   22   23 1    
    45   22   24 1    
    46   22   80 1    
    47   23   81 1    
    48   23   82 1    
    49   23   83 1    
    50   24   25 am   BACKBONE|DICT|INTERRES
    51   24   84 1    
    52   25   26 2    
    53   27   28 2    
    54   27   29 am   BACKBONE|DICT|INTERRES
    55   29   30 1    
    56   29   85 1    
    57   30   31 1    
    58   30   32 1    
    59   30   86 1    
    60   31   87 1    
    61   31   88 1    
    62   31   89 1    
    63   32   33 2    
    64   32   34 am   BACKBONE|DICT|INTERRES
    65   34   35 1    
    66   34   90 1    
    67   35   36 1    
    68   35   37 1    
    69   35   91 1    
    70   36   92 1    
    71   36   93 1    
    72   36   94 1    
    73   37   38 2    
    74   37   39 am   BACKBONE|DICT|INTERRES
    75   39   40 1    
    76   39   95 1    
    77   40   41 1    
    78   40   42 1    
    79   40   96 1    
    80   41   97 1    
    81   41   98 1    
    82   41   99 1    
    83   42   43 2    
    84   42   44 am   BACKBONE|DICT|INTERRES
    85   44   45 1    
    86   44  100 1    
    87   45   46 1    
    88   45   47 1    
    89   45  101 1    
    90   46  102 1    
    91   46  103 1    
    92   46  104 1    
    93   47   48 2    
    94   47   49 am   BACKBONE|DICT|INTERRES
    95   49   50 1    
    96   49  105 1    
    97   50   51 1    
    98   50   52 1    
    99   50  106 1    
   100   51  107 1    
   101   51  108 1    
   102   51  109 1    
   103   52   53 2    
   104   52   54 am   BACKBONE|DICT|INTERRES
   105   54   55 1    
   106   54  110 1    
   107   55   56 1    
   108   55   59 1    
   109   55  111 1    
   110   56   57 am   BACKBONE|DICT|INTERRES
   111   56   58 2    
   112   57  112 1    
   113   57  113 1    
   114   59   60 1    
   115   59  114 1    
   116   59  115 1    
   117   60   61 1    
   118   61  116 1    
   119   61  117 1    
@<TRIPOS>SUBSTRUCTURE
     1 UNK         1 GROUP             0       ****    0 ROOT    
