@<TRIPOS>MOLECULE
3R8
117   119    1
SMALL
USER_CHARGES


@<TRIPOS>ATOM
      1 CA         18.0190  -24.4720  -39.6189 C.3       0 UNK        -0.2013 
      2 C          17.8424  -24.1931  -41.1044 C.2       0 UNK         0.4866 
      3 O          17.4708  -23.0807  -41.4813 O.2       0 UNK        -0.5176 
      4 N          18.1011  -25.1970  -41.9476 N.am      1 UNK        -0.4884 
      5 CA         18.0763  -25.0992  -43.4087 C.3       1 UNK         0.0853 
      6 C6         17.8891  -26.4926  -44.0568 C.3       10 UNK        -0.0849 
      7 S7         16.2277  -27.1946  -43.7757 S.3       10 UNK        -0.2776 
      8 C8         16.6059  -28.7768  -42.9371 C.3       10 UNK         0.0316 
      9 C9         17.4773  -29.7735  -43.7111 C.ar      10 UNK        -0.0863 
     10 C10        17.9204  -30.9183  -43.0409 C.ar      10 UNK        -0.1009 
     11 C11        18.7466  -31.8484  -43.6776 C.ar      10 UNK        -0.0712 
     12 C12        19.1552  -31.6184  -44.9939 C.ar      10 UNK        -0.0894 
     13 C13        18.7254  -30.4815  -45.6823 C.ar      10 UNK        -0.0745 
     14 C14        17.8580  -29.5869  -45.0480 C.ar      10 UNK        -0.0972 
     15 C15        19.1972  -30.2305  -47.1116 C.3       10 UNK         0.0209 
     16 S16        19.8238  -28.5360  -47.3826 S.3       10 UNK        -0.2568 
     17 C17        21.2086  -28.4445  -46.1966 C.3       10 UNK        -0.0983 
     18 CA         22.0198  -27.1305  -46.3393 C.3       3 UNK         0.0876 
     19 N          21.1645  -25.9497  -46.1724 N.am      3 UNK        -0.4424 
     20 C          21.5334  -24.6711  -46.3384 C.2       2 UNK         0.4918 
     21 O          22.6392  -24.3287  -46.7596 O.2       2 UNK        -0.4875 
     22 CA         20.4940  -23.5816  -45.9956 C.3       2 UNK         0.0481 
     23 CB         19.9902  -22.9002  -47.2787 C.3       2 UNK        -0.1831 
     24 N          19.3401  -24.0794  -45.2367 N.am      2 UNK        -0.4498 
     25 C          19.3652  -24.4388  -43.9444 C.2       1 UNK         0.5027 
     26 O          20.3568  -24.3131  -43.2218 O.2       1 UNK        -0.4969 
     27 C          23.1872  -27.1040  -45.3294 C.2       3 UNK         0.5005 
     28 O          23.0024  -26.6351  -44.2050 O.2       3 UNK        -0.5279 
     29 N          24.3577  -27.6224  -45.7299 N.am      4 UNK        -0.4463 
     30 CA         25.6253  -27.5350  -44.9867 C.3       4 UNK         0.0283 
     31 CB         26.7390  -28.2116  -45.8025 C.3       4 UNK        -0.1875 
     32 C          25.6013  -28.0971  -43.5516 C.2       4 UNK         0.4949 
     33 O          26.3315  -27.5953  -42.6968 O.2       4 UNK        -0.5039 
     34 N          24.7633  -29.1126  -43.3097 N.am      5 UNK        -0.4663 
     35 CA         24.5559  -29.7221  -41.9931 C.3       5 UNK         0.0242 
     36 CB         24.1311  -31.1845  -42.1955 C.3       5 UNK        -0.1982 
     37 C          23.5250  -28.9773  -41.1225 C.2       5 UNK         0.5017 
     38 O          23.3969  -29.3135  -39.9435 O.2       5 UNK        -0.5012 
     39 N          22.7865  -28.0174  -41.7037 N.am      6 UNK        -0.4439 
     40 CA         21.7028  -27.1952  -41.1407 C.3       6 UNK         0.0297 
     41 CB         22.2157  -26.2875  -40.0073 C.3       6 UNK        -0.2006 
     42 C          20.4487  -27.9707  -40.6970 C.2       6 UNK         0.4892 
     43 O          19.3388  -27.5489  -41.0177 O.2       6 UNK        -0.5089 
     44 N          20.6457  -29.0709  -39.9687 N.am      7 UNK        -0.4243 
     45 CA         19.6270  -29.9743  -39.4353 C.3       7 UNK         0.0196 
     46 CB         18.7476  -29.2665  -38.3844 C.3       7 UNK        -0.2007 
     47 C          20.2632  -31.2331  -38.8279 C.2       7 UNK         0.5020 
     48 O          19.6134  -32.2788  -38.8024 O.2       7 UNK        -0.5147 
     49 N          21.5156  -31.1373  -38.3537 N.am      8 UNK        -0.4734 
     50 CA         22.2786  -32.2217  -37.7263 C.3       8 UNK         0.0238 
     51 CB         23.3637  -31.6001  -36.8268 C.3       8 UNK        -0.1912 
     52 C          22.8622  -33.2014  -38.7644 C.2       8 UNK         0.5038 
     53 O          24.0747  -33.4195  -38.8004 O.2       8 UNK        -0.5046 
     54 N          21.9840  -33.7571  -39.6043 N.am      9 UNK        -0.4200 
     55 CA         22.3143  -34.6810  -40.6995 C.3       9 UNK         0.0839 
     56 C          22.6351  -36.1354  -40.2482 C.2       9 UNK         0.5513 
     57 N          22.4169  -36.5103  -38.9933 N.am      9 UNK        -0.7519 
     58 O          23.0973  -36.9387  -41.0543 O.2       9 UNK        -0.4960 
     59 C59        21.2212  -34.6669  -41.7988 C.3       10 UNK        -0.0876 
     60 S60        20.9454  -32.9979  -42.4809 S.3       10 UNK        -0.2414 
     61 C61        19.1963  -33.1057  -42.9508 C.3       10 UNK         0.0169 
     62 H62        18.2974  -25.5090  -39.4302 H         1 UNK         0.0903 
     63 H63        18.7984  -23.8314  -39.2074 H         1 UNK         0.0903 
     64 H64        17.0911  -24.2687  -39.0851 H         1 UNK         0.0903 
     65 H65        18.4565  -26.0796  -41.5802 H         1 UNK         0.3096 
     66 H66        17.2385  -24.4610  -43.6995 H         1 UNK         0.1121 
     67 H67        18.0153  -26.4447  -45.1397 H         1 UNK         0.0849 
     68 H68        18.6557  -27.1816  -43.6958 H         1 UNK         0.0849 
     69 H69        17.0848  -28.5503  -41.9836 H         1 UNK         0.0865 
     70 H70        15.6606  -29.2637  -42.6940 H         1 UNK         0.0865 
     71 H71        17.6171  -31.0882  -42.0171 H         1 UNK         0.1346 
     72 H72        19.8116  -32.3287  -45.4781 H         1 UNK         0.1412 
     73 H73        17.5102  -28.7305  -45.6051 H         1 UNK         0.1426 
     74 H74        18.3631  -30.4088  -47.7914 H         1 UNK         0.0716 
     75 H75        19.9799  -30.9375  -47.3910 H         1 UNK         0.0716 
     76 H76        20.8058  -28.5397  -45.1857 H         1 UNK         0.0695 
     77 H77        21.8513  -29.3124  -46.3568 H         1 UNK         0.0695 
     78 H78        22.4400  -27.0849  -47.3463 H         1 UNK         0.0983 
     79 H79        20.2347  -26.1332  -45.8339 H         1 UNK         0.3095 
     80 H80        21.0020  -22.8285  -45.3896 H         1 UNK         0.0454 
     81 H81        20.8194  -22.4795  -47.8494 H         1 UNK         0.0851 
     82 H82        19.4696  -23.6014  -47.9321 H         1 UNK         0.0851 
     83 H83        19.3088  -22.0799  -47.0527 H         1 UNK         0.0851 
     84 H84        18.4828  -24.1970  -45.7589 H         1 UNK         0.2976 
     85 H85        24.4166  -28.0142  -46.6596 H         1 UNK         0.3116 
     86 H86        25.8681  -26.4735  -44.9036 H         1 UNK         0.0646 
     87 H87        27.6988  -28.1402  -45.2885 H         1 UNK         0.0847 
     88 H88        26.8631  -27.7398  -46.7774 H         1 UNK         0.0847 
     89 H89        26.5352  -29.2710  -45.9635 H         1 UNK         0.0847 
     90 H90        24.2062  -29.4669  -44.0738 H         1 UNK         0.3040 
     91 H91        25.4982  -29.7176  -41.4403 H         1 UNK         0.1015 
     92 H92        24.9098  -31.7581  -42.6983 H         1 UNK         0.0786 
     93 H93        23.2242  -31.2540  -42.7953 H         1 UNK         0.0786 
     94 H94        23.9335  -31.6773  -41.2425 H         1 UNK         0.0786 
     95 H95        22.9992  -27.7864  -42.6715 H         1 UNK         0.3172 
     96 H96        21.3853  -26.5438  -41.9563 H         1 UNK         0.0595 
     97 H97        23.0400  -25.6609  -40.3476 H         1 UNK         0.0839 
     98 H98        22.5618  -26.8605  -39.1467 H         1 UNK         0.0839 
     99 H99        21.4259  -25.6209  -39.6579 H         1 UNK         0.0839 
    100 H100       21.6173  -29.3383  -39.8295 H         1 UNK         0.2998 
    101 H101       18.9978  -30.2960  -40.2662 H         1 UNK         0.0822 
    102 H102       18.1676  -28.4544  -38.8222 H         1 UNK         0.0787 
    103 H103       18.0335  -29.9615  -37.9402 H         1 UNK         0.0787 
    104 H104       19.3477  -28.8512  -37.5741 H         1 UNK         0.0787 
    105 H105       22.0100  -30.2597  -38.4368 H         1 UNK         0.3055 
    106 H106       21.6071  -32.7988  -37.0863 H         1 UNK         0.1106 
    107 H107       24.0722  -31.0042  -37.4043 H         1 UNK         0.0828 
    108 H108       22.9266  -30.9557  -36.0639 H         1 UNK         0.0828 
    109 H109       23.9328  -32.3723  -36.3073 H         1 UNK         0.0828 
    110 H110       21.0085  -33.4943  -39.5087 H         1 UNK         0.2931 
    111 H111       23.2325  -34.3117  -41.1610 H         1 UNK         0.0412 
    112 H112       22.6331  -37.4547  -38.7142 H         1 UNK         0.3472 
    113 H113       22.0374  -35.8600  -38.3242 H         1 UNK         0.3472 
    114 H114       20.2830  -35.0571  -41.3998 H         1 UNK         0.0970 
    115 H115       21.4980  -35.3218  -42.6274 H         1 UNK         0.0970 
    116 H116       18.5937  -33.2722  -42.0563 H         1 UNK         0.0612 
    117 H117       19.0463  -33.9722  -43.5967 H         1 UNK         0.0612 
@<TRIPOS>BOND
     1    1    2 1    
     2    1   62 1    
     3    1   63 1    
     4    1   64 1    
     5    2    3 2    
     6    2    4 am   BACKBONE|DICT|INTERRES
     7    4    5 1    
     8    4   65 1    
     9    5    6 1    
    10    5   25 1    
    11    5   66 1    
    12    6    7 1    
    13    6   67 1    
    14    6   68 1    
    15    7    8 1    
    16    8    9 1    
    17    8   69 1    
    18    8   70 1    
    19    9   10 ar   
    20    9   14 ar   
    21   10   11 ar   
    22   10   71 1    
    23   11   12 ar   
    24   11   61 1    
    25   12   13 ar   
    26   12   72 1    
    27   13   14 ar   
    28   13   15 1    
    29   14   73 1    
    30   15   16 1    
    31   15   74 1    
    32   15   75 1    
    33   16   17 1    
    34   17   18 1    
    35   17   76 1    
    36   17   77 1    
    37   18   19 1    
    38   18   27 1    
    39   18   78 1    
    40   19   20 am   BACKBONE|DICT|INTERRES
    41   19   79 1    
    42   20   21 2    
    43   20   22 1    
    44   22   23 1    
    45   22   24 1    
    46   22   80 1    
    47   23   81 1    
    48   23   82 1    
    49   23   83 1    
    50   24   25 am   BACKBONE|DICT|INTERRES
    51   24   84 1    
    52   25   26 2    
    53   27   28 2    
    54   27   29 am   BACKBONE|DICT|INTERRES
    55   29   30 1    
    56   29   85 1    
    57   30   31 1    
    58   30   32 1    
    59   30   86 1    
    60   31   87 1    
    61   31   88 1    
    62   31   89 1    
    63   32   33 2    
    64   32   34 am   BACKBONE|DICT|INTERRES
    65   34   35 1    
    66   34   90 1    
    67   35   36 1    
    68   35   37 1    
    69   35   91 1    
    70   36   92 1    
    71   36   93 1    
    72   36   94 1    
    73   37   38 2    
    74   37   39 am   BACKBONE|DICT|INTERRES
    75   39   40 1    
    76   39   95 1    
    77   40   41 1    
    78   40   42 1    
    79   40   96 1    
    80   41   97 1    
    81   41   98 1    
    82   41   99 1    
    83   42   43 2    
    84   42   44 am   BACKBONE|DICT|INTERRES
    85   44   45 1    
    86   44  100 1    
    87   45   46 1    
    88   45   47 1    
    89   45  101 1    
    90   46  102 1    
    91   46  103 1    
    92   46  104 1    
    93   47   48 2    
    94   47   49 am   BACKBONE|DICT|INTERRES
    95   49   50 1    
    96   49  105 1    
    97   50   51 1    
    98   50   52 1    
    99   50  106 1    
   100   51  107 1    
   101   51  108 1    
   102   51  109 1    
   103   52   53 2    
   104   52   54 am   BACKBONE|DICT|INTERRES
   105   54   55 1    
   106   54  110 1    
   107   55   56 1    
   108   55   59 1    
   109   55  111 1    
   110   56   57 am   BACKBONE|DICT|INTERRES
   111   56   58 2    
   112   57  112 1    
   113   57  113 1    
   114   59   60 1    
   115   59  114 1    
   116   59  115 1    
   117   60   61 1    
   118   61  116 1    
   119   61  117 1    
@<TRIPOS>SUBSTRUCTURE
     1 UNK         1 GROUP             0       ****    0 ROOT    
