@<TRIPOS>MOLECULE
3R8
117   119    1
SMALL
USER_CHARGES


@<TRIPOS>ATOM
      1 CA         15.1514  -22.7017  -44.7790 C.3       0 UNK        -0.2013 
      2 C          16.0870  -23.8854  -44.9707 C.2       0 UNK         0.4866 
      3 O          16.6021  -24.0904  -46.0711 O.2       0 UNK        -0.5176 
      4 N          16.3198  -24.6681  -43.9095 N.am      1 UNK        -0.4884 
      5 CA         17.1878  -25.8510  -43.9039 C.3       1 UNK         0.0853 
      6 C6         16.8013  -26.8488  -42.7823 C.3       10 UNK        -0.0849 
      7 S7         15.0978  -27.4938  -42.9194 S.3       10 UNK        -0.2776 
      8 C8         15.1483  -28.4832  -44.4543 C.3       10 UNK         0.0316 
      9 C9         16.3439  -29.4254  -44.5162 C.ar      10 UNK        -0.0863 
     10 C10        16.4170  -30.5298  -43.6625 C.ar      10 UNK        -0.1009 
     11 C11        17.5166  -31.3902  -43.7129 C.ar      10 UNK        -0.0712 
     12 C12        18.5451  -31.1413  -44.6267 C.ar      10 UNK        -0.0894 
     13 C13        18.4909  -30.0349  -45.4844 C.ar      10 UNK        -0.0745 
     14 C14        17.3785  -29.1902  -45.4284 C.ar      10 UNK        -0.0972 
     15 C15        19.5965  -29.7500  -46.5015 C.3       10 UNK         0.0209 
     16 S16        21.2679  -30.1440  -45.8865 S.3       10 UNK        -0.2568 
     17 C17        22.2446  -28.6690  -46.3596 C.3       10 UNK        -0.0983 
     18 CA         22.4573  -27.5688  -45.2753 C.3       3 UNK         0.0876 
     19 N          21.4697  -26.4861  -45.3683 N.am      3 UNK        -0.4424 
     20 C          21.6557  -25.2650  -44.8426 C.2       2 UNK         0.4918 
     21 O          22.6715  -24.9315  -44.2324 O.2       2 UNK        -0.4875 
     22 CA         20.5181  -24.2422  -45.0084 C.3       2 UNK         0.0481 
     23 CB         20.6546  -23.4988  -46.3462 C.3       2 UNK        -0.1831 
     24 N          19.1701  -24.8072  -44.9003 N.am      2 UNK        -0.4498 
     25 C          18.6752  -25.4440  -43.8301 C.2       1 UNK         0.5027 
     26 O          19.3357  -25.6885  -42.8194 O.2       1 UNK        -0.4969 
     27 C          22.5854  -28.1119  -43.8354 C.2       3 UNK         0.5005 
     28 O          23.6927  -28.4380  -43.4032 O.2       3 UNK        -0.5279 
     29 N          21.4575  -28.1733  -43.1090 N.am      4 UNK        -0.4463 
     30 CA         21.3393  -28.7457  -41.7648 C.3       4 UNK         0.0283 
     31 CB         19.8613  -28.8032  -41.3550 C.3       4 UNK        -0.1875 
     32 C          22.1682  -28.0151  -40.6976 C.2       4 UNK         0.4949 
     33 O          22.5091  -28.6278  -39.6882 O.2       4 UNK        -0.5039 
     34 N          22.5326  -26.7519  -40.9569 N.am      5 UNK        -0.4663 
     35 CA         23.4737  -25.9725  -40.1488 C.3       5 UNK         0.0242 
     36 CB         23.5071  -24.5285  -40.6740 C.3       5 UNK        -0.1982 
     37 C          24.8966  -26.5669  -40.1113 C.2       5 UNK         0.5017 
     38 O          25.6188  -26.3137  -39.1463 O.2       5 UNK        -0.5012 
     39 N          25.2669  -27.3414  -41.1417 N.am      6 UNK        -0.4439 
     40 CA         26.5367  -28.0613  -41.2380 C.3       6 UNK         0.0297 
     41 CB         27.2334  -27.6856  -42.5566 C.3       6 UNK        -0.2006 
     42 C          26.3272  -29.5814  -41.1571 C.2       6 UNK         0.4892 
     43 O          27.0865  -30.2556  -40.4608 O.2       6 UNK        -0.5089 
     44 N          25.3233  -30.0989  -41.8794 N.am      7 UNK        -0.4243 
     45 CA         25.0619  -31.5322  -42.0315 C.3       7 UNK         0.0196 
     46 CB         24.2130  -31.7505  -43.2962 C.3       7 UNK        -0.2007 
     47 C          24.3740  -32.1836  -40.8216 C.2       7 UNK         0.5020 
     48 O          24.4589  -33.4044  -40.6799 O.2       7 UNK        -0.5147 
     49 N          23.6530  -31.3900  -40.0122 N.am      8 UNK        -0.4734 
     50 CA         22.8393  -31.8040  -38.8543 C.3       8 UNK         0.0238 
     51 CB         23.7483  -32.3121  -37.7150 C.3       8 UNK        -0.1912 
     52 C          21.7118  -32.8065  -39.1893 C.2       8 UNK         0.5038 
     53 O          21.1986  -33.4642  -38.2823 O.2       8 UNK        -0.5046 
     54 N          21.3645  -32.9184  -40.4799 N.am      9 UNK        -0.4200 
     55 CA         20.4752  -33.9355  -41.0654 C.3       9 UNK         0.0839 
     56 C          20.9993  -35.3976  -40.9163 C.2       9 UNK         0.5513 
     57 N          22.2986  -35.6147  -40.7399 N.am      9 UNK        -0.7519 
     58 O          20.2295  -36.3520  -40.9932 O.2       9 UNK        -0.4960 
     59 C59        18.9862  -33.7591  -40.6496 C.3       10 UNK        -0.0876 
     60 S60        18.3303  -32.1432  -41.1851 S.3       10 UNK        -0.2414 
     61 C61        17.5966  -32.5935  -42.7874 C.3       10 UNK         0.0169 
     62 H62        14.3026  -22.7817  -45.4577 H         1 UNK         0.0903 
     63 H63        14.7671  -22.6461  -43.7607 H         1 UNK         0.0903 
     64 H64        15.6750  -21.7711  -44.9959 H         1 UNK         0.0903 
     65 H65        15.8794  -24.4504  -43.0264 H         1 UNK         0.3096 
     66 H66        17.0632  -26.3644  -44.8576 H         1 UNK         0.1121 
     67 H67        17.4852  -27.6983  -42.7686 H         1 UNK         0.0849 
     68 H68        16.9011  -26.3761  -41.8034 H         1 UNK         0.0849 
     69 H69        15.1407  -27.8086  -45.3118 H         1 UNK         0.0865 
     70 H70        14.2290  -29.0662  -44.5264 H         1 UNK         0.0865 
     71 H71        15.6219  -30.7137  -42.9526 H         1 UNK         0.1346 
     72 H72        19.3902  -31.8143  -44.6656 H         1 UNK         0.1412 
     73 H73        17.3167  -28.3481  -46.1037 H         1 UNK         0.1426 
     74 H74        19.5608  -28.7025  -46.8025 H         1 UNK         0.0716 
     75 H75        19.4072  -30.3360  -47.4016 H         1 UNK         0.0716 
     76 H76        21.8436  -28.2387  -47.2786 H         1 UNK         0.0695 
     77 H77        23.2256  -29.0540  -46.6434 H         1 UNK         0.0695 
     78 H78        23.4243  -27.1105  -45.4984 H         1 UNK         0.0983 
     79 H79        20.6128  -26.6799  -45.8638 H         1 UNK         0.3095 
     80 H80        20.6230  -23.5097  -44.2055 H         1 UNK         0.0454 
     81 H81        19.9223  -22.6956  -46.4305 H         1 UNK         0.0851 
     82 H82        20.5185  -24.1672  -47.1972 H         1 UNK         0.0851 
     83 H83        21.6421  -23.0450  -46.4424 H         1 UNK         0.0851 
     84 H84        18.5189  -24.5926  -45.6497 H         1 UNK         0.2976 
     85 H85        20.6041  -27.8337  -43.5277 H         1 UNK         0.3116 
     86 H86        21.7113  -29.7704  -41.8195 H         1 UNK         0.0646 
     87 H87        19.7421  -29.3334  -40.4092 H         1 UNK         0.0847 
     88 H88        19.2616  -29.3314  -42.0967 H         1 UNK         0.0847 
     89 H89        19.4391  -27.8073  -41.2218 H         1 UNK         0.0847 
     90 H90        22.1979  -26.3253  -41.8103 H         1 UNK         0.3040 
     91 H91        23.1006  -25.9599  -39.1223 H         1 UNK         0.1015 
     92 H92        22.5182  -24.0705  -40.6417 H         1 UNK         0.0786 
     93 H93        23.8647  -24.4825  -41.7036 H         1 UNK         0.0786 
     94 H94        24.1708  -23.9082  -40.0699 H         1 UNK         0.0786 
     95 H95        24.5963  -27.5071  -41.8860 H         1 UNK         0.3172 
     96 H96        27.2001  -27.7785  -40.4181 H         1 UNK         0.0595 
     97 H97        26.6210  -27.9317  -43.4252 H         1 UNK         0.0839 
     98 H98        28.1807  -28.2159  -42.6631 H         1 UNK         0.0839 
     99 H99        27.4537  -26.6187  -42.5957 H         1 UNK         0.0839 
    100 H100       24.7520  -29.4765  -42.4498 H         1 UNK         0.2998 
    101 H101       26.0178  -32.0414  -42.1731 H         1 UNK         0.0822 
    102 H102       23.2402  -31.2631  -43.2229 H         1 UNK         0.0787 
    103 H103       24.7133  -31.3584  -44.1820 H         1 UNK         0.0787 
    104 H104       24.0338  -32.8125  -43.4707 H         1 UNK         0.0787 
    105 H105       23.6349  -30.3949  -40.2045 H         1 UNK         0.3055 
    106 H106       22.3331  -30.9088  -38.4918 H         1 UNK         0.1106 
    107 H107       24.2333  -33.2540  -37.9731 H         1 UNK         0.0828 
    108 H108       24.5270  -31.5876  -37.4769 H         1 UNK         0.0828 
    109 H109       23.1770  -32.4814  -36.8014 H         1 UNK         0.0828 
    110 H110       21.8508  -32.3353  -41.1425 H         1 UNK         0.2931 
    111 H111       20.5216  -33.7580  -42.1405 H         1 UNK         0.0412 
    112 H112       22.9549  -34.8432  -40.6891 H         1 UNK         0.3472 
    113 H113       22.6320  -36.5619  -40.6553 H         1 UNK         0.3472 
    114 H114       18.3609  -34.5458  -41.0753 H         1 UNK         0.0970 
    115 H115       18.8750  -33.8446  -39.5679 H         1 UNK         0.0970 
    116 H116       16.6035  -33.0146  -42.6241 H         1 UNK         0.0612 
    117 H117       18.1909  -33.3781  -43.2585 H         1 UNK         0.0612 
@<TRIPOS>BOND
     1    1    2 1    
     2    1   62 1    
     3    1   63 1    
     4    1   64 1    
     5    2    3 2    
     6    2    4 am   BACKBONE|DICT|INTERRES
     7    4    5 1    
     8    4   65 1    
     9    5    6 1    
    10    5   25 1    
    11    5   66 1    
    12    6    7 1    
    13    6   67 1    
    14    6   68 1    
    15    7    8 1    
    16    8    9 1    
    17    8   69 1    
    18    8   70 1    
    19    9   10 ar   
    20    9   14 ar   
    21   10   11 ar   
    22   10   71 1    
    23   11   12 ar   
    24   11   61 1    
    25   12   13 ar   
    26   12   72 1    
    27   13   14 ar   
    28   13   15 1    
    29   14   73 1    
    30   15   16 1    
    31   15   74 1    
    32   15   75 1    
    33   16   17 1    
    34   17   18 1    
    35   17   76 1    
    36   17   77 1    
    37   18   19 1    
    38   18   27 1    
    39   18   78 1    
    40   19   20 am   BACKBONE|DICT|INTERRES
    41   19   79 1    
    42   20   21 2    
    43   20   22 1    
    44   22   23 1    
    45   22   24 1    
    46   22   80 1    
    47   23   81 1    
    48   23   82 1    
    49   23   83 1    
    50   24   25 am   BACKBONE|DICT|INTERRES
    51   24   84 1    
    52   25   26 2    
    53   27   28 2    
    54   27   29 am   BACKBONE|DICT|INTERRES
    55   29   30 1    
    56   29   85 1    
    57   30   31 1    
    58   30   32 1    
    59   30   86 1    
    60   31   87 1    
    61   31   88 1    
    62   31   89 1    
    63   32   33 2    
    64   32   34 am   BACKBONE|DICT|INTERRES
    65   34   35 1    
    66   34   90 1    
    67   35   36 1    
    68   35   37 1    
    69   35   91 1    
    70   36   92 1    
    71   36   93 1    
    72   36   94 1    
    73   37   38 2    
    74   37   39 am   BACKBONE|DICT|INTERRES
    75   39   40 1    
    76   39   95 1    
    77   40   41 1    
    78   40   42 1    
    79   40   96 1    
    80   41   97 1    
    81   41   98 1    
    82   41   99 1    
    83   42   43 2    
    84   42   44 am   BACKBONE|DICT|INTERRES
    85   44   45 1    
    86   44  100 1    
    87   45   46 1    
    88   45   47 1    
    89   45  101 1    
    90   46  102 1    
    91   46  103 1    
    92   46  104 1    
    93   47   48 2    
    94   47   49 am   BACKBONE|DICT|INTERRES
    95   49   50 1    
    96   49  105 1    
    97   50   51 1    
    98   50   52 1    
    99   50  106 1    
   100   51  107 1    
   101   51  108 1    
   102   51  109 1    
   103   52   53 2    
   104   52   54 am   BACKBONE|DICT|INTERRES
   105   54   55 1    
   106   54  110 1    
   107   55   56 1    
   108   55   59 1    
   109   55  111 1    
   110   56   57 am   BACKBONE|DICT|INTERRES
   111   56   58 2    
   112   57  112 1    
   113   57  113 1    
   114   59   60 1    
   115   59  114 1    
   116   59  115 1    
   117   60   61 1    
   118   61  116 1    
   119   61  117 1    
@<TRIPOS>SUBSTRUCTURE
     1 UNK         1 GROUP             0       ****    0 ROOT    
