@<TRIPOS>MOLECULE
3R8
117   119    1
SMALL
USER_CHARGES


@<TRIPOS>ATOM
      1 CA         22.0091  -23.2914  -40.3132 C.3       0 UNK        -0.2013 
      2 C          20.6178  -23.8446  -40.5820 C.2       0 UNK         0.4866 
      3 O          19.7792  -23.8638  -39.6813 O.2       0 UNK        -0.5176 
      4 N          20.3703  -24.3012  -41.8126 N.am      1 UNK        -0.4884 
      5 CA         19.0863  -24.8083  -42.2948 C.3       1 UNK         0.0853 
      6 C6         18.7518  -26.2336  -41.7626 C.3       10 UNK        -0.0849 
      7 S7         19.6486  -27.6043  -42.5759 S.3       10 UNK        -0.2776 
      8 C8         18.2645  -28.7179  -42.9760 C.3       10 UNK         0.0316 
      9 C9         18.7367  -29.8639  -43.8515 C.ar      10 UNK        -0.0863 
     10 C10        19.3403  -30.9837  -43.2772 C.ar      10 UNK        -0.1009 
     11 C11        19.8158  -32.0292  -44.0748 C.ar      10 UNK        -0.0712 
     12 C12        19.6964  -31.9314  -45.4648 C.ar      10 UNK        -0.0894 
     13 C13        19.0999  -30.8124  -46.0565 C.ar      10 UNK        -0.0745 
     14 C14        18.5958  -29.7949  -45.2388 C.ar      10 UNK        -0.0972 
     15 C15        19.0382  -30.7113  -47.5799 C.3       10 UNK         0.0209 
     16 S16        19.3338  -29.0333  -48.2477 S.3       10 UNK        -0.2568 
     17 C17        20.8923  -28.5349  -47.4287 C.3       10 UNK        -0.0983 
     18 CA         20.9586  -27.0132  -47.1199 C.3       3 UNK         0.0876 
     19 N          19.7741  -26.5219  -46.3968 N.am      3 UNK        -0.4424 
     20 C          18.9549  -25.5615  -46.8479 C.2       2 UNK         0.4918 
     21 O          19.0910  -24.9961  -47.9334 O.2       2 UNK        -0.4875 
     22 CA         17.7881  -25.1312  -45.9344 C.3       2 UNK         0.0481 
     23 CB         16.5257  -25.9394  -46.2760 C.3       2 UNK        -0.1831 
     24 N          18.0354  -25.2110  -44.4877 N.am      2 UNK        -0.4498 
     25 C          19.0665  -24.6594  -43.8307 C.2       1 UNK         0.5027 
     26 O          19.9983  -24.0753  -44.3932 O.2       1 UNK        -0.4969 
     27 C          22.2610  -26.6496  -46.3702 C.2       3 UNK         0.5005 
     28 O          23.3123  -27.2057  -46.6913 O.2       3 UNK        -0.5279 
     29 N          22.1790  -25.7473  -45.3756 N.am      4 UNK        -0.4463 
     30 CA         23.2592  -25.2829  -44.4901 C.3       4 UNK         0.0283 
     31 CB         24.3382  -24.5207  -45.2877 C.3       4 UNK        -0.1875 
     32 C          23.8631  -26.3775  -43.5828 C.2       4 UNK         0.4949 
     33 O          24.9569  -26.1881  -43.0501 O.2       4 UNK        -0.5039 
     34 N          23.1413  -27.4914  -43.3990 N.am      5 UNK        -0.4663 
     35 CA         23.5696  -28.6441  -42.6004 C.3       5 UNK         0.0242 
     36 CB         22.8757  -29.9035  -43.1437 C.3       5 UNK        -0.1982 
     37 C          23.2894  -28.4875  -41.0959 C.2       5 UNK         0.5017 
     38 O          23.7788  -29.3009  -40.3135 O.2       5 UNK        -0.5012 
     39 N          22.4805  -27.4849  -40.7172 N.am      6 UNK        -0.4439 
     40 CA         22.0384  -27.1685  -39.3506 C.3       6 UNK         0.0297 
     41 CB         23.2193  -26.6346  -38.5129 C.3       6 UNK        -0.2006 
     42 C          21.2963  -28.3325  -38.6611 C.2       6 UNK         0.4892 
     43 O          21.4241  -28.5100  -37.4490 O.2       6 UNK        -0.5089 
     44 N          20.5584  -29.1160  -39.4639 N.am      7 UNK        -0.4243 
     45 CA         19.8311  -30.3425  -39.1085 C.3       7 UNK         0.0196 
     46 CB         18.7205  -30.0511  -38.0775 C.3       7 UNK        -0.2007 
     47 C          20.7255  -31.5270  -38.6802 C.2       7 UNK         0.5020 
     48 O          20.1917  -32.5536  -38.2568 O.2       7 UNK        -0.5147 
     49 N          22.0546  -31.4112  -38.8163 N.am      8 UNK        -0.4734 
     50 CA         23.0239  -32.4518  -38.4643 C.3       8 UNK         0.0238 
     51 CB         24.3387  -31.7859  -38.0169 C.3       8 UNK        -0.1912 
     52 C          23.2193  -33.4313  -39.6350 C.2       8 UNK         0.5038 
     53 O          24.3153  -33.5214  -40.1917 O.2       8 UNK        -0.5046 
     54 N          22.1387  -34.1296  -40.0031 N.am      9 UNK        -0.4200 
     55 CA         22.0981  -35.0952  -41.1140 C.3       9 UNK         0.0839 
     56 C          22.8425  -36.4362  -40.8466 C.2       9 UNK         0.5513 
     57 N          23.2424  -36.7459  -39.6190 N.am      9 UNK        -0.7519 
     58 O          23.0629  -37.2092  -41.7753 O.2       9 UNK        -0.4960 
     59 C59        20.6501  -35.3632  -41.6070 C.3       10 UNK        -0.0876 
     60 S60        19.6813  -33.8562  -41.9547 S.3       10 UNK        -0.2414 
     61 C61        20.5121  -33.2373  -43.4553 C.3       10 UNK         0.0169 
     62 H62        22.3991  -23.6929  -39.3784 H         1 UNK         0.0903 
     63 H63        22.7098  -23.5472  -41.1078 H         1 UNK         0.0903 
     64 H64        21.9703  -22.2060  -40.2262 H         1 UNK         0.0903 
     65 H65        21.0437  -24.1660  -42.5558 H         1 UNK         0.3096 
     66 H66        18.3161  -24.1259  -41.9275 H         1 UNK         0.1121 
     67 H67        17.6779  -26.4039  -41.8509 H         1 UNK         0.0849 
     68 H68        18.9492  -26.2917  -40.6914 H         1 UNK         0.0849 
     69 H69        17.4735  -28.1636  -43.4831 H         1 UNK         0.0865 
     70 H70        17.8287  -29.1052  -42.0534 H         1 UNK         0.0865 
     71 H71        19.4598  -31.0329  -42.2064 H         1 UNK         0.1346 
     72 H72        20.0868  -32.7224  -46.0905 H         1 UNK         0.1412 
     73 H73        18.1274  -28.9307  -45.6871 H         1 UNK         0.1426 
     74 H74        18.0576  -31.0529  -47.9133 H         1 UNK         0.0716 
     75 H75        19.7696  -31.3834  -48.0315 H         1 UNK         0.0716 
     76 H76        21.7124  -28.8241  -48.0884 H         1 UNK         0.0695 
     77 H77        21.0361  -29.1064  -46.5115 H         1 UNK         0.0695 
     78 H78        21.0384  -26.5026  -48.0818 H         1 UNK         0.0983 
     79 H79        19.5885  -26.9400  -45.4968 H         1 UNK         0.3095 
     80 H80        17.5834  -24.0822  -46.1576 H         1 UNK         0.0454 
     81 H81        16.6389  -26.9941  -46.0244 H         1 UNK         0.0851 
     82 H82        16.3020  -25.8832  -47.3424 H         1 UNK         0.0851 
     83 H83        15.6526  -25.5584  -45.7462 H         1 UNK         0.0851 
     84 H84        17.3212  -25.6751  -43.9463 H         1 UNK         0.2976 
     85 H85        21.2811  -25.2981  -45.2169 H         1 UNK         0.3116 
     86 H86        22.7966  -24.5647  -43.8127 H         1 UNK         0.0646 
     87 H87        23.8971  -23.7387  -45.9056 H         1 UNK         0.0847 
     88 H88        24.9057  -25.1848  -45.9402 H         1 UNK         0.0847 
     89 H89        25.0524  -24.0373  -44.6200 H         1 UNK         0.0847 
     90 H90        22.2506  -27.5695  -43.8680 H         1 UNK         0.3040 
     91 H91        24.6483  -28.7746  -42.7135 H         1 UNK         0.1015 
     92 H92        23.1806  -30.7935  -42.5908 H         1 UNK         0.0786 
     93 H93        23.1221  -30.0735  -44.1921 H         1 UNK         0.0786 
     94 H94        21.7929  -29.8253  -43.0643 H         1 UNK         0.0786 
     95 H95        22.0962  -26.9077  -41.4518 H         1 UNK         0.3172 
     96 H96        21.3061  -26.3675  -39.4407 H         1 UNK         0.0595 
     97 H97        23.9533  -27.4149  -38.3085 H         1 UNK         0.0839 
     98 H98        22.8758  -26.2515  -37.5512 H         1 UNK         0.0839 
     99 H99        23.7326  -25.8191  -39.0217 H         1 UNK         0.0839 
    100 H100       20.5297  -28.8648  -40.4433 H         1 UNK         0.2998 
    101 H101       19.3344  -30.6690  -40.0208 H         1 UNK         0.0822 
    102 H102       18.0831  -29.2288  -38.4025 H         1 UNK         0.0787 
    103 H103       18.0777  -30.9212  -37.9387 H         1 UNK         0.0787 
    104 H104       19.1294  -29.7944  -37.1000 H         1 UNK         0.0787 
    105 H105       22.4393  -30.5622  -39.2165 H         1 UNK         0.3055 
    106 H106       22.6466  -33.0287  -37.6167 H         1 UNK         0.1106 
    107 H107       24.8052  -31.2217  -38.8248 H         1 UNK         0.0828 
    108 H108       25.0602  -32.5335  -37.6852 H         1 UNK         0.0828 
    109 H109       24.1739  -31.1021  -37.1840 H         1 UNK         0.0828 
    110 H110       21.2687  -33.9650  -39.5111 H         1 UNK         0.2931 
    111 H111       22.6358  -34.6341  -41.9442 H         1 UNK         0.0412 
    112 H112       23.7260  -37.6164  -39.4615 H         1 UNK         0.3472 
    113 H113       23.0648  -36.1207  -38.8495 H         1 UNK         0.3472 
    114 H114       20.6604  -35.9785  -42.5090 H         1 UNK         0.0970 
    115 H115       20.1018  -35.9395  -40.8594 H         1 UNK         0.0970 
    116 H116       20.5751  -34.0513  -44.1791 H         1 UNK         0.0612 
    117 H117       21.5353  -32.9530  -43.2077 H         1 UNK         0.0612 
@<TRIPOS>BOND
     1    1    2 1    
     2    1   62 1    
     3    1   63 1    
     4    1   64 1    
     5    2    3 2    
     6    2    4 am   BACKBONE|DICT|INTERRES
     7    4    5 1    
     8    4   65 1    
     9    5    6 1    
    10    5   25 1    
    11    5   66 1    
    12    6    7 1    
    13    6   67 1    
    14    6   68 1    
    15    7    8 1    
    16    8    9 1    
    17    8   69 1    
    18    8   70 1    
    19    9   10 ar   
    20    9   14 ar   
    21   10   11 ar   
    22   10   71 1    
    23   11   12 ar   
    24   11   61 1    
    25   12   13 ar   
    26   12   72 1    
    27   13   14 ar   
    28   13   15 1    
    29   14   73 1    
    30   15   16 1    
    31   15   74 1    
    32   15   75 1    
    33   16   17 1    
    34   17   18 1    
    35   17   76 1    
    36   17   77 1    
    37   18   19 1    
    38   18   27 1    
    39   18   78 1    
    40   19   20 am   BACKBONE|DICT|INTERRES
    41   19   79 1    
    42   20   21 2    
    43   20   22 1    
    44   22   23 1    
    45   22   24 1    
    46   22   80 1    
    47   23   81 1    
    48   23   82 1    
    49   23   83 1    
    50   24   25 am   BACKBONE|DICT|INTERRES
    51   24   84 1    
    52   25   26 2    
    53   27   28 2    
    54   27   29 am   BACKBONE|DICT|INTERRES
    55   29   30 1    
    56   29   85 1    
    57   30   31 1    
    58   30   32 1    
    59   30   86 1    
    60   31   87 1    
    61   31   88 1    
    62   31   89 1    
    63   32   33 2    
    64   32   34 am   BACKBONE|DICT|INTERRES
    65   34   35 1    
    66   34   90 1    
    67   35   36 1    
    68   35   37 1    
    69   35   91 1    
    70   36   92 1    
    71   36   93 1    
    72   36   94 1    
    73   37   38 2    
    74   37   39 am   BACKBONE|DICT|INTERRES
    75   39   40 1    
    76   39   95 1    
    77   40   41 1    
    78   40   42 1    
    79   40   96 1    
    80   41   97 1    
    81   41   98 1    
    82   41   99 1    
    83   42   43 2    
    84   42   44 am   BACKBONE|DICT|INTERRES
    85   44   45 1    
    86   44  100 1    
    87   45   46 1    
    88   45   47 1    
    89   45  101 1    
    90   46  102 1    
    91   46  103 1    
    92   46  104 1    
    93   47   48 2    
    94   47   49 am   BACKBONE|DICT|INTERRES
    95   49   50 1    
    96   49  105 1    
    97   50   51 1    
    98   50   52 1    
    99   50  106 1    
   100   51  107 1    
   101   51  108 1    
   102   51  109 1    
   103   52   53 2    
   104   52   54 am   BACKBONE|DICT|INTERRES
   105   54   55 1    
   106   54  110 1    
   107   55   56 1    
   108   55   59 1    
   109   55  111 1    
   110   56   57 am   BACKBONE|DICT|INTERRES
   111   56   58 2    
   112   57  112 1    
   113   57  113 1    
   114   59   60 1    
   115   59  114 1    
   116   59  115 1    
   117   60   61 1    
   118   61  116 1    
   119   61  117 1    
@<TRIPOS>SUBSTRUCTURE
     1 UNK         1 GROUP             0       ****    0 ROOT    
