@<TRIPOS>MOLECULE
3R8
117   119    1
SMALL
USER_CHARGES


@<TRIPOS>ATOM
      1 CA         15.1327  -22.6226  -43.2164 C.3       0 UNK        -0.2013 
      2 C          15.9566  -23.4935  -44.1531 C.2       0 UNK         0.4866 
      3 O          17.0937  -23.1444  -44.4700 O.2       0 UNK        -0.5176 
      4 N          15.3891  -24.6212  -44.6024 N.am      1 UNK        -0.4884 
      5 CA         16.0437  -25.5952  -45.4860 C.3       1 UNK         0.0853 
      6 C6         15.0123  -26.5980  -46.0637 C.3       10 UNK        -0.0849 
      7 S7         15.6190  -27.5023  -47.5292 S.3       10 UNK        -0.2776 
      8 C8         15.5524  -29.2459  -46.9795 C.3       10 UNK         0.0316 
      9 C9         16.8192  -29.7509  -46.2874 C.ar      10 UNK        -0.0863 
     10 C10        16.7177  -30.5835  -45.1663 C.ar      10 UNK        -0.1009 
     11 C11        17.8584  -31.1648  -44.6002 C.ar      10 UNK        -0.0712 
     12 C12        19.1134  -30.8951  -45.1539 C.ar      10 UNK        -0.0894 
     13 C13        19.2356  -30.0426  -46.2544 C.ar      10 UNK        -0.0745 
     14 C14        18.0858  -29.4816  -46.8194 C.ar      10 UNK        -0.0972 
     15 C15        20.5994  -29.7710  -46.8749 C.3       10 UNK         0.0209 
     16 S16        21.3728  -28.2582  -46.2169 S.3       10 UNK        -0.2568 
     17 C17        22.0537  -28.8350  -44.6256 C.3       10 UNK        -0.0983 
     18 CA         21.5241  -28.0425  -43.4031 C.3       3 UNK         0.0876 
     19 N          20.0580  -28.0975  -43.3302 N.am      3 UNK        -0.4424 
     20 C          19.2508  -27.2821  -42.6419 C.2       2 UNK         0.4918 
     21 O          19.6483  -26.3437  -41.9490 O.2       2 UNK        -0.4875 
     22 CA         17.7519  -27.6201  -42.6899 C.3       2 UNK         0.0481 
     23 CB         17.1522  -27.6577  -41.2733 C.3       2 UNK        -0.1831 
     24 N          16.9490  -26.7209  -43.5175 N.am      2 UNK        -0.4498 
     25 C          17.1947  -26.3383  -44.7802 C.2       1 UNK         0.5027 
     26 O          18.2392  -26.5539  -45.3928 O.2       1 UNK        -0.4969 
     27 C          22.2116  -28.4959  -42.0875 C.2       3 UNK         0.5005 
     28 O          23.1994  -29.2358  -42.1203 O.2       3 UNK        -0.5279 
     29 N          21.6848  -28.0573  -40.9365 N.am      4 UNK        -0.4463 
     30 CA         22.1750  -28.3908  -39.5968 C.3       4 UNK         0.0283 
     31 CB         21.1533  -27.9295  -38.5472 C.3       4 UNK        -0.1875 
     32 C          23.5657  -27.8056  -39.3053 C.2       4 UNK         0.4949 
     33 O          24.3495  -28.4389  -38.6004 O.2       4 UNK        -0.5039 
     34 N          23.8750  -26.6459  -39.9037 N.am      5 UNK        -0.4663 
     35 CA         25.1895  -25.9957  -39.8450 C.3       5 UNK         0.0242 
     36 CB         25.0826  -24.5874  -40.4517 C.3       5 UNK        -0.1982 
     37 C          26.3052  -26.7987  -40.5415 C.2       5 UNK         0.5017 
     38 O          27.4699  -26.6574  -40.1690 O.2       5 UNK        -0.5012 
     39 N          25.9279  -27.6375  -41.5165 N.am      6 UNK        -0.4439 
     40 CA         26.8103  -28.5790  -42.2092 C.3       6 UNK         0.0297 
     41 CB         26.3669  -28.6744  -43.6799 C.3       6 UNK        -0.2006 
     42 C          26.8079  -29.9746  -41.5541 C.2       6 UNK         0.4892 
     43 O          27.4852  -30.8675  -42.0642 O.2       6 UNK        -0.5089 
     44 N          26.0319  -30.1504  -40.4704 N.am      7 UNK        -0.4243 
     45 CA         25.7493  -31.4049  -39.7611 C.3       7 UNK         0.0196 
     46 CB         27.0260  -31.9776  -39.1092 C.3       7 UNK        -0.2007 
     47 C          24.9998  -32.4410  -40.6245 C.2       7 UNK         0.5020 
     48 O          25.0786  -33.6379  -40.3454 O.2       7 UNK        -0.5147 
     49 N          24.2684  -31.9692  -41.6435 N.am      8 UNK        -0.4734 
     50 CA         23.5081  -32.7929  -42.5882 C.3       8 UNK         0.0238 
     51 CB         23.8180  -32.3081  -44.0153 C.3       8 UNK        -0.1912 
     52 C          21.9963  -32.7783  -42.2971 C.2       8 UNK         0.5038 
     53 O          21.2350  -33.3896  -43.0471 O.2       8 UNK        -0.5046 
     54 N          21.5861  -32.0904  -41.2255 N.am      9 UNK        -0.4200 
     55 CA         20.2000  -31.9756  -40.7523 C.3       9 UNK         0.0839 
     56 C          20.1142  -31.8197  -39.2059 C.2       9 UNK         0.5513 
     57 N          21.1227  -32.2392  -38.4493 N.am      9 UNK        -0.7519 
     58 O          19.1307  -31.3110  -38.6762 O.2       9 UNK        -0.4960 
     59 C59        19.4187  -30.8893  -41.5425 C.3       10 UNK        -0.0876 
     60 S60        17.6660  -31.3128  -41.8177 S.3       10 UNK        -0.2414 
     61 C61        17.7259  -32.1416  -43.4378 C.3       10 UNK         0.0169 
     62 H62        14.9996  -21.6304  -43.6468 H         1 UNK         0.0903 
     63 H63        14.1458  -23.0446  -43.0272 H         1 UNK         0.0903 
     64 H64        15.6434  -22.5132  -42.2600 H         1 UNK         0.0903 
     65 H65        14.4440  -24.8428  -44.3208 H         1 UNK         0.3096 
     66 H66        16.4807  -25.0354  -46.3166 H         1 UNK         0.1121 
     67 H67        14.1197  -26.0589  -46.3857 H         1 UNK         0.0849 
     68 H68        14.6711  -27.2967  -45.2973 H         1 UNK         0.0849 
     69 H69        14.6751  -29.3961  -46.3485 H         1 UNK         0.0865 
     70 H70        15.3909  -29.8677  -47.8611 H         1 UNK         0.0865 
     71 H71        15.7449  -30.8169  -44.7551 H         1 UNK         0.1346 
     72 H72        19.9931  -31.3719  -44.7433 H         1 UNK         0.1412 
     73 H73        18.1777  -28.8469  -47.6902 H         1 UNK         0.1426 
     74 H74        21.2666  -30.6223  -46.7300 H         1 UNK         0.0716 
     75 H75        20.4902  -29.6597  -47.9548 H         1 UNK         0.0716 
     76 H76        23.1390  -28.7485  -44.6979 H         1 UNK         0.0695 
     77 H77        21.8389  -29.8962  -44.5025 H         1 UNK         0.0695 
     78 H78        21.8046  -26.9965  -43.5438 H         1 UNK         0.0983 
     79 H79        19.6246  -28.7843  -43.9322 H         1 UNK         0.3095 
     80 H80        17.6433  -28.6156  -43.1213 H         1 UNK         0.0454 
     81 H81        17.1308  -26.6671  -40.8173 H         1 UNK         0.0851 
     82 H82        16.1339  -28.0464  -41.2834 H         1 UNK         0.0851 
     83 H83        17.7325  -28.3041  -40.6141 H         1 UNK         0.0851 
     84 H84        16.0702  -26.4280  -43.1176 H         1 UNK         0.2976 
     85 H85        20.9017  -27.4116  -41.0008 H         1 UNK         0.3116 
     86 H86        22.2596  -29.4772  -39.5320 H         1 UNK         0.0646 
     87 H87        20.1871  -28.4125  -38.6956 H         1 UNK         0.0847 
     88 H88        21.4877  -28.1834  -37.5403 H         1 UNK         0.0847 
     89 H89        20.9986  -26.8503  -38.5781 H         1 UNK         0.0847 
     90 H90        23.1643  -26.1904  -40.4583 H         1 UNK         0.3040 
     91 H91        25.4696  -25.8982  -38.7935 H         1 UNK         0.1015 
     92 H92        24.7879  -24.6198  -41.5014 H         1 UNK         0.0786 
     93 H93        26.0396  -24.0659  -40.3982 H         1 UNK         0.0786 
     94 H94        24.3546  -23.9780  -39.9158 H         1 UNK         0.0786 
     95 H95        24.9425  -27.7114  -41.7332 H         1 UNK         0.3172 
     96 H96        27.8370  -28.2081  -42.1873 H         1 UNK         0.0595 
     97 H97        25.3726  -29.1114  -43.7742 H         1 UNK         0.0839 
     98 H98        27.0503  -29.3010  -44.2546 H         1 UNK         0.0839 
     99 H99        26.3515  -27.6943  -44.1567 H         1 UNK         0.0839 
    100 H100       25.5360  -29.3440  -40.1091 H         1 UNK         0.2998 
    101 H101       25.0634  -31.1418  -38.9545 H         1 UNK         0.0822 
    102 H102       26.7878  -32.8141  -38.4510 H         1 UNK         0.0787 
    103 H103       27.7335  -32.3437  -39.8537 H         1 UNK         0.0787 
    104 H104       27.5332  -31.2263  -38.5040 H         1 UNK         0.0787 
    105 H105       24.2130  -30.9645  -41.7882 H         1 UNK         0.3055 
    106 H106       23.8211  -33.8369  -42.5173 H         1 UNK         0.1106 
    107 H107       24.8652  -32.4794  -44.2649 H         1 UNK         0.0828 
    108 H108       23.2197  -32.8365  -44.7588 H         1 UNK         0.0828 
    109 H109       23.6262  -31.2432  -44.1303 H         1 UNK         0.0828 
    110 H110       22.2811  -31.6091  -40.6745 H         1 UNK         0.2931 
    111 H111       19.7281  -32.9406  -40.9468 H         1 UNK         0.0412 
    112 H112       21.0543  -32.1326  -37.4490 H         1 UNK         0.3472 
    113 H113       21.9025  -32.7384  -38.8453 H         1 UNK         0.3472 
    114 H114       19.4731  -29.9282  -41.0310 H         1 UNK         0.0970 
    115 H115       19.8807  -30.7237  -42.5127 H         1 UNK         0.0970 
    116 H116       18.5447  -32.8627  -43.4465 H         1 UNK         0.0612 
    117 H117       16.8124  -32.7254  -43.5596 H         1 UNK         0.0612 
@<TRIPOS>BOND
     1    1    2 1    
     2    1   62 1    
     3    1   63 1    
     4    1   64 1    
     5    2    3 2    
     6    2    4 am   BACKBONE|DICT|INTERRES
     7    4    5 1    
     8    4   65 1    
     9    5    6 1    
    10    5   25 1    
    11    5   66 1    
    12    6    7 1    
    13    6   67 1    
    14    6   68 1    
    15    7    8 1    
    16    8    9 1    
    17    8   69 1    
    18    8   70 1    
    19    9   10 ar   
    20    9   14 ar   
    21   10   11 ar   
    22   10   71 1    
    23   11   12 ar   
    24   11   61 1    
    25   12   13 ar   
    26   12   72 1    
    27   13   14 ar   
    28   13   15 1    
    29   14   73 1    
    30   15   16 1    
    31   15   74 1    
    32   15   75 1    
    33   16   17 1    
    34   17   18 1    
    35   17   76 1    
    36   17   77 1    
    37   18   19 1    
    38   18   27 1    
    39   18   78 1    
    40   19   20 am   BACKBONE|DICT|INTERRES
    41   19   79 1    
    42   20   21 2    
    43   20   22 1    
    44   22   23 1    
    45   22   24 1    
    46   22   80 1    
    47   23   81 1    
    48   23   82 1    
    49   23   83 1    
    50   24   25 am   BACKBONE|DICT|INTERRES
    51   24   84 1    
    52   25   26 2    
    53   27   28 2    
    54   27   29 am   BACKBONE|DICT|INTERRES
    55   29   30 1    
    56   29   85 1    
    57   30   31 1    
    58   30   32 1    
    59   30   86 1    
    60   31   87 1    
    61   31   88 1    
    62   31   89 1    
    63   32   33 2    
    64   32   34 am   BACKBONE|DICT|INTERRES
    65   34   35 1    
    66   34   90 1    
    67   35   36 1    
    68   35   37 1    
    69   35   91 1    
    70   36   92 1    
    71   36   93 1    
    72   36   94 1    
    73   37   38 2    
    74   37   39 am   BACKBONE|DICT|INTERRES
    75   39   40 1    
    76   39   95 1    
    77   40   41 1    
    78   40   42 1    
    79   40   96 1    
    80   41   97 1    
    81   41   98 1    
    82   41   99 1    
    83   42   43 2    
    84   42   44 am   BACKBONE|DICT|INTERRES
    85   44   45 1    
    86   44  100 1    
    87   45   46 1    
    88   45   47 1    
    89   45  101 1    
    90   46  102 1    
    91   46  103 1    
    92   46  104 1    
    93   47   48 2    
    94   47   49 am   BACKBONE|DICT|INTERRES
    95   49   50 1    
    96   49  105 1    
    97   50   51 1    
    98   50   52 1    
    99   50  106 1    
   100   51  107 1    
   101   51  108 1    
   102   51  109 1    
   103   52   53 2    
   104   52   54 am   BACKBONE|DICT|INTERRES
   105   54   55 1    
   106   54  110 1    
   107   55   56 1    
   108   55   59 1    
   109   55  111 1    
   110   56   57 am   BACKBONE|DICT|INTERRES
   111   56   58 2    
   112   57  112 1    
   113   57  113 1    
   114   59   60 1    
   115   59  114 1    
   116   59  115 1    
   117   60   61 1    
   118   61  116 1    
   119   61  117 1    
@<TRIPOS>SUBSTRUCTURE
     1 UNK         1 GROUP             0       ****    0 ROOT    
