@<TRIPOS>MOLECULE
3R8
117   119    1
SMALL
USER_CHARGES


@<TRIPOS>ATOM
      1 CA         15.9544  -24.7805  -40.3544 C.3       0 UNK        -0.2013 
      2 C          16.2238  -24.7713  -41.8518 C.2       0 UNK         0.4866 
      3 O          16.0913  -23.7274  -42.4917 O.2       0 UNK        -0.5176 
      4 N          16.5926  -25.9285  -42.4160 N.am      1 UNK        -0.4884 
      5 CA         16.9679  -26.0883  -43.8252 C.3       1 UNK         0.0853 
      6 C6         16.9317  -27.5794  -44.2404 C.3       10 UNK        -0.0849 
      7 S7         16.5796  -27.8051  -46.0106 S.3       10 UNK        -0.2776 
      8 C8         16.4361  -29.6225  -46.0849 C.3       10 UNK         0.0316 
      9 C9         17.7230  -30.3414  -45.6896 C.ar      10 UNK        -0.0863 
     10 C10        17.6948  -31.3703  -44.7426 C.ar      10 UNK        -0.1009 
     11 C11        18.8590  -32.0779  -44.4273 C.ar      10 UNK        -0.0712 
     12 C12        20.0622  -31.7249  -45.0472 C.ar      10 UNK        -0.0894 
     13 C13        20.1186  -30.6806  -45.9751 C.ar      10 UNK        -0.0745 
     14 C14        18.9341  -30.0086  -46.3037 C.ar      10 UNK        -0.0972 
     15 C15        21.4595  -30.3582  -46.6397 C.3       10 UNK         0.0209 
     16 S16        21.5610  -28.7006  -47.4038 S.3       10 UNK        -0.2568 
     17 C17        22.8543  -27.8689  -46.4173 C.3       10 UNK        -0.0983 
     18 CA         22.3451  -27.0775  -45.1802 C.3       3 UNK         0.0876 
     19 N          21.1554  -26.2733  -45.4728 N.am      3 UNK        -0.4424 
     20 C          21.1196  -24.9378  -45.5297 C.2       2 UNK         0.4918 
     21 O          22.1004  -24.2144  -45.3535 O.2       2 UNK        -0.4875 
     22 CA         19.7537  -24.2851  -45.8198 C.3       2 UNK         0.0481 
     23 CB         19.6127  -24.0068  -47.3249 C.3       2 UNK        -0.1831 
     24 N          18.5748  -25.0320  -45.3572 N.am      2 UNK        -0.4498 
     25 C          18.3480  -25.4525  -44.1042 C.2       1 UNK         0.5027 
     26 O          19.1865  -25.3899  -43.2010 O.2       1 UNK        -0.4969 
     27 C          22.1602  -27.9554  -43.9253 C.2       3 UNK         0.5005 
     28 O          23.0155  -28.8043  -43.6633 O.2       3 UNK        -0.5279 
     29 N          21.1039  -27.7223  -43.1253 N.am      4 UNK        -0.4463 
     30 CA         20.8352  -28.4795  -41.8947 C.3       4 UNK         0.0283 
     31 CB         19.4583  -28.1181  -41.3159 C.3       4 UNK        -0.1875 
     32 C          21.9116  -28.3048  -40.8144 C.2       4 UNK         0.4949 
     33 O          22.1538  -29.2438  -40.0596 O.2       4 UNK        -0.5039 
     34 N          22.5537  -27.1302  -40.7732 N.am      5 UNK        -0.4663 
     35 CA         23.6704  -26.8356  -39.8717 C.3       5 UNK         0.0242 
     36 CB         23.9200  -25.3190  -39.8557 C.3       5 UNK        -0.1982 
     37 C          24.9606  -27.5901  -40.2409 C.2       5 UNK         0.5017 
     38 O          25.7594  -27.8822  -39.3510 O.2       5 UNK        -0.5012 
     39 N          25.1400  -27.8894  -41.5352 N.am      6 UNK        -0.4439 
     40 CA         26.2797  -28.6392  -42.0635 C.3       6 UNK         0.0297 
     41 CB         26.5405  -28.2236  -43.5214 C.3       6 UNK        -0.2006 
     42 C          26.0467  -30.1530  -41.9620 C.2       6 UNK         0.4892 
     43 O          26.9491  -30.8794  -41.5450 O.2       6 UNK        -0.5089 
     44 N          24.8406  -30.5970  -42.3404 N.am      7 UNK        -0.4243 
     45 CA         24.4304  -32.0028  -42.3368 C.3       7 UNK         0.0196 
     46 CB         23.2548  -32.1620  -43.3099 C.3       7 UNK        -0.2007 
     47 C          24.0572  -32.5465  -40.9448 C.2       7 UNK         0.5020 
     48 O          23.9478  -33.7636  -40.7955 O.2       7 UNK        -0.5147 
     49 N          23.8582  -31.6500  -39.9670 N.am      8 UNK        -0.4734 
     50 CA         23.3849  -31.9037  -38.5991 C.3       8 UNK         0.0238 
     51 CB         24.3701  -32.7954  -37.8124 C.3       8 UNK        -0.1912 
     52 C          21.9306  -32.4165  -38.5661 C.2       8 UNK         0.5038 
     53 O          21.6022  -33.2975  -37.7688 O.2       8 UNK        -0.5046 
     54 N          21.0887  -31.8386  -39.4318 N.am      9 UNK        -0.4200 
     55 CA         19.6427  -32.1019  -39.5194 C.3       9 UNK         0.0839 
     56 C          18.7967  -31.2130  -38.5639 C.2       9 UNK         0.5513 
     57 N          19.3653  -30.2062  -37.9099 N.am      9 UNK        -0.7519 
     58 O          17.6016  -31.4478  -38.4070 O.2       9 UNK        -0.4960 
     59 C59        19.1172  -32.0068  -40.9777 C.3       10 UNK        -0.0876 
     60 S60        19.9715  -33.1641  -42.0959 S.3       10 UNK        -0.2414 
     61 C61        18.8001  -33.2770  -43.4861 C.3       10 UNK         0.0169 
     62 H62        16.1039  -25.7679  -39.9181 H         1 UNK         0.0903 
     63 H63        16.6224  -24.0830  -39.8497 H         1 UNK         0.0903 
     64 H64        14.9279  -24.4738  -40.1556 H         1 UNK         0.0903 
     65 H65        16.7042  -26.7456  -41.8340 H         1 UNK         0.3096 
     66 H66        16.2234  -25.5431  -44.4109 H         1 UNK         0.1121 
     67 H67        17.8659  -28.0890  -44.0022 H         1 UNK         0.0849 
     68 H68        16.1498  -28.1067  -43.6908 H         1 UNK         0.0849 
     69 H69        15.6044  -29.9364  -45.4522 H         1 UNK         0.0865 
     70 H70        16.1723  -29.9127  -47.1027 H         1 UNK         0.0865 
     71 H71        16.7579  -31.6478  -44.2789 H         1 UNK         0.1346 
     72 H72        20.9564  -32.2870  -44.8208 H         1 UNK         0.1412 
     73 H73        18.9370  -29.2269  -47.0496 H         1 UNK         0.1426 
     74 H74        21.6447  -31.1024  -47.4151 H         1 UNK         0.0716 
     75 H75        22.2620  -30.4708  -45.9100 H         1 UNK         0.0716 
     76 H76        23.6392  -28.5806  -46.1546 H         1 UNK         0.0695 
     77 H77        23.3387  -27.1627  -47.0930 H         1 UNK         0.0695 
     78 H78        23.1606  -26.4103  -44.8933 H         1 UNK         0.0983 
     79 H79        20.3103  -26.7902  -45.6686 H         1 UNK         0.3095 
     80 H80        19.7430  -23.3264  -45.2976 H         1 UNK         0.0454 
     81 H81        20.4594  -23.4282  -47.6973 H         1 UNK         0.0851 
     82 H82        19.5708  -24.9306  -47.9035 H         1 UNK         0.0851 
     83 H83        18.7124  -23.4318  -47.5420 H         1 UNK         0.0851 
     84 H84        17.8462  -25.1760  -46.0428 H         1 UNK         0.2976 
     85 H85        20.4830  -26.9462  -43.3317 H         1 UNK         0.3116 
     86 H86        20.8267  -29.5372  -42.1648 H         1 UNK         0.0646 
     87 H87        19.2954  -28.6079  -40.3552 H         1 UNK         0.0847 
     88 H88        18.6535  -28.4442  -41.9695 H         1 UNK         0.0847 
     89 H89        19.3559  -27.0460  -41.1470 H         1 UNK         0.0847 
     90 H90        22.2710  -26.4030  -41.4144 H         1 UNK         0.3040 
     91 H91        23.3871  -27.1481  -38.8637 H         1 UNK         0.1015 
     92 H92        23.0362  -24.7749  -39.5219 H         1 UNK         0.0786 
     93 H93        24.1948  -24.9428  -40.8420 H         1 UNK         0.0786 
     94 H94        24.7317  -25.0648  -39.1723 H         1 UNK         0.0786 
     95 H95        24.4005  -27.6650  -42.1862 H         1 UNK         0.3172 
     96 H96        27.1712  -28.3939  -41.4819 H         1 UNK         0.0595 
     97 H97        27.4007  -28.7567  -43.9287 H         1 UNK         0.0839 
     98 H98        26.7565  -27.1578  -43.5967 H         1 UNK         0.0839 
     99 H99        25.6894  -28.4393  -44.1684 H         1 UNK         0.0839 
    100 H100       24.1688  -29.9319  -42.7188 H         1 UNK         0.2998 
    101 H101       25.2613  -32.6078  -42.7061 H         1 UNK         0.0822 
    102 H102       23.5409  -31.8802  -44.3231 H         1 UNK         0.0787 
    103 H103       22.9082  -33.1957  -43.3450 H         1 UNK         0.0787 
    104 H104       22.4092  -31.5397  -43.0142 H         1 UNK         0.0787 
    105 H105       23.9183  -30.6721  -40.2212 H         1 UNK         0.3055 
    106 H106       23.3650  -30.9311  -38.1045 H         1 UNK         0.1106 
    107 H107       24.3889  -33.8171  -38.1920 H         1 UNK         0.0828 
    108 H108       25.3851  -32.4008  -37.8576 H         1 UNK         0.0828 
    109 H109       24.0903  -32.8485  -36.7596 H         1 UNK         0.0828 
    110 H110       21.4443  -31.0694  -39.9884 H         1 UNK         0.2931 
    111 H111       19.4690  -33.1283  -39.1906 H         1 UNK         0.0412 
    112 H112       20.3432  -29.9994  -38.0387 H         1 UNK         0.3472 
    113 H113       18.8069  -29.6442  -37.2869 H         1 UNK         0.3472 
    114 H114       18.0492  -32.2315  -41.0064 H         1 UNK         0.0970 
    115 H115       19.2233  -30.9968  -41.3704 H         1 UNK         0.0970 
    116 H116       19.0388  -34.1728  -44.0607 H         1 UNK         0.0612 
    117 H117       17.7914  -33.4262  -43.0981 H         1 UNK         0.0612 
@<TRIPOS>BOND
     1    1    2 1    
     2    1   62 1    
     3    1   63 1    
     4    1   64 1    
     5    2    3 2    
     6    2    4 am   BACKBONE|DICT|INTERRES
     7    4    5 1    
     8    4   65 1    
     9    5    6 1    
    10    5   25 1    
    11    5   66 1    
    12    6    7 1    
    13    6   67 1    
    14    6   68 1    
    15    7    8 1    
    16    8    9 1    
    17    8   69 1    
    18    8   70 1    
    19    9   10 ar   
    20    9   14 ar   
    21   10   11 ar   
    22   10   71 1    
    23   11   12 ar   
    24   11   61 1    
    25   12   13 ar   
    26   12   72 1    
    27   13   14 ar   
    28   13   15 1    
    29   14   73 1    
    30   15   16 1    
    31   15   74 1    
    32   15   75 1    
    33   16   17 1    
    34   17   18 1    
    35   17   76 1    
    36   17   77 1    
    37   18   19 1    
    38   18   27 1    
    39   18   78 1    
    40   19   20 am   BACKBONE|DICT|INTERRES
    41   19   79 1    
    42   20   21 2    
    43   20   22 1    
    44   22   23 1    
    45   22   24 1    
    46   22   80 1    
    47   23   81 1    
    48   23   82 1    
    49   23   83 1    
    50   24   25 am   BACKBONE|DICT|INTERRES
    51   24   84 1    
    52   25   26 2    
    53   27   28 2    
    54   27   29 am   BACKBONE|DICT|INTERRES
    55   29   30 1    
    56   29   85 1    
    57   30   31 1    
    58   30   32 1    
    59   30   86 1    
    60   31   87 1    
    61   31   88 1    
    62   31   89 1    
    63   32   33 2    
    64   32   34 am   BACKBONE|DICT|INTERRES
    65   34   35 1    
    66   34   90 1    
    67   35   36 1    
    68   35   37 1    
    69   35   91 1    
    70   36   92 1    
    71   36   93 1    
    72   36   94 1    
    73   37   38 2    
    74   37   39 am   BACKBONE|DICT|INTERRES
    75   39   40 1    
    76   39   95 1    
    77   40   41 1    
    78   40   42 1    
    79   40   96 1    
    80   41   97 1    
    81   41   98 1    
    82   41   99 1    
    83   42   43 2    
    84   42   44 am   BACKBONE|DICT|INTERRES
    85   44   45 1    
    86   44  100 1    
    87   45   46 1    
    88   45   47 1    
    89   45  101 1    
    90   46  102 1    
    91   46  103 1    
    92   46  104 1    
    93   47   48 2    
    94   47   49 am   BACKBONE|DICT|INTERRES
    95   49   50 1    
    96   49  105 1    
    97   50   51 1    
    98   50   52 1    
    99   50  106 1    
   100   51  107 1    
   101   51  108 1    
   102   51  109 1    
   103   52   53 2    
   104   52   54 am   BACKBONE|DICT|INTERRES
   105   54   55 1    
   106   54  110 1    
   107   55   56 1    
   108   55   59 1    
   109   55  111 1    
   110   56   57 am   BACKBONE|DICT|INTERRES
   111   56   58 2    
   112   57  112 1    
   113   57  113 1    
   114   59   60 1    
   115   59  114 1    
   116   59  115 1    
   117   60   61 1    
   118   61  116 1    
   119   61  117 1    
@<TRIPOS>SUBSTRUCTURE
     1 UNK         1 GROUP             0       ****    0 ROOT    
