@<TRIPOS>MOLECULE
3R8
117   119    1
SMALL
USER_CHARGES


@<TRIPOS>ATOM
      1 CA         17.7813  -27.8014  -40.6684 C.3       0 UNK        -0.2013 
      2 C          17.3215  -26.6990  -41.6083 C.2       0 UNK         0.4866 
      3 O          17.0184  -25.5948  -41.1541 O.2       0 UNK        -0.5176 
      4 N          17.2499  -26.9989  -42.9107 N.am      1 UNK        -0.4884 
      5 CA         16.8164  -26.0698  -43.9620 C.3       1 UNK         0.0853 
      6 C6         16.0909  -26.7939  -45.1330 C.3       10 UNK        -0.0849 
      7 S7         14.8199  -27.9825  -44.5701 S.3       10 UNK        -0.2776 
      8 C8         15.2640  -29.5031  -45.4764 C.3       10 UNK         0.0316 
      9 C9         16.7135  -29.9237  -45.2639 C.ar      10 UNK        -0.0863 
     10 C10        17.1472  -30.3759  -44.0144 C.ar      10 UNK        -0.1009 
     11 C11        18.4761  -30.7691  -43.8234 C.ar      10 UNK        -0.0712 
     12 C12        19.3738  -30.7053  -44.8955 C.ar      10 UNK        -0.0894 
     13 C13        18.9517  -30.2522  -46.1498 C.ar      10 UNK        -0.0745 
     14 C14        17.6192  -29.8716  -46.3279 C.ar      10 UNK        -0.0972 
     15 C15        19.9203  -30.1974  -47.3245 C.3       10 UNK         0.0209 
     16 S16        20.2525  -28.4905  -47.8714 S.3       10 UNK        -0.2568 
     17 C17        21.3068  -27.8940  -46.5127 C.3       10 UNK        -0.0983 
     18 CA         21.5536  -26.3646  -46.5606 C.3       3 UNK         0.0876 
     19 N          20.2995  -25.6065  -46.5191 N.am      3 UNK        -0.4424 
     20 C          20.1838  -24.2725  -46.5790 C.2       2 UNK         0.4918 
     21 O          21.1221  -23.5170  -46.8337 O.2       2 UNK        -0.4875 
     22 CA         18.7974  -23.6637  -46.2778 C.3       2 UNK         0.0481 
     23 CB         18.1644  -23.1207  -47.5694 C.3       2 UNK        -0.1831 
     24 N          17.8324  -24.5540  -45.6138 N.am      2 UNK        -0.4498 
     25 C          18.0034  -25.2051  -44.4513 C.2       1 UNK         0.5027 
     26 O          19.0563  -25.1649  -43.8069 O.2       1 UNK        -0.4969 
     27 C          22.5135  -25.9766  -45.4152 C.2       3 UNK         0.5005 
     28 O          23.7265  -25.9633  -45.6295 O.2       3 UNK        -0.5279 
     29 N          21.9528  -25.6992  -44.2230 N.am      4 UNK        -0.4463 
     30 CA         22.6428  -25.3830  -42.9627 C.3       4 UNK         0.0283 
     31 CB         23.3314  -24.0055  -43.0527 C.3       4 UNK        -0.1875 
     32 C          23.6046  -26.4913  -42.4801 C.2       4 UNK         0.4949 
     33 O          24.5471  -26.2124  -41.7362 O.2       4 UNK        -0.5039 
     34 N          23.3527  -27.7367  -42.9027 N.am      5 UNK        -0.4663 
     35 CA         24.1862  -28.9121  -42.6544 C.3       5 UNK         0.0242 
     36 CB         23.9296  -29.9365  -43.7769 C.3       5 UNK        -0.1982 
     37 C          23.9281  -29.4967  -41.2568 C.2       5 UNK         0.5017 
     38 O          23.4958  -30.6428  -41.1467 O.2       5 UNK        -0.5012 
     39 N          24.1861  -28.6993  -40.2113 N.am      6 UNK        -0.4439 
     40 CA         23.8893  -28.9873  -38.8004 C.3       6 UNK         0.0297 
     41 CB         24.4289  -27.8449  -37.9259 C.3       6 UNK        -0.2006 
     42 C          24.3940  -30.3462  -38.2780 C.2       6 UNK         0.4892 
     43 O          23.7196  -30.9578  -37.4496 O.2       6 UNK        -0.5089 
     44 N          25.5398  -30.8114  -38.7951 N.am      7 UNK        -0.4243 
     45 CA         26.1155  -32.1268  -38.5000 C.3       7 UNK         0.0196 
     46 CB         27.5426  -32.1894  -39.0681 C.3       7 UNK        -0.2007 
     47 C          25.2761  -33.3075  -39.0273 C.2       7 UNK         0.5020 
     48 O          25.3484  -34.3938  -38.4519 O.2       7 UNK        -0.5147 
     49 N          24.5058  -33.0850  -40.1002 N.am      8 UNK        -0.4734 
     50 CA         23.5811  -34.0585  -40.6817 C.3       8 UNK         0.0238 
     51 CB         23.6268  -33.9559  -42.2160 C.3       8 UNK        -0.1912 
     52 C          22.1509  -33.8334  -40.1709 C.2       8 UNK         0.5038 
     53 O          21.4633  -34.8099  -39.8692 O.2       8 UNK        -0.5046 
     54 N          21.7284  -32.5638  -40.0898 N.am      9 UNK        -0.4200 
     55 CA         20.3971  -32.1542  -39.6204 C.3       9 UNK         0.0839 
     56 C          20.1399  -32.4231  -38.1113 C.2       9 UNK         0.5513 
     57 N          21.1485  -32.3828  -37.2495 N.am      9 UNK        -0.7519 
     58 O          19.0034  -32.6737  -37.7189 O.2       9 UNK        -0.4960 
     59 C59        20.0748  -30.6755  -39.9645 C.3       10 UNK        -0.0876 
     60 S60        20.2225  -30.2446  -41.7331 S.3       10 UNK        -0.2414 
     61 C61        18.9292  -31.2910  -42.4671 C.3       10 UNK         0.0169 
     62 H62        17.6321  -28.7864  -41.1091 H         1 UNK         0.0903 
     63 H63        18.8393  -27.6808  -40.4369 H         1 UNK         0.0903 
     64 H64        17.2198  -27.7649  -39.7353 H         1 UNK         0.0903 
     65 H65        17.5226  -27.9178  -43.2305 H         1 UNK         0.3096 
     66 H66        16.0977  -25.3731  -43.5243 H         1 UNK         0.1121 
     67 H67        15.5810  -26.0704  -45.7711 H         1 UNK         0.0849 
     68 H68        16.8128  -27.2968  -45.7765 H         1 UNK         0.0849 
     69 H69        14.6064  -30.3112  -45.1532 H         1 UNK         0.0865 
     70 H70        15.0568  -29.3518  -46.5371 H         1 UNK         0.0865 
     71 H71        16.4438  -30.4256  -43.1941 H         1 UNK         0.1346 
     72 H72        20.4004  -31.0124  -44.7488 H         1 UNK         0.1412 
     73 H73        17.2921  -29.5277  -47.3000 H         1 UNK         0.1426 
     74 H74        19.4948  -30.7558  -48.1595 H         1 UNK         0.0716 
     75 H75        20.8635  -30.6879  -47.0787 H         1 UNK         0.0716 
     76 H76        20.8424  -28.1748  -45.5652 H         1 UNK         0.0695 
     77 H77        22.2529  -28.4372  -46.5651 H         1 UNK         0.0695 
     78 H78        22.0525  -26.1202  -47.5009 H         1 UNK         0.0983 
     79 H79        19.4664  -26.1475  -46.3465 H         1 UNK         0.3095 
     80 H80        18.9661  -22.8215  -45.6040 H         1 UNK         0.0454 
     81 H81        18.8364  -22.4242  -48.0732 H         1 UNK         0.0851 
     82 H82        17.9382  -23.9210  -48.2751 H         1 UNK         0.0851 
     83 H83        17.2404  -22.5797  -47.3647 H         1 UNK         0.0851 
     84 H84        16.9418  -24.6485  -46.0803 H         1 UNK         0.2976 
     85 H85        20.9370  -25.6915  -44.1648 H         1 UNK         0.3116 
     86 H86        21.8621  -25.3122  -42.2039 H         1 UNK         0.0646 
     87 H87        23.7210  -23.6966  -42.0820 H         1 UNK         0.0847 
     88 H88        22.6340  -23.2345  -43.3803 H         1 UNK         0.0847 
     89 H89        24.1698  -24.0176  -43.7499 H         1 UNK         0.0847 
     90 H90        22.5256  -27.8850  -43.4611 H         1 UNK         0.3040 
     91 H91        25.2381  -28.6207  -42.6988 H         1 UNK         0.1015 
     92 H92        24.1538  -29.5156  -44.7573 H         1 UNK         0.0786 
     93 H93        22.8924  -30.2752  -43.7859 H         1 UNK         0.0786 
     94 H94        24.5593  -30.8186  -43.6527 H         1 UNK         0.0786 
     95 H95        24.5116  -27.7621  -40.4288 H         1 UNK         0.3172 
     96 H96        22.8023  -28.9956  -38.7059 H         1 UNK         0.0595 
     97 H97        23.9827  -26.8887  -38.2004 H         1 UNK         0.0839 
     98 H98        25.5118  -27.7475  -38.0122 H         1 UNK         0.0839 
     99 H99        24.1995  -28.0161  -36.8730 H         1 UNK         0.0839 
    100 H100       26.0226  -30.2410  -39.4739 H         1 UNK         0.2998 
    101 H101       26.1741  -32.2293  -37.4142 H         1 UNK         0.0822 
    102 H102       28.1754  -31.4112  -38.6407 H         1 UNK         0.0787 
    103 H103       28.0117  -33.1475  -38.8395 H         1 UNK         0.0787 
    104 H104       27.5509  -32.0734  -40.1528 H         1 UNK         0.0787 
    105 H105       24.4513  -32.1429  -40.4769 H         1 UNK         0.3055 
    106 H106       23.8802  -35.0714  -40.4021 H         1 UNK         0.1106 
    107 H107       23.3180  -32.9711  -42.5690 H         1 UNK         0.0828 
    108 H108       24.6305  -34.1473  -42.5954 H         1 UNK         0.0828 
    109 H109       22.9616  -34.6887  -42.6746 H         1 UNK         0.0828 
    110 H110       22.3430  -31.8188  -40.4093 H         1 UNK         0.2931 
    111 H111       19.6780  -32.7740  -40.1589 H         1 UNK         0.0412 
    112 H112       20.9669  -32.5640  -36.2753 H         1 UNK         0.3472 
    113 H113       22.0776  -32.0956  -37.5381 H         1 UNK         0.3472 
    114 H114       20.7371  -30.0106  -39.4085 H         1 UNK         0.0970 
    115 H115       19.0626  -30.4240  -39.6423 H         1 UNK         0.0970 
    116 H116       18.0832  -31.3528  -41.7809 H         1 UNK         0.0612 
    117 H117       19.3131  -32.3057  -42.5809 H         1 UNK         0.0612 
@<TRIPOS>BOND
     1    1    2 1    
     2    1   62 1    
     3    1   63 1    
     4    1   64 1    
     5    2    3 2    
     6    2    4 am   BACKBONE|DICT|INTERRES
     7    4    5 1    
     8    4   65 1    
     9    5    6 1    
    10    5   25 1    
    11    5   66 1    
    12    6    7 1    
    13    6   67 1    
    14    6   68 1    
    15    7    8 1    
    16    8    9 1    
    17    8   69 1    
    18    8   70 1    
    19    9   10 ar   
    20    9   14 ar   
    21   10   11 ar   
    22   10   71 1    
    23   11   12 ar   
    24   11   61 1    
    25   12   13 ar   
    26   12   72 1    
    27   13   14 ar   
    28   13   15 1    
    29   14   73 1    
    30   15   16 1    
    31   15   74 1    
    32   15   75 1    
    33   16   17 1    
    34   17   18 1    
    35   17   76 1    
    36   17   77 1    
    37   18   19 1    
    38   18   27 1    
    39   18   78 1    
    40   19   20 am   BACKBONE|DICT|INTERRES
    41   19   79 1    
    42   20   21 2    
    43   20   22 1    
    44   22   23 1    
    45   22   24 1    
    46   22   80 1    
    47   23   81 1    
    48   23   82 1    
    49   23   83 1    
    50   24   25 am   BACKBONE|DICT|INTERRES
    51   24   84 1    
    52   25   26 2    
    53   27   28 2    
    54   27   29 am   BACKBONE|DICT|INTERRES
    55   29   30 1    
    56   29   85 1    
    57   30   31 1    
    58   30   32 1    
    59   30   86 1    
    60   31   87 1    
    61   31   88 1    
    62   31   89 1    
    63   32   33 2    
    64   32   34 am   BACKBONE|DICT|INTERRES
    65   34   35 1    
    66   34   90 1    
    67   35   36 1    
    68   35   37 1    
    69   35   91 1    
    70   36   92 1    
    71   36   93 1    
    72   36   94 1    
    73   37   38 2    
    74   37   39 am   BACKBONE|DICT|INTERRES
    75   39   40 1    
    76   39   95 1    
    77   40   41 1    
    78   40   42 1    
    79   40   96 1    
    80   41   97 1    
    81   41   98 1    
    82   41   99 1    
    83   42   43 2    
    84   42   44 am   BACKBONE|DICT|INTERRES
    85   44   45 1    
    86   44  100 1    
    87   45   46 1    
    88   45   47 1    
    89   45  101 1    
    90   46  102 1    
    91   46  103 1    
    92   46  104 1    
    93   47   48 2    
    94   47   49 am   BACKBONE|DICT|INTERRES
    95   49   50 1    
    96   49  105 1    
    97   50   51 1    
    98   50   52 1    
    99   50  106 1    
   100   51  107 1    
   101   51  108 1    
   102   51  109 1    
   103   52   53 2    
   104   52   54 am   BACKBONE|DICT|INTERRES
   105   54   55 1    
   106   54  110 1    
   107   55   56 1    
   108   55   59 1    
   109   55  111 1    
   110   56   57 am   BACKBONE|DICT|INTERRES
   111   56   58 2    
   112   57  112 1    
   113   57  113 1    
   114   59   60 1    
   115   59  114 1    
   116   59  115 1    
   117   60   61 1    
   118   61  116 1    
   119   61  117 1    
@<TRIPOS>SUBSTRUCTURE
     1 UNK         1 GROUP             0       ****    0 ROOT    
