@<TRIPOS>MOLECULE
3R8
117   119    1
SMALL
USER_CHARGES


@<TRIPOS>ATOM
      1 CA         19.1701  -24.8224  -38.9616 C.3       0 UNK        -0.2013 
      2 C          18.3762  -24.7515  -40.2579 C.2       0 UNK         0.4866 
      3 O          17.8467  -23.6920  -40.5956 O.2       0 UNK        -0.5176 
      4 N          18.2821  -25.8749  -40.9805 N.am      1 UNK        -0.4884 
      5 CA         17.6223  -25.9777  -42.2867 C.3       1 UNK         0.0853 
      6 C6         17.3376  -27.4569  -42.6461 C.3       10 UNK        -0.0849 
      7 S7         15.9296  -27.6387  -43.7859 S.3       10 UNK        -0.2776 
      8 C8         15.8448  -29.4531  -43.9259 C.3       10 UNK         0.0316 
      9 C9         17.0993  -30.0422  -44.5583 C.ar      10 UNK        -0.0863 
     10 C10        17.9084  -30.9282  -43.8414 C.ar      10 UNK        -0.1009 
     11 C11        19.0350  -31.5053  -44.4370 C.ar      10 UNK        -0.0712 
     12 C12        19.3669  -31.1598  -45.7526 C.ar      10 UNK        -0.0894 
     13 C13        18.5767  -30.2595  -46.4777 C.ar      10 UNK        -0.0745 
     14 C14        17.4333  -29.7222  -45.8757 C.ar      10 UNK        -0.0972 
     15 C15        18.9284  -29.9293  -47.9278 C.3       10 UNK         0.0209 
     16 S16        18.6095  -28.1877  -48.3832 S.3       10 UNK        -0.2568 
     17 C17        20.2630  -27.4164  -48.2835 C.3       10 UNK        -0.0983 
     18 CA         20.6495  -26.8192  -46.9003 C.3       3 UNK         0.0876 
     19 N          19.5761  -26.0292  -46.2943 N.am      3 UNK        -0.4424 
     20 C          19.4862  -24.6961  -46.3292 C.2       2 UNK         0.4918 
     21 O          20.2886  -23.9689  -46.9156 O.2       2 UNK        -0.4875 
     22 CA         18.3098  -24.0491  -45.5718 C.3       2 UNK         0.0481 
     23 CB         17.1725  -23.7171  -46.5511 C.3       2 UNK        -0.1831 
     24 N          17.7642  -24.8311  -44.4535 N.am      2 UNK        -0.4498 
     25 C          18.4470  -25.2719  -43.3868 C.2       1 UNK         0.5027 
     26 O          19.6720  -25.1757  -43.2712 O.2       1 UNK        -0.4969 
     27 C          21.2240  -27.8437  -45.9018 C.2       3 UNK         0.5005 
     28 O          21.7681  -28.8638  -46.3290 O.2       3 UNK        -0.5279 
     29 N          21.1280  -27.5567  -44.5915 N.am      4 UNK        -0.4463 
     30 CA         21.6990  -28.3918  -43.5329 C.3       4 UNK         0.0283 
     31 CB         21.2657  -27.8801  -42.1497 C.3       4 UNK        -0.1875 
     32 C          23.2321  -28.4395  -43.6087 C.2       4 UNK         0.4949 
     33 O          23.8747  -27.3879  -43.5939 O.2       4 UNK        -0.5039 
     34 N          23.7979  -29.6506  -43.6132 N.am      5 UNK        -0.4663 
     35 CA         25.2411  -29.9164  -43.6022 C.3       5 UNK         0.0242 
     36 CB         25.4877  -31.2948  -44.2449 C.3       5 UNK        -0.1982 
     37 C          25.8370  -29.8063  -42.1819 C.2       5 UNK         0.5017 
     38 O          26.5878  -30.6903  -41.7661 O.2       5 UNK        -0.5012 
     39 N          25.4643  -28.7276  -41.4743 N.am      6 UNK        -0.4439 
     40 CA         25.6507  -28.4284  -40.0480 C.3       6 UNK         0.0297 
     41 CB         27.1378  -28.4471  -39.6437 C.3       6 UNK        -0.2006 
     42 C          24.8145  -29.3493  -39.1395 C.2       6 UNK         0.4892 
     43 O          24.6764  -30.5396  -39.4208 O.2       6 UNK        -0.5089 
     44 N          24.2650  -28.7732  -38.0586 N.am      7 UNK        -0.4243 
     45 CA         23.4960  -29.4421  -36.9943 C.3       7 UNK         0.0196 
     46 CB         24.4544  -30.2280  -36.0741 C.3       7 UNK        -0.2007 
     47 C          22.3327  -30.3142  -37.5162 C.2       7 UNK         0.5020 
     48 O          22.1712  -31.4549  -37.0788 O.2       7 UNK        -0.5147 
     49 N          21.5765  -29.7750  -38.4861 N.am      8 UNK        -0.4734 
     50 CA         20.4766  -30.4333  -39.2129 C.3       8 UNK         0.0238 
     51 CB         19.2639  -30.6512  -38.2829 C.3       8 UNK        -0.1912 
     52 C          20.9069  -31.7237  -39.9470 C.2       8 UNK         0.5038 
     53 O          20.1172  -32.6639  -40.0464 O.2       8 UNK        -0.5046 
     54 N          22.1555  -31.7369  -40.4337 N.am      9 UNK        -0.4200 
     55 CA         22.8484  -32.8667  -41.0748 C.3       9 UNK         0.0839 
     56 C          23.2907  -33.9859  -40.0835 C.2       9 UNK         0.5513 
     57 N          23.2038  -33.7985  -38.7711 N.am      9 UNK        -0.7519 
     58 O          23.7463  -35.0435  -40.5115 O.2       9 UNK        -0.4960 
     59 C59        22.1296  -33.4445  -42.3317 C.3       10 UNK        -0.0876 
     60 S60        21.6088  -32.1787  -43.5421 S.3       10 UNK        -0.2414 
     61 C61        19.8330  -32.5595  -43.6767 C.3       10 UNK         0.0169 
     62 H62        19.5616  -25.8223  -38.7755 H         1 UNK         0.0903 
     63 H63        20.0114  -24.1309  -39.0000 H         1 UNK         0.0903 
     64 H64        18.5381  -24.5439  -38.1188 H         1 UNK         0.0903 
     65 H65        18.7525  -26.7065  -40.6573 H         1 UNK         0.3096 
     66 H66        16.6688  -25.4511  -42.1959 H         1 UNK         0.1121 
     67 H67        17.0918  -28.0238  -41.7463 H         1 UNK         0.0849 
     68 H68        18.2137  -27.9415  -43.0797 H         1 UNK         0.0849 
     69 H69        15.6652  -29.8810  -42.9383 H         1 UNK         0.0865 
     70 H70        14.9806  -29.7206  -44.5355 H         1 UNK         0.0865 
     71 H71        17.6419  -31.1951  -42.8277 H         1 UNK         0.1346 
     72 H72        20.2364  -31.6057  -46.2161 H         1 UNK         0.1412 
     73 H73        16.7937  -29.0502  -46.4312 H         1 UNK         0.1426 
     74 H74        18.3248  -30.5673  -48.5743 H         1 UNK         0.0716 
     75 H75        19.9694  -30.1784  -48.1386 H         1 UNK         0.0716 
     76 H76        20.2573  -26.6029  -49.0103 H         1 UNK         0.0695 
     77 H77        21.0197  -28.1098  -48.6542 H         1 UNK         0.0695 
     78 H78        21.5015  -26.1602  -47.0823 H         1 UNK         0.0983 
     79 H79        18.8593  -26.5543  -45.8144 H         1 UNK         0.3095 
     80 H80        18.6794  -23.1114  -45.1522 H         1 UNK         0.0454 
     81 H81        17.5353  -23.1088  -47.3809 H         1 UNK         0.0851 
     82 H82        16.3780  -23.1520  -46.0637 H         1 UNK         0.0851 
     83 H83        16.7323  -24.6193  -46.9780 H         1 UNK         0.0851 
     84 H84        16.7690  -25.0062  -44.4818 H         1 UNK         0.2976 
     85 H85        20.7277  -26.6694  -44.3060 H         1 UNK         0.3116 
     86 H86        21.2985  -29.3967  -43.6615 H         1 UNK         0.0646 
     87 H87        21.5137  -26.8267  -42.0120 H         1 UNK         0.0847 
     88 H88        20.1960  -27.9992  -41.9981 H         1 UNK         0.0847 
     89 H89        21.7658  -28.4359  -41.3562 H         1 UNK         0.0847 
     90 H90        23.1935  -30.4633  -43.6039 H         1 UNK         0.3040 
     91 H91        25.7441  -29.1670  -44.2178 H         1 UNK         0.1015 
     92 H92        26.5548  -31.5083  -44.3200 H         1 UNK         0.0786 
     93 H93        25.0792  -31.3399  -45.2547 H         1 UNK         0.0786 
     94 H94        25.0328  -32.0980  -43.6638 H         1 UNK         0.0786 
     95 H95        24.8733  -28.0708  -41.9747 H         1 UNK         0.3172 
     96 H96        25.2843  -27.4089  -39.9174 H         1 UNK         0.0595 
     97 H97        27.5576  -29.4530  -39.6755 H         1 UNK         0.0839 
     98 H98        27.2676  -28.0796  -38.6251 H         1 UNK         0.0839 
     99 H99        27.7364  -27.8119  -40.2966 H         1 UNK         0.0839 
    100 H100       24.4176  -27.7829  -37.9222 H         1 UNK         0.2998 
    101 H101       23.0371  -28.6532  -36.3963 H         1 UNK         0.0822 
    102 H102       23.9227  -30.6496  -35.2200 H         1 UNK         0.0787 
    103 H103       25.2412  -29.5857  -35.6786 H         1 UNK         0.0787 
    104 H104       24.9309  -31.0548  -36.6026 H         1 UNK         0.0787 
    105 H105       21.7998  -28.8337  -38.7783 H         1 UNK         0.3055 
    106 H106       20.1603  -29.7436  -39.9960 H         1 UNK         0.1106 
    107 H107       18.9649  -29.7236  -37.7952 H         1 UNK         0.0828 
    108 H108       18.4004  -31.0133  -38.8425 H         1 UNK         0.0828 
    109 H109       19.4771  -31.3858  -37.5057 H         1 UNK         0.0828 
    110 H110       22.7677  -30.9661  -40.1962 H         1 UNK         0.2931 
    111 H111       23.7860  -32.4348  -41.4267 H         1 UNK         0.0412 
    112 H112       22.8445  -32.9318  -38.3878 H         1 UNK         0.3472 
    113 H113       23.5050  -34.5319  -38.1498 H         1 UNK         0.3472 
    114 H114       22.7940  -34.1346  -42.8546 H         1 UNK         0.0970 
    115 H115       21.2696  -34.0435  -42.0283 H         1 UNK         0.0970 
    116 H116       19.4245  -32.6841  -42.6732 H         1 UNK         0.0612 
    117 H117       19.7156  -33.5208  -44.1784 H         1 UNK         0.0612 
@<TRIPOS>BOND
     1    1    2 1    
     2    1   62 1    
     3    1   63 1    
     4    1   64 1    
     5    2    3 2    
     6    2    4 am   BACKBONE|DICT|INTERRES
     7    4    5 1    
     8    4   65 1    
     9    5    6 1    
    10    5   25 1    
    11    5   66 1    
    12    6    7 1    
    13    6   67 1    
    14    6   68 1    
    15    7    8 1    
    16    8    9 1    
    17    8   69 1    
    18    8   70 1    
    19    9   10 ar   
    20    9   14 ar   
    21   10   11 ar   
    22   10   71 1    
    23   11   12 ar   
    24   11   61 1    
    25   12   13 ar   
    26   12   72 1    
    27   13   14 ar   
    28   13   15 1    
    29   14   73 1    
    30   15   16 1    
    31   15   74 1    
    32   15   75 1    
    33   16   17 1    
    34   17   18 1    
    35   17   76 1    
    36   17   77 1    
    37   18   19 1    
    38   18   27 1    
    39   18   78 1    
    40   19   20 am   BACKBONE|DICT|INTERRES
    41   19   79 1    
    42   20   21 2    
    43   20   22 1    
    44   22   23 1    
    45   22   24 1    
    46   22   80 1    
    47   23   81 1    
    48   23   82 1    
    49   23   83 1    
    50   24   25 am   BACKBONE|DICT|INTERRES
    51   24   84 1    
    52   25   26 2    
    53   27   28 2    
    54   27   29 am   BACKBONE|DICT|INTERRES
    55   29   30 1    
    56   29   85 1    
    57   30   31 1    
    58   30   32 1    
    59   30   86 1    
    60   31   87 1    
    61   31   88 1    
    62   31   89 1    
    63   32   33 2    
    64   32   34 am   BACKBONE|DICT|INTERRES
    65   34   35 1    
    66   34   90 1    
    67   35   36 1    
    68   35   37 1    
    69   35   91 1    
    70   36   92 1    
    71   36   93 1    
    72   36   94 1    
    73   37   38 2    
    74   37   39 am   BACKBONE|DICT|INTERRES
    75   39   40 1    
    76   39   95 1    
    77   40   41 1    
    78   40   42 1    
    79   40   96 1    
    80   41   97 1    
    81   41   98 1    
    82   41   99 1    
    83   42   43 2    
    84   42   44 am   BACKBONE|DICT|INTERRES
    85   44   45 1    
    86   44  100 1    
    87   45   46 1    
    88   45   47 1    
    89   45  101 1    
    90   46  102 1    
    91   46  103 1    
    92   46  104 1    
    93   47   48 2    
    94   47   49 am   BACKBONE|DICT|INTERRES
    95   49   50 1    
    96   49  105 1    
    97   50   51 1    
    98   50   52 1    
    99   50  106 1    
   100   51  107 1    
   101   51  108 1    
   102   51  109 1    
   103   52   53 2    
   104   52   54 am   BACKBONE|DICT|INTERRES
   105   54   55 1    
   106   54  110 1    
   107   55   56 1    
   108   55   59 1    
   109   55  111 1    
   110   56   57 am   BACKBONE|DICT|INTERRES
   111   56   58 2    
   112   57  112 1    
   113   57  113 1    
   114   59   60 1    
   115   59  114 1    
   116   59  115 1    
   117   60   61 1    
   118   61  116 1    
   119   61  117 1    
@<TRIPOS>SUBSTRUCTURE
     1 UNK         1 GROUP             0       ****    0 ROOT    
