@<TRIPOS>MOLECULE
3R8
117   119    1
SMALL
USER_CHARGES


@<TRIPOS>ATOM
      1 CA         16.0400  -24.7116  -41.4248 C.3       0 UNK        -0.2013 
      2 C          15.0650  -24.0941  -42.4246 C.2       0 UNK         0.4866 
      3 O          14.2358  -23.2877  -42.0073 O.2       0 UNK        -0.5176 
      4 N          15.0892  -24.3987  -43.7332 N.am      1 UNK        -0.4884 
      5 CA         15.9597  -25.2869  -44.5218 C.3       1 UNK         0.0853 
      6 C6         15.3824  -26.7217  -44.7021 C.3       10 UNK        -0.0849 
      7 S7         15.4028  -27.8261  -43.2437 S.3       10 UNK        -0.2776 
      8 C8         15.7260  -29.4549  -43.9951 C.3       10 UNK         0.0316 
      9 C9         17.1385  -29.5787  -44.5535 C.ar      10 UNK        -0.0863 
     10 C10        18.2069  -29.9108  -43.7131 C.ar      10 UNK        -0.1009 
     11 C11        19.4923  -30.0846  -44.2378 C.ar      10 UNK        -0.0712 
     12 C12        19.7049  -29.9188  -45.6080 C.ar      10 UNK        -0.0894 
     13 C13        18.6563  -29.5409  -46.4501 C.ar      10 UNK        -0.0745 
     14 C14        17.3725  -29.3938  -45.9201 C.ar      10 UNK        -0.0972 
     15 C15        18.9038  -29.2926  -47.9314 C.3       10 UNK         0.0209 
     16 S16        19.4521  -27.5801  -48.2464 S.3       10 UNK        -0.2568 
     17 C17        21.2103  -27.6600  -47.7549 C.3       10 UNK        -0.0983 
     18 CA         21.5879  -26.7558  -46.5460 C.3       3 UNK         0.0876 
     19 N          20.6457  -26.8820  -45.4261 N.am      3 UNK        -0.4424 
     20 C          20.5090  -26.0174  -44.4130 C.2       2 UNK         0.4918 
     21 O          21.1506  -24.9687  -44.3172 O.2       2 UNK        -0.4875 
     22 CA         19.4872  -26.4045  -43.3324 C.3       2 UNK         0.0481 
     23 CB         19.6935  -25.6326  -42.0127 C.3       2 UNK        -0.1831 
     24 N          18.1039  -26.2793  -43.8004 N.am      2 UNK        -0.4498 
     25 C          17.4656  -25.1660  -44.1914 C.2       1 UNK         0.5027 
     26 O          17.9968  -24.0576  -44.2768 O.2       1 UNK        -0.4969 
     27 C          23.0435  -27.0068  -46.0775 C.2       3 UNK         0.5005 
     28 O          23.6494  -28.0143  -46.4489 O.2       3 UNK        -0.5279 
     29 N          23.5608  -26.1135  -45.2222 N.am      4 UNK        -0.4463 
     30 CA         24.8803  -26.0882  -44.5735 C.3       4 UNK         0.0283 
     31 CB         26.0224  -26.0369  -45.6066 C.3       4 UNK        -0.1875 
     32 C          25.1176  -27.2091  -43.5444 C.2       4 UNK         0.4949 
     33 O          25.6058  -26.9252  -42.4508 O.2       4 UNK        -0.5039 
     34 N          24.7566  -28.4524  -43.8815 N.am      5 UNK        -0.4663 
     35 CA         24.9651  -29.6722  -43.0901 C.3       5 UNK         0.0242 
     36 CB         24.8970  -30.8853  -44.0366 C.3       5 UNK        -0.1982 
     37 C          24.0117  -29.8195  -41.8838 C.2       5 UNK         0.5017 
     38 O          23.5599  -30.9275  -41.5906 O.2       5 UNK        -0.5012 
     39 N          23.7288  -28.7125  -41.1847 N.am      6 UNK        -0.4439 
     40 CA         22.8157  -28.6267  -40.0385 C.3       6 UNK         0.0297 
     41 CB         22.7546  -27.1721  -39.5476 C.3       6 UNK        -0.2006 
     42 C          23.1847  -29.5644  -38.8757 C.2       6 UNK         0.4892 
     43 O          22.2902  -30.1174  -38.2365 O.2       6 UNK        -0.5089 
     44 N          24.4926  -29.7545  -38.6528 N.am      7 UNK        -0.4243 
     45 CA         25.0467  -30.6686  -37.6520 C.3       7 UNK         0.0196 
     46 CB         26.5534  -30.4009  -37.5057 C.3       7 UNK        -0.2007 
     47 C          24.7931  -32.1551  -37.9641 C.2       7 UNK         0.5020 
     48 O          24.7621  -32.9606  -37.0334 O.2       7 UNK        -0.5147 
     49 N          24.6213  -32.4981  -39.2487 N.am      8 UNK        -0.4734 
     50 CA         24.2772  -33.8489  -39.6931 C.3       8 UNK         0.0238 
     51 CB         24.8383  -34.0951  -41.1037 C.3       8 UNK        -0.1912 
     52 C          22.7586  -34.0695  -39.6640 C.2       8 UNK         0.5038 
     53 O          22.3162  -35.1312  -39.2227 O.2       8 UNK        -0.5046 
     54 N          21.9945  -33.0741  -40.1349 N.am      9 UNK        -0.4200 
     55 CA         20.5240  -33.1150  -40.1815 C.3       9 UNK         0.0839 
     56 C          19.8464  -33.0325  -38.7863 C.2       9 UNK         0.5513 
     57 N          20.4044  -32.3047  -37.8269 N.am      9 UNK        -0.7519 
     58 O          18.8007  -33.6406  -38.5731 O.2       9 UNK        -0.4960 
     59 C59        19.9325  -32.0488  -41.1369 C.3       10 UNK        -0.0876 
     60 S60        20.6108  -32.1803  -42.8271 S.3       10 UNK        -0.2414 
     61 C61        20.6636  -30.4355  -43.3349 C.3       10 UNK         0.0169 
     62 H62        16.9677  -24.1407  -41.4034 H         1 UNK         0.0903 
     63 H63        15.6140  -24.6897  -40.4221 H         1 UNK         0.0903 
     64 H64        16.2741  -25.7478  -41.6482 H         1 UNK         0.0903 
     65 H65        14.4122  -23.9112  -44.3036 H         1 UNK         0.3096 
     66 H66        15.9083  -24.8484  -45.5206 H         1 UNK         0.1121 
     67 H67        14.3446  -26.6483  -45.0311 H         1 UNK         0.0849 
     68 H68        15.8979  -27.1989  -45.5329 H         1 UNK         0.0849 
     69 H69        15.5686  -30.2255  -43.2388 H         1 UNK         0.0865 
     70 H70        14.9863  -29.6467  -44.7742 H         1 UNK         0.0865 
     71 H71        18.0363  -30.0489  -42.6540 H         1 UNK         0.1346 
     72 H72        20.6956  -30.0696  -46.0129 H         1 UNK         0.1412 
     73 H73        16.5533  -29.1371  -46.5780 H         1 UNK         0.1426 
     74 H74        17.9872  -29.4720  -48.4953 H         1 UNK         0.0716 
     75 H75        19.6372  -30.0002  -48.3211 H         1 UNK         0.0716 
     76 H76        21.4753  -28.7005  -47.5701 H         1 UNK         0.0695 
     77 H77        21.8032  -27.3675  -48.6234 H         1 UNK         0.0695 
     78 H78        21.5417  -25.7218  -46.8956 H         1 UNK         0.0983 
     79 H79        20.0569  -27.7037  -45.4443 H         1 UNK         0.3095 
     80 H80        19.6479  -27.4588  -43.1091 H         1 UNK         0.0454 
     81 H81        20.7120  -25.7578  -41.6480 H         1 UNK         0.0851 
     82 H82        19.0231  -25.9933  -41.2329 H         1 UNK         0.0851 
     83 H83        19.5272  -24.5617  -42.1311 H         1 UNK         0.0851 
     84 H84        17.5557  -27.1313  -43.7691 H         1 UNK         0.2976 
     85 H85        22.9183  -25.3891  -44.9079 H         1 UNK         0.3116 
     86 H86        24.9074  -25.1498  -44.0171 H         1 UNK         0.0646 
     87 H87        26.0803  -26.9492  -46.2010 H         1 UNK         0.0847 
     88 H88        25.9007  -25.1978  -46.2913 H         1 UNK         0.0847 
     89 H89        26.9870  -25.9136  -45.1124 H         1 UNK         0.0847 
     90 H90        24.3467  -28.5683  -44.8061 H         1 UNK         0.3040 
     91 H91        25.9752  -29.6339  -42.6770 H         1 UNK         0.1015 
     92 H92        25.1523  -31.8081  -43.5147 H         1 UNK         0.0786 
     93 H93        25.5989  -30.7832  -44.8645 H         1 UNK         0.0786 
     94 H94        23.8989  -31.0125  -44.4572 H         1 UNK         0.0786 
     95 H95        24.2030  -27.8606  -41.4700 H         1 UNK         0.3172 
     96 H96        21.8233  -28.9131  -40.3916 H         1 UNK         0.0595 
     97 H97        23.7144  -26.8389  -39.1505 H         1 UNK         0.0839 
     98 H98        22.0160  -27.0598  -38.7526 H         1 UNK         0.0839 
     99 H99        22.4753  -26.4902  -40.3492 H         1 UNK         0.0839 
    100 H100       25.1523  -29.2557  -39.2320 H         1 UNK         0.2998 
    101 H101       24.5649  -30.4503  -36.6963 H         1 UNK         0.0822 
    102 H102       26.9922  -31.0473  -36.7441 H         1 UNK         0.0787 
    103 H103       26.7469  -29.3713  -37.2041 H         1 UNK         0.0787 
    104 H104       27.0891  -30.5860  -38.4377 H         1 UNK         0.0787 
    105 H105       24.5976  -31.7709  -39.9535 H         1 UNK         0.3055 
    106 H106       24.7343  -34.5785  -39.0203 H         1 UNK         0.1106 
    107 H107       25.9163  -33.9376  -41.1364 H         1 UNK         0.0828 
    108 H108       24.6510  -35.1221  -41.4200 H         1 UNK         0.0828 
    109 H109       24.3799  -33.4415  -41.8459 H         1 UNK         0.0828 
    110 H110       22.4401  -32.2523  -40.5283 H         1 UNK         0.2931 
    111 H111       20.2530  -34.0890  -40.5947 H         1 UNK         0.0412 
    112 H112       19.9617  -32.2608  -36.9232 H         1 UNK         0.3472 
    113 H113       21.2164  -31.7248  -38.0161 H         1 UNK         0.3472 
    114 H114       18.8478  -32.1521  -41.2030 H         1 UNK         0.0970 
    115 H115       20.1218  -31.0526  -40.7339 H         1 UNK         0.0970 
    116 H116       21.6060  -30.2629  -43.8562 H         1 UNK         0.0612 
    117 H117       20.6809  -29.7705  -42.4716 H         1 UNK         0.0612 
@<TRIPOS>BOND
     1    1    2 1    
     2    1   62 1    
     3    1   63 1    
     4    1   64 1    
     5    2    3 2    
     6    2    4 am   BACKBONE|DICT|INTERRES
     7    4    5 1    
     8    4   65 1    
     9    5    6 1    
    10    5   25 1    
    11    5   66 1    
    12    6    7 1    
    13    6   67 1    
    14    6   68 1    
    15    7    8 1    
    16    8    9 1    
    17    8   69 1    
    18    8   70 1    
    19    9   10 ar   
    20    9   14 ar   
    21   10   11 ar   
    22   10   71 1    
    23   11   12 ar   
    24   11   61 1    
    25   12   13 ar   
    26   12   72 1    
    27   13   14 ar   
    28   13   15 1    
    29   14   73 1    
    30   15   16 1    
    31   15   74 1    
    32   15   75 1    
    33   16   17 1    
    34   17   18 1    
    35   17   76 1    
    36   17   77 1    
    37   18   19 1    
    38   18   27 1    
    39   18   78 1    
    40   19   20 am   BACKBONE|DICT|INTERRES
    41   19   79 1    
    42   20   21 2    
    43   20   22 1    
    44   22   23 1    
    45   22   24 1    
    46   22   80 1    
    47   23   81 1    
    48   23   82 1    
    49   23   83 1    
    50   24   25 am   BACKBONE|DICT|INTERRES
    51   24   84 1    
    52   25   26 2    
    53   27   28 2    
    54   27   29 am   BACKBONE|DICT|INTERRES
    55   29   30 1    
    56   29   85 1    
    57   30   31 1    
    58   30   32 1    
    59   30   86 1    
    60   31   87 1    
    61   31   88 1    
    62   31   89 1    
    63   32   33 2    
    64   32   34 am   BACKBONE|DICT|INTERRES
    65   34   35 1    
    66   34   90 1    
    67   35   36 1    
    68   35   37 1    
    69   35   91 1    
    70   36   92 1    
    71   36   93 1    
    72   36   94 1    
    73   37   38 2    
    74   37   39 am   BACKBONE|DICT|INTERRES
    75   39   40 1    
    76   39   95 1    
    77   40   41 1    
    78   40   42 1    
    79   40   96 1    
    80   41   97 1    
    81   41   98 1    
    82   41   99 1    
    83   42   43 2    
    84   42   44 am   BACKBONE|DICT|INTERRES
    85   44   45 1    
    86   44  100 1    
    87   45   46 1    
    88   45   47 1    
    89   45  101 1    
    90   46  102 1    
    91   46  103 1    
    92   46  104 1    
    93   47   48 2    
    94   47   49 am   BACKBONE|DICT|INTERRES
    95   49   50 1    
    96   49  105 1    
    97   50   51 1    
    98   50   52 1    
    99   50  106 1    
   100   51  107 1    
   101   51  108 1    
   102   51  109 1    
   103   52   53 2    
   104   52   54 am   BACKBONE|DICT|INTERRES
   105   54   55 1    
   106   54  110 1    
   107   55   56 1    
   108   55   59 1    
   109   55  111 1    
   110   56   57 am   BACKBONE|DICT|INTERRES
   111   56   58 2    
   112   57  112 1    
   113   57  113 1    
   114   59   60 1    
   115   59  114 1    
   116   59  115 1    
   117   60   61 1    
   118   61  116 1    
   119   61  117 1    
@<TRIPOS>SUBSTRUCTURE
     1 UNK         1 GROUP             0       ****    0 ROOT    
