@<TRIPOS>MOLECULE
3R8
117   119    1
SMALL
USER_CHARGES


@<TRIPOS>ATOM
      1 CA         14.1491  -23.2732  -46.7223 C.3       0 UNK        -0.2013 
      2 C          14.9044  -24.5935  -46.6957 C.2       0 UNK         0.4866 
      3 O          15.2009  -25.1503  -47.7528 O.2       0 UNK        -0.5176 
      4 N          15.2224  -25.0976  -45.4951 N.am      1 UNK        -0.4884 
      5 CA         15.9481  -26.3596  -45.2826 C.3       1 UNK         0.0853 
      6 C6         15.6364  -26.9562  -43.8818 C.3       10 UNK        -0.0849 
      7 S7         15.4843  -28.7754  -43.9185 S.3       10 UNK        -0.2776 
      8 C8         15.6215  -29.2057  -42.1524 C.3       10 UNK         0.0316 
      9 C9         17.0544  -29.0833  -41.6570 C.ar      10 UNK        -0.0863 
     10 C10        17.9845  -30.0859  -41.9443 C.ar      10 UNK        -0.1009 
     11 C11        19.3204  -29.9547  -41.5502 C.ar      10 UNK        -0.0712 
     12 C12        19.7106  -28.8273  -40.8208 C.ar      10 UNK        -0.0894 
     13 C13        18.7903  -27.8129  -40.5370 C.ar      10 UNK        -0.0745 
     14 C14        17.4607  -27.9551  -40.9412 C.ar      10 UNK        -0.0972 
     15 C15        19.2315  -26.5328  -39.8451 C.3       10 UNK         0.0209 
     16 S16        19.4440  -25.1789  -41.0492 S.3       10 UNK        -0.2568 
     17 C17        21.0867  -25.5490  -41.7539 C.3       10 UNK        -0.0983 
     18 CA         21.0380  -26.4691  -43.0055 C.3       3 UNK         0.0876 
     19 N          20.2086  -25.9633  -44.1003 N.am      3 UNK        -0.4424 
     20 C          20.4040  -24.8668  -44.8383 C.2       2 UNK         0.4918 
     21 O          21.3555  -24.0991  -44.6937 O.2       2 UNK        -0.4875 
     22 CA         19.3543  -24.5515  -45.9232 C.3       2 UNK         0.0481 
     23 CB         19.8208  -25.0694  -47.2976 C.3       2 UNK        -0.1831 
     24 N          17.9759  -24.9849  -45.6293 N.am      2 UNK        -0.4498 
     25 C          17.4708  -26.2270  -45.5330 C.2       1 UNK         0.5027 
     26 O          18.1611  -27.2430  -45.6177 O.2       1 UNK        -0.4969 
     27 C          22.4357  -26.8981  -43.4912 C.2       3 UNK         0.5005 
     28 O          23.4529  -26.4143  -42.9863 O.2       3 UNK        -0.5279 
     29 N          22.4575  -27.8120  -44.4725 N.am      4 UNK        -0.4463 
     30 CA         23.6702  -28.4597  -44.9734 C.3       4 UNK         0.0283 
     31 CB         23.3197  -29.3391  -46.1838 C.3       4 UNK        -0.1875 
     32 C          24.3475  -29.2896  -43.8696 C.2       4 UNK         0.4949 
     33 O          23.6731  -30.0652  -43.1899 O.2       4 UNK        -0.5039 
     34 N          25.6616  -29.0882  -43.6984 N.am      5 UNK        -0.4663 
     35 CA         26.5060  -29.7035  -42.6639 C.3       5 UNK         0.0242 
     36 CB         26.7125  -31.2020  -42.9645 C.3       5 UNK        -0.1982 
     37 C          26.0009  -29.4347  -41.2285 C.2       5 UNK         0.5017 
     38 O          26.0648  -30.3220  -40.3726 O.2       5 UNK        -0.5012 
     39 N          25.4820  -28.2153  -41.0101 N.am      6 UNK        -0.4439 
     40 CA         24.9218  -27.6393  -39.7794 C.3       6 UNK         0.0297 
     41 CB         25.9842  -27.5468  -38.6666 C.3       6 UNK        -0.2006 
     42 C          23.6430  -28.3274  -39.2701 C.2       6 UNK         0.4892 
     43 O          22.6430  -27.6487  -39.0425 O.2       6 UNK        -0.5089 
     44 N          23.7023  -29.6482  -39.0896 N.am      7 UNK        -0.4243 
     45 CA         22.6196  -30.4985  -38.5968 C.3       7 UNK         0.0196 
     46 CB         22.5797  -30.4460  -37.0580 C.3       7 UNK        -0.2007 
     47 C          22.7285  -31.9489  -39.0942 C.2       7 UNK         0.5020 
     48 O          21.7838  -32.7121  -38.8918 O.2       7 UNK        -0.5147 
     49 N          23.8516  -32.3327  -39.7231 N.am      8 UNK        -0.4734 
     50 CA         24.1285  -33.7201  -40.1115 C.3       8 UNK         0.0238 
     51 CB         25.6363  -33.8900  -40.3562 C.3       8 UNK        -0.1912 
     52 C          23.3114  -34.2306  -41.3128 C.2       8 UNK         0.5038 
     53 O          23.2987  -35.4417  -41.5375 O.2       8 UNK        -0.5046 
     54 N          22.6474  -33.3324  -42.0564 N.am      9 UNK        -0.4200 
     55 CA         21.7737  -33.6795  -43.1900 C.3       9 UNK         0.0839 
     56 C          20.4480  -34.4253  -42.8471 C.2       9 UNK         0.5513 
     57 N          20.0955  -34.6178  -41.5810 N.am      9 UNK        -0.7519 
     58 O          19.7359  -34.8559  -43.7504 O.2       9 UNK        -0.4960 
     59 C59        21.5858  -32.5028  -44.1865 C.3       10 UNK        -0.0876 
     60 S60        20.4778  -31.0980  -43.7737 S.3       10 UNK        -0.2414 
     61 C61        20.3391  -31.0115  -41.9569 C.3       10 UNK         0.0169 
     62 H62        13.9546  -22.8929  -45.7197 H         1 UNK         0.0903 
     63 H63        14.7240  -22.5226  -47.2641 H         1 UNK         0.0903 
     64 H64        13.1921  -23.3994  -47.2278 H         1 UNK         0.0903 
     65 H65        14.9498  -24.5975  -44.6598 H         1 UNK         0.3096 
     66 H66        15.5849  -27.0598  -46.0391 H         1 UNK         0.1121 
     67 H67        14.6828  -26.5798  -43.5075 H         1 UNK         0.0849 
     68 H68        16.3809  -26.6499  -43.1454 H         1 UNK         0.0849 
     69 H69        14.9499  -28.5760  -41.5665 H         1 UNK         0.0865 
     70 H70        15.2766  -30.2311  -42.0108 H         1 UNK         0.0865 
     71 H71        17.6789  -30.9511  -42.5172 H         1 UNK         0.1346 
     72 H72        20.7438  -28.7037  -40.5299 H         1 UNK         0.1412 
     73 H73        16.7518  -27.1659  -40.7298 H         1 UNK         0.1426 
     74 H74        20.1524  -26.6857  -39.2814 H         1 UNK         0.0716 
     75 H75        18.4757  -26.2381  -39.1156 H         1 UNK         0.0716 
     76 H76        21.7023  -25.9986  -40.9734 H         1 UNK         0.0695 
     77 H77        21.5669  -24.6006  -41.9998 H         1 UNK         0.0695 
     78 H78        20.5561  -27.3974  -42.7183 H         1 UNK         0.0983 
     79 H79        19.4211  -26.5476  -44.3645 H         1 UNK         0.3095 
     80 H80        19.3028  -23.4635  -45.9885 H         1 UNK         0.0454 
     81 H81        19.9245  -26.1547  -47.3127 H         1 UNK         0.0851 
     82 H82        20.7926  -24.6501  -47.5614 H         1 UNK         0.0851 
     83 H83        19.1224  -24.7880  -48.0857 H         1 UNK         0.0851 
     84 H84        17.3155  -24.2303  -45.5050 H         1 UNK         0.2976 
     85 H85        21.5795  -28.1787  -44.8111 H         1 UNK         0.3116 
     86 H86        24.3552  -27.6762  -45.3043 H         1 UNK         0.0646 
     87 H87        22.8995  -28.7468  -46.9968 H         1 UNK         0.0847 
     88 H88        24.2074  -29.8393  -46.5731 H         1 UNK         0.0847 
     89 H89        22.5969  -30.1133  -45.9255 H         1 UNK         0.0847 
     90 H90        26.1248  -28.4213  -44.3015 H         1 UNK         0.3040 
     91 H91        27.4821  -29.2197  -42.7278 H         1 UNK         0.1015 
     92 H92        25.7745  -31.7553  -42.9151 H         1 UNK         0.0786 
     93 H93        27.4053  -31.6537  -42.2536 H         1 UNK         0.0786 
     94 H94        27.1326  -31.3502  -43.9592 H         1 UNK         0.0786 
     95 H95        25.4016  -27.6130  -41.8198 H         1 UNK         0.3172 
     96 H96        24.6385  -26.6188  -40.0428 H         1 UNK         0.0595 
     97 H97        26.3389  -28.5288  -38.3525 H         1 UNK         0.0839 
     98 H98        25.5785  -27.0524  -37.7828 H         1 UNK         0.0839 
     99 H99        26.8485  -26.9680  -38.9921 H         1 UNK         0.0839 
    100 H100       24.5841  -30.0925  -39.3286 H         1 UNK         0.2998 
    101 H101       21.6707  -30.1175  -38.9758 H         1 UNK         0.0822 
    102 H102       21.7788  -31.0727  -36.6633 H         1 UNK         0.0787 
    103 H103       23.5157  -30.7959  -36.6211 H         1 UNK         0.0787 
    104 H104       22.4001  -29.4324  -36.6992 H         1 UNK         0.0787 
    105 H105       24.5931  -31.6676  -39.9077 H         1 UNK         0.3055 
    106 H106       23.8609  -34.3598  -39.2669 H         1 UNK         0.1106 
    107 H107       25.8836  -34.9314  -40.5667 H         1 UNK         0.0828 
    108 H108       25.9765  -33.3001  -41.2041 H         1 UNK         0.0828 
    109 H109       26.2182  -33.5908  -39.4842 H         1 UNK         0.0828 
    110 H110       22.7302  -32.3521  -41.8304 H         1 UNK         0.2931 
    111 H111       22.3403  -34.4236  -43.7539 H         1 UNK         0.0412 
    112 H112       19.2412  -35.1119  -41.3766 H         1 UNK         0.3472 
    113 H113       20.6738  -34.2756  -40.8287 H         1 UNK         0.3472 
    114 H114       22.5649  -32.0882  -44.4270 H         1 UNK         0.0970 
    115 H115       21.2235  -32.9048  -45.1343 H         1 UNK         0.0970 
    116 H116       20.0218  -31.9645  -41.5416 H         1 UNK         0.0612 
    117 H117       21.3209  -30.7847  -41.5400 H         1 UNK         0.0612 
@<TRIPOS>BOND
     1    1    2 1    
     2    1   62 1    
     3    1   63 1    
     4    1   64 1    
     5    2    3 2    
     6    2    4 am   BACKBONE|DICT|INTERRES
     7    4    5 1    
     8    4   65 1    
     9    5    6 1    
    10    5   25 1    
    11    5   66 1    
    12    6    7 1    
    13    6   67 1    
    14    6   68 1    
    15    7    8 1    
    16    8    9 1    
    17    8   69 1    
    18    8   70 1    
    19    9   10 ar   
    20    9   14 ar   
    21   10   11 ar   
    22   10   71 1    
    23   11   12 ar   
    24   11   61 1    
    25   12   13 ar   
    26   12   72 1    
    27   13   14 ar   
    28   13   15 1    
    29   14   73 1    
    30   15   16 1    
    31   15   74 1    
    32   15   75 1    
    33   16   17 1    
    34   17   18 1    
    35   17   76 1    
    36   17   77 1    
    37   18   19 1    
    38   18   27 1    
    39   18   78 1    
    40   19   20 am   BACKBONE|DICT|INTERRES
    41   19   79 1    
    42   20   21 2    
    43   20   22 1    
    44   22   23 1    
    45   22   24 1    
    46   22   80 1    
    47   23   81 1    
    48   23   82 1    
    49   23   83 1    
    50   24   25 am   BACKBONE|DICT|INTERRES
    51   24   84 1    
    52   25   26 2    
    53   27   28 2    
    54   27   29 am   BACKBONE|DICT|INTERRES
    55   29   30 1    
    56   29   85 1    
    57   30   31 1    
    58   30   32 1    
    59   30   86 1    
    60   31   87 1    
    61   31   88 1    
    62   31   89 1    
    63   32   33 2    
    64   32   34 am   BACKBONE|DICT|INTERRES
    65   34   35 1    
    66   34   90 1    
    67   35   36 1    
    68   35   37 1    
    69   35   91 1    
    70   36   92 1    
    71   36   93 1    
    72   36   94 1    
    73   37   38 2    
    74   37   39 am   BACKBONE|DICT|INTERRES
    75   39   40 1    
    76   39   95 1    
    77   40   41 1    
    78   40   42 1    
    79   40   96 1    
    80   41   97 1    
    81   41   98 1    
    82   41   99 1    
    83   42   43 2    
    84   42   44 am   BACKBONE|DICT|INTERRES
    85   44   45 1    
    86   44  100 1    
    87   45   46 1    
    88   45   47 1    
    89   45  101 1    
    90   46  102 1    
    91   46  103 1    
    92   46  104 1    
    93   47   48 2    
    94   47   49 am   BACKBONE|DICT|INTERRES
    95   49   50 1    
    96   49  105 1    
    97   50   51 1    
    98   50   52 1    
    99   50  106 1    
   100   51  107 1    
   101   51  108 1    
   102   51  109 1    
   103   52   53 2    
   104   52   54 am   BACKBONE|DICT|INTERRES
   105   54   55 1    
   106   54  110 1    
   107   55   56 1    
   108   55   59 1    
   109   55  111 1    
   110   56   57 am   BACKBONE|DICT|INTERRES
   111   56   58 2    
   112   57  112 1    
   113   57  113 1    
   114   59   60 1    
   115   59  114 1    
   116   59  115 1    
   117   60   61 1    
   118   61  116 1    
   119   61  117 1    
@<TRIPOS>SUBSTRUCTURE
     1 UNK         1 GROUP             0       ****    0 ROOT    
