@<TRIPOS>MOLECULE
3R8
117   119    1
SMALL
USER_CHARGES


@<TRIPOS>ATOM
      1 CA         17.3714  -30.5057  -47.7092 C.3       0 UNK        -0.2013 
      2 C          17.4310  -29.4486  -46.6179 C.2       0 UNK         0.4866 
      3 O          18.4842  -29.2526  -46.0112 O.2       0 UNK        -0.5176 
      4 N          16.3148  -28.7501  -46.3683 N.am      1 UNK        -0.4884 
      5 CA         16.1643  -27.7051  -45.3464 C.3       1 UNK         0.0853 
      6 C6         14.6788  -27.5643  -44.9232 C.3       10 UNK        -0.0849 
      7 S7         14.4146  -26.5968  -43.3959 S.3       10 UNK        -0.2776 
      8 C8         14.6987  -27.8281  -42.0828 C.3       10 UNK         0.0316 
      9 C9         16.1731  -27.9448  -41.7186 C.ar      10 UNK        -0.0863 
     10 C10        16.8797  -29.1256  -41.9695 C.ar      10 UNK        -0.1009 
     11 C11        18.2246  -29.2380  -41.6016 C.ar      10 UNK        -0.0712 
     12 C12        18.8550  -28.1667  -40.9642 C.ar      10 UNK        -0.0894 
     13 C13        18.1761  -26.9648  -40.7515 C.ar      10 UNK        -0.0745 
     14 C14        16.8295  -26.8677  -41.1140 C.ar      10 UNK        -0.0972 
     15 C15        18.8897  -25.7665  -40.1404 C.3       10 UNK         0.0209 
     16 S16        19.2228  -24.4817  -41.3923 S.3       10 UNK        -0.2568 
     17 C17        20.9007  -24.8973  -41.9860 C.3       10 UNK        -0.0983 
     18 CA         20.9487  -26.1038  -42.9621 C.3       3 UNK         0.0876 
     19 N          20.0290  -26.0081  -44.1006 N.am      3 UNK        -0.4424 
     20 C          20.0823  -25.1420  -45.1248 C.2       2 UNK         0.4918 
     21 O          20.8973  -24.2232  -45.2106 O.2       2 UNK        -0.4875 
     22 CA         19.0655  -25.3403  -46.2657 C.3       2 UNK         0.0481 
     23 CB         19.7912  -25.6140  -47.5943 C.3       2 UNK        -0.1831 
     24 N          18.1598  -26.4575  -45.9928 N.am      2 UNK        -0.4498 
     25 C          16.8437  -26.3803  -45.7715 C.2       1 UNK         0.5027 
     26 O          16.1880  -25.3453  -45.9037 O.2       1 UNK        -0.4969 
     27 C          22.3709  -26.4519  -43.4431 C.2       3 UNK         0.5005 
     28 O          23.2859  -25.6310  -43.3450 O.2       3 UNK        -0.5279 
     29 N          22.4991  -27.6635  -44.0028 N.am      4 UNK        -0.4463 
     30 CA         23.7340  -28.2284  -44.5451 C.3       4 UNK         0.0283 
     31 CB         23.3683  -29.2201  -45.6698 C.3       4 UNK        -0.1875 
     32 C          24.6262  -28.8257  -43.4341 C.2       4 UNK         0.4949 
     33 O          24.7499  -28.2222  -42.3671 O.2       4 UNK        -0.5039 
     34 N          25.2563  -29.9772  -43.7170 N.am      5 UNK        -0.4663 
     35 CA         26.2722  -30.6792  -42.9185 C.3       5 UNK         0.0242 
     36 CB         26.4405  -32.1028  -43.4767 C.3       5 UNK        -0.1982 
     37 C          25.9813  -30.7222  -41.4078 C.2       5 UNK         0.5017 
     38 O          25.0853  -31.4553  -40.9834 O.2       5 UNK        -0.5012 
     39 N          26.7076  -29.8900  -40.6445 N.am      6 UNK        -0.4439 
     40 CA         26.6328  -29.7035  -39.1867 C.3       6 UNK         0.0297 
     41 CB         27.1713  -30.9604  -38.4700 C.3       6 UNK        -0.2006 
     42 C          25.2414  -29.2926  -38.6535 C.2       6 UNK         0.4892 
     43 O          24.9719  -29.4915  -37.4683 O.2       6 UNK        -0.5089 
     44 N          24.3703  -28.7775  -39.5374 N.am      7 UNK        -0.4243 
     45 CA         22.9292  -28.5537  -39.3503 C.3       7 UNK         0.0196 
     46 CB         22.6586  -27.4730  -38.2831 C.3       7 UNK        -0.2007 
     47 C          22.1174  -29.8466  -39.1036 C.2       7 UNK         0.5020 
     48 O          20.9400  -29.7605  -38.7566 O.2       7 UNK        -0.5147 
     49 N          22.7357  -31.0164  -39.3129 N.am      8 UNK        -0.4734 
     50 CA         22.0949  -32.3318  -39.2933 C.3       8 UNK         0.0238 
     51 CB         23.0723  -33.3555  -38.6933 C.3       8 UNK        -0.1912 
     52 C          21.6723  -32.7579  -40.7078 C.2       8 UNK         0.5038 
     53 O          20.7335  -33.5429  -40.8421 O.2       8 UNK        -0.5046 
     54 N          22.3587  -32.2171  -41.7248 N.am      9 UNK        -0.4200 
     55 CA         22.1150  -32.4151  -43.1614 C.3       9 UNK         0.0839 
     56 C          22.4919  -33.8330  -43.6866 C.2       9 UNK         0.5513 
     57 N          23.2795  -34.6171  -42.9600 N.am      9 UNK        -0.7519 
     58 O          22.0940  -34.2192  -44.7825 O.2       9 UNK        -0.4960 
     59 C59        20.6987  -31.9584  -43.6208 C.3       10 UNK        -0.0876 
     60 S60        20.2870  -30.2389  -43.1547 S.3       10 UNK        -0.2414 
     61 C61        19.0009  -30.5131  -41.8916 C.3       10 UNK         0.0169 
     62 H62        18.0859  -30.2705  -48.4976 H         1 UNK         0.0903 
     63 H63        17.6274  -31.4817  -47.2977 H         1 UNK         0.0903 
     64 H64        16.3805  -30.5753  -48.1575 H         1 UNK         0.0903 
     65 H65        15.4928  -28.9285  -46.9287 H         1 UNK         0.3096 
     66 H66        16.7134  -28.0439  -44.4674 H         1 UNK         0.1121 
     67 H67        14.0978  -27.1049  -45.7251 H         1 UNK         0.0849 
     68 H68        14.2392  -28.5516  -44.7729 H         1 UNK         0.0849 
     69 H69        14.1445  -27.5221  -41.1943 H         1 UNK         0.0865 
     70 H70        14.2842  -28.7935  -42.3771 H         1 UNK         0.0865 
     71 H71        16.3837  -29.9574  -42.4511 H         1 UNK         0.1346 
     72 H72        19.8886  -28.2632  -40.6645 H         1 UNK         0.1412 
     73 H73        16.2939  -25.9442  -40.9385 H         1 UNK         0.1426 
     74 H74        19.8183  -26.0657  -39.6524 H         1 UNK         0.0716 
     75 H75        18.2598  -25.3385  -39.3592 H         1 UNK         0.0716 
     76 H76        21.3038  -24.0055  -42.4691 H         1 UNK         0.0695 
     77 H77        21.5391  -25.0833  -41.1203 H         1 UNK         0.0695 
     78 H78        20.6314  -26.9756  -42.3996 H         1 UNK         0.0983 
     79 H79        19.2955  -26.7001  -44.1181 H         1 UNK         0.3095 
     80 H80        18.5047  -24.4088  -46.3628 H         1 UNK         0.0454 
     81 H81        20.3968  -26.5199  -47.5443 H         1 UNK         0.0851 
     82 H82        20.4564  -24.7901  -47.8561 H         1 UNK         0.0851 
     83 H83        19.0833  -25.7291  -48.4151 H         1 UNK         0.0851 
     84 H84        18.5731  -27.3881  -45.9549 H         1 UNK         0.2976 
     85 H85        21.6934  -28.2747  -44.0159 H         1 UNK         0.3116 
     86 H86        24.3108  -27.4203  -44.9998 H         1 UNK         0.0646 
     87 H87        22.8174  -30.0825  -45.2946 H         1 UNK         0.0847 
     88 H88        24.2537  -29.5843  -46.1921 H         1 UNK         0.0847 
     89 H89        22.7431  -28.7395  -46.4229 H         1 UNK         0.0847 
     90 H90        25.0716  -30.3824  -44.6227 H         1 UNK         0.3040 
     91 H91        27.2163  -30.1521  -43.0698 H         1 UNK         0.1015 
     92 H92        25.5084  -32.6671  -43.4316 H         1 UNK         0.0786 
     93 H93        27.1852  -32.6613  -42.9075 H         1 UNK         0.0786 
     94 H94        26.7740  -32.0885  -44.5144 H         1 UNK         0.0786 
     95 H95        27.3702  -29.2877  -41.1143 H         1 UNK         0.3172 
     96 H96        27.3009  -28.8739  -38.9512 H         1 UNK         0.0595 
     97 H97        26.5125  -31.8181  -38.6111 H         1 UNK         0.0839 
     98 H98        27.2625  -30.7943  -37.3958 H         1 UNK         0.0839 
     99 H99        28.1608  -31.2340  -38.8360 H         1 UNK         0.0839 
    100 H100       24.6958  -28.6367  -40.4921 H         1 UNK         0.2998 
    101 H101       22.5717  -28.1642  -40.3048 H         1 UNK         0.0822 
    102 H102       23.2127  -26.5588  -38.4958 H         1 UNK         0.0787 
    103 H103       21.6010  -27.2095  -38.2519 H         1 UNK         0.0787 
    104 H104       22.9350  -27.8101  -37.2839 H         1 UNK         0.0787 
    105 H105       23.7019  -30.9993  -39.6237 H         1 UNK         0.3055 
    106 H106       21.1975  -32.3011  -38.6711 H         1 UNK         0.1106 
    107 H107       22.6225  -34.3486  -38.6546 H         1 UNK         0.0828 
    108 H108       23.9891  -33.4336  -39.2793 H         1 UNK         0.0828 
    109 H109       23.3500  -33.0854  -37.6743 H         1 UNK         0.0828 
    110 H110       23.1768  -31.6641  -41.4971 H         1 UNK         0.2931 
    111 H111       22.8321  -31.7546  -43.6473 H         1 UNK         0.0412 
    112 H112       23.5277  -35.5293  -43.3095 H         1 UNK         0.3472 
    113 H113       23.6258  -34.3051  -42.0670 H         1 UNK         0.3472 
    114 H114       20.6233  -32.0134  -44.7083 H         1 UNK         0.0970 
    115 H115       19.9379  -32.6422  -43.2421 H         1 UNK         0.0970 
    116 H116       19.4625  -30.8713  -40.9715 H         1 UNK         0.0612 
    117 H117       18.3219  -31.2981  -42.2274 H         1 UNK         0.0612 
@<TRIPOS>BOND
     1    1    2 1    
     2    1   62 1    
     3    1   63 1    
     4    1   64 1    
     5    2    3 2    
     6    2    4 am   BACKBONE|DICT|INTERRES
     7    4    5 1    
     8    4   65 1    
     9    5    6 1    
    10    5   25 1    
    11    5   66 1    
    12    6    7 1    
    13    6   67 1    
    14    6   68 1    
    15    7    8 1    
    16    8    9 1    
    17    8   69 1    
    18    8   70 1    
    19    9   10 ar   
    20    9   14 ar   
    21   10   11 ar   
    22   10   71 1    
    23   11   12 ar   
    24   11   61 1    
    25   12   13 ar   
    26   12   72 1    
    27   13   14 ar   
    28   13   15 1    
    29   14   73 1    
    30   15   16 1    
    31   15   74 1    
    32   15   75 1    
    33   16   17 1    
    34   17   18 1    
    35   17   76 1    
    36   17   77 1    
    37   18   19 1    
    38   18   27 1    
    39   18   78 1    
    40   19   20 am   BACKBONE|DICT|INTERRES
    41   19   79 1    
    42   20   21 2    
    43   20   22 1    
    44   22   23 1    
    45   22   24 1    
    46   22   80 1    
    47   23   81 1    
    48   23   82 1    
    49   23   83 1    
    50   24   25 am   BACKBONE|DICT|INTERRES
    51   24   84 1    
    52   25   26 2    
    53   27   28 2    
    54   27   29 am   BACKBONE|DICT|INTERRES
    55   29   30 1    
    56   29   85 1    
    57   30   31 1    
    58   30   32 1    
    59   30   86 1    
    60   31   87 1    
    61   31   88 1    
    62   31   89 1    
    63   32   33 2    
    64   32   34 am   BACKBONE|DICT|INTERRES
    65   34   35 1    
    66   34   90 1    
    67   35   36 1    
    68   35   37 1    
    69   35   91 1    
    70   36   92 1    
    71   36   93 1    
    72   36   94 1    
    73   37   38 2    
    74   37   39 am   BACKBONE|DICT|INTERRES
    75   39   40 1    
    76   39   95 1    
    77   40   41 1    
    78   40   42 1    
    79   40   96 1    
    80   41   97 1    
    81   41   98 1    
    82   41   99 1    
    83   42   43 2    
    84   42   44 am   BACKBONE|DICT|INTERRES
    85   44   45 1    
    86   44  100 1    
    87   45   46 1    
    88   45   47 1    
    89   45  101 1    
    90   46  102 1    
    91   46  103 1    
    92   46  104 1    
    93   47   48 2    
    94   47   49 am   BACKBONE|DICT|INTERRES
    95   49   50 1    
    96   49  105 1    
    97   50   51 1    
    98   50   52 1    
    99   50  106 1    
   100   51  107 1    
   101   51  108 1    
   102   51  109 1    
   103   52   53 2    
   104   52   54 am   BACKBONE|DICT|INTERRES
   105   54   55 1    
   106   54  110 1    
   107   55   56 1    
   108   55   59 1    
   109   55  111 1    
   110   56   57 am   BACKBONE|DICT|INTERRES
   111   56   58 2    
   112   57  112 1    
   113   57  113 1    
   114   59   60 1    
   115   59  114 1    
   116   59  115 1    
   117   60   61 1    
   118   61  116 1    
   119   61  117 1    
@<TRIPOS>SUBSTRUCTURE
     1 UNK         1 GROUP             0       ****    0 ROOT    
