@<TRIPOS>MOLECULE
3R8
117   119    1
SMALL
USER_CHARGES


@<TRIPOS>ATOM
      1 CA         13.8066  -27.9354  -42.3363 C.3       0 UNK        -0.2013 
      2 C          14.8401  -26.8562  -42.6216 C.2       0 UNK         0.4866 
      3 O          14.8551  -25.8257  -41.9491 O.2       0 UNK        -0.5176 
      4 N          15.7109  -27.0882  -43.6126 N.am      1 UNK        -0.4884 
      5 CA         16.7529  -26.1537  -44.0691 C.3       1 UNK         0.0853 
      6 C6         17.3093  -26.5128  -45.4806 C.3       10 UNK        -0.0849 
      7 S7         16.0759  -27.2094  -46.6377 S.3       10 UNK        -0.2776 
      8 C8         16.9674  -28.6437  -47.3454 C.3       10 UNK         0.0316 
      9 C9         17.5302  -29.6265  -46.3163 C.ar      10 UNK        -0.0863 
     10 C10        16.7810  -30.0300  -45.2047 C.ar      10 UNK        -0.1009 
     11 C11        17.3013  -30.9315  -44.2695 C.ar      10 UNK        -0.0712 
     12 C12        18.5804  -31.4624  -44.4842 C.ar      10 UNK        -0.0894 
     13 C13        19.3339  -31.0899  -45.6013 C.ar      10 UNK        -0.0745 
     14 C14        18.8071  -30.1653  -46.5069 C.ar      10 UNK        -0.0972 
     15 C15        20.6936  -31.7330  -45.8535 C.3       10 UNK         0.0209 
     16 S16        22.0903  -30.5680  -45.7249 S.3       10 UNK        -0.2568 
     17 C17        21.8676  -29.8447  -44.0653 C.3       10 UNK        -0.0983 
     18 CA         21.4235  -28.3580  -44.1622 C.3       3 UNK         0.0876 
     19 N          20.3416  -28.0338  -43.2237 N.am      3 UNK        -0.4424 
     20 C          20.4361  -27.6978  -41.9276 C.2       2 UNK         0.4918 
     21 O          21.4949  -27.6741  -41.3042 O.2       2 UNK        -0.4875 
     22 CA         19.1334  -27.2715  -41.2173 C.3       2 UNK         0.0481 
     23 CB         19.3616  -26.0845  -40.2589 C.3       2 UNK        -0.1831 
     24 N          18.0215  -27.0049  -42.1413 N.am      2 UNK        -0.4498 
     25 C          17.9342  -26.0458  -43.0792 C.2       1 UNK         0.5027 
     26 O          18.7838  -25.1695  -43.2446 O.2       1 UNK        -0.4969 
     27 C          22.5941  -27.3418  -44.1276 C.2       3 UNK         0.5005 
     28 O          23.7627  -27.7320  -44.1614 O.2       3 UNK        -0.5279 
     29 N          22.2560  -26.0481  -43.9807 N.am      4 UNK        -0.4463 
     30 CA         23.1699  -24.9107  -43.7863 C.3       4 UNK         0.0283 
     31 CB         23.9637  -24.6307  -45.0801 C.3       4 UNK        -0.1875 
     32 C          24.0917  -25.0454  -42.5510 C.2       4 UNK         0.4949 
     33 O          25.1658  -24.4436  -42.5268 O.2       4 UNK        -0.5039 
     34 N          23.6640  -25.8463  -41.5617 N.am      5 UNK        -0.4663 
     35 CA         24.3794  -26.2599  -40.3492 C.3       5 UNK         0.0242 
     36 CB         24.6876  -25.0486  -39.4431 C.3       5 UNK        -0.1982 
     37 C          25.6218  -27.1345  -40.6202 C.2       5 UNK         0.5017 
     38 O          26.4602  -27.2719  -39.7275 O.2       5 UNK        -0.5012 
     39 N          25.7331  -27.7138  -41.8261 N.am      6 UNK        -0.4439 
     40 CA         26.8771  -28.5309  -42.2352 C.3       6 UNK         0.0297 
     41 CB         26.9543  -28.5806  -43.7697 C.3       6 UNK        -0.2006 
     42 C          26.8388  -29.9532  -41.6540 C.2       6 UNK         0.4892 
     43 O          27.8875  -30.4670  -41.2621 O.2       6 UNK        -0.5089 
     44 N          25.6484  -30.5649  -41.6230 N.am      7 UNK        -0.4243 
     45 CA         25.3941  -31.9500  -41.2245 C.3       7 UNK         0.0196 
     46 CB         26.0565  -32.9280  -42.2255 C.3       7 UNK        -0.2007 
     47 C          23.8742  -32.1716  -41.1558 C.2       7 UNK         0.5020 
     48 O          23.1111  -31.2104  -41.2800 O.2       7 UNK        -0.5147 
     49 N          23.4655  -33.4393  -40.9941 N.am      8 UNK        -0.4734 
     50 CA         22.0931  -33.9534  -41.0923 C.3       8 UNK         0.0238 
     51 CB         21.6372  -33.9451  -42.5702 C.3       8 UNK        -0.1912 
     52 C          21.1191  -33.2371  -40.1382 C.2       8 UNK         0.5038 
     53 O          21.1794  -33.4763  -38.9311 O.2       8 UNK        -0.5046 
     54 N          20.2532  -32.3815  -40.6946 N.am      9 UNK        -0.4200 
     55 CA         19.2933  -31.5414  -39.9657 C.3       9 UNK         0.0839 
     56 C          19.9416  -30.4109  -39.1137 C.2       9 UNK         0.5513 
     57 N          21.2195  -30.0939  -39.2795 N.am      9 UNK        -0.7519 
     58 O          19.2636  -29.8089  -38.2857 O.2       9 UNK        -0.4960 
     59 C59        18.2062  -30.9691  -40.9154 C.3       10 UNK        -0.0876 
     60 S60        17.2402  -32.2749  -41.7450 S.3       10 UNK        -0.2414 
     61 C61        16.4215  -31.3319  -43.0806 C.3       10 UNK         0.0169 
     62 H62        12.8019  -27.5190  -42.4050 H         1 UNK         0.0903 
     63 H63        13.8763  -28.7653  -43.0392 H         1 UNK         0.0903 
     64 H64        13.9434  -28.3297  -41.3297 H         1 UNK         0.0903 
     65 H65        15.6193  -27.9223  -44.1733 H         1 UNK         0.3096 
     66 H66        16.2982  -25.1621  -44.1286 H         1 UNK         0.1121 
     67 H67        18.1411  -27.2144  -45.4062 H         1 UNK         0.0849 
     68 H68        17.7345  -25.6198  -45.9428 H         1 UNK         0.0849 
     69 H69        16.2883  -29.1848  -48.0054 H         1 UNK         0.0865 
     70 H70        17.7679  -28.2613  -47.9808 H         1 UNK         0.0865 
     71 H71        15.7777  -29.6505  -45.0744 H         1 UNK         0.1346 
     72 H72        18.9904  -32.1907  -43.8008 H         1 UNK         0.1412 
     73 H73        19.3904  -29.8831  -47.3732 H         1 UNK         0.1426 
     74 H74        20.6971  -32.1668  -46.8544 H         1 UNK         0.0716 
     75 H75        20.8627  -32.5647  -45.1698 H         1 UNK         0.0716 
     76 H76        22.7938  -29.9611  -43.5027 H         1 UNK         0.0695 
     77 H77        21.1330  -30.4365  -43.5185 H         1 UNK         0.0695 
     78 H78        20.9638  -28.2060  -45.1403 H         1 UNK         0.0983 
     79 H79        19.4168  -28.0351  -43.6251 H         1 UNK         0.3095 
     80 H80        18.8208  -28.1195  -40.6103 H         1 UNK         0.0454 
     81 H81        19.7705  -25.2152  -40.7744 H         1 UNK         0.0851 
     82 H82        20.0657  -26.3518  -39.4697 H         1 UNK         0.0851 
     83 H83        18.4341  -25.7825  -39.7730 H         1 UNK         0.0851 
     84 H84        17.2541  -27.6612  -42.1031 H         1 UNK         0.2976 
     85 H85        21.2705  -25.8237  -43.9240 H         1 UNK         0.3116 
     86 H86        22.5364  -24.0438  -43.5931 H         1 UNK         0.0646 
     87 H87        23.3007  -24.5241  -45.9384 H         1 UNK         0.0847 
     88 H88        24.6722  -25.4301  -45.3000 H         1 UNK         0.0847 
     89 H89        24.5348  -23.7051  -44.9985 H         1 UNK         0.0847 
     90 H90        22.7790  -26.3306  -41.6914 H         1 UNK         0.3040 
     91 H91        23.6866  -26.9041  -39.8051 H         1 UNK         0.1015 
     92 H92        25.4447  -24.3966  -39.8795 H         1 UNK         0.0786 
     93 H93        25.0618  -25.3719  -38.4710 H         1 UNK         0.0786 
     94 H94        23.7938  -24.4520  -39.2609 H         1 UNK         0.0786 
     95 H95        25.0020  -27.5678  -42.5166 H         1 UNK         0.3172 
     96 H96        27.7885  -28.0481  -41.8757 H         1 UNK         0.0595 
     97 H97        26.0887  -29.0830  -44.2036 H         1 UNK         0.0839 
     98 H98        27.8420  -29.1234  -44.0971 H         1 UNK         0.0839 
     99 H99        27.0088  -27.5795  -44.1981 H         1 UNK         0.0839 
    100 H100       24.8150  -30.0596  -41.9006 H         1 UNK         0.2998 
    101 H101       25.8050  -32.1067  -40.2253 H         1 UNK         0.0822 
    102 H102       27.1314  -32.7680  -42.3037 H         1 UNK         0.0787 
    103 H103       25.9255  -33.9673  -41.9235 H         1 UNK         0.0787 
    104 H104       25.6333  -32.8212  -43.2253 H         1 UNK         0.0787 
    105 H105       24.1752  -34.1430  -40.8450 H         1 UNK         0.3055 
    106 H106       22.1208  -34.9940  -40.7640 H         1 UNK         0.1106 
    107 H107       21.6751  -32.9459  -43.0038 H         1 UNK         0.0828 
    108 H108       20.6187  -34.3218  -42.6763 H         1 UNK         0.0828 
    109 H109       22.2767  -34.5857  -43.1775 H         1 UNK         0.0828 
    110 H110       20.3072  -32.2326  -41.6891 H         1 UNK         0.2931 
    111 H111       18.7877  -32.1928  -39.2500 H         1 UNK         0.0412 
    112 H112       21.7853  -30.5507  -39.9882 H         1 UNK         0.3472 
    113 H113       21.6158  -29.3489  -38.7310 H         1 UNK         0.3472 
    114 H114       18.6643  -30.3321  -41.6733 H         1 UNK         0.0970 
    115 H115       17.5038  -30.3410  -40.3638 H         1 UNK         0.0970 
    116 H116       15.5985  -31.9388  -43.4602 H         1 UNK         0.0612 
    117 H117       15.9694  -30.4399  -42.6445 H         1 UNK         0.0612 
@<TRIPOS>BOND
     1    1    2 1    
     2    1   62 1    
     3    1   63 1    
     4    1   64 1    
     5    2    3 2    
     6    2    4 am   BACKBONE|DICT|INTERRES
     7    4    5 1    
     8    4   65 1    
     9    5    6 1    
    10    5   25 1    
    11    5   66 1    
    12    6    7 1    
    13    6   67 1    
    14    6   68 1    
    15    7    8 1    
    16    8    9 1    
    17    8   69 1    
    18    8   70 1    
    19    9   10 ar   
    20    9   14 ar   
    21   10   11 ar   
    22   10   71 1    
    23   11   12 ar   
    24   11   61 1    
    25   12   13 ar   
    26   12   72 1    
    27   13   14 ar   
    28   13   15 1    
    29   14   73 1    
    30   15   16 1    
    31   15   74 1    
    32   15   75 1    
    33   16   17 1    
    34   17   18 1    
    35   17   76 1    
    36   17   77 1    
    37   18   19 1    
    38   18   27 1    
    39   18   78 1    
    40   19   20 am   BACKBONE|DICT|INTERRES
    41   19   79 1    
    42   20   21 2    
    43   20   22 1    
    44   22   23 1    
    45   22   24 1    
    46   22   80 1    
    47   23   81 1    
    48   23   82 1    
    49   23   83 1    
    50   24   25 am   BACKBONE|DICT|INTERRES
    51   24   84 1    
    52   25   26 2    
    53   27   28 2    
    54   27   29 am   BACKBONE|DICT|INTERRES
    55   29   30 1    
    56   29   85 1    
    57   30   31 1    
    58   30   32 1    
    59   30   86 1    
    60   31   87 1    
    61   31   88 1    
    62   31   89 1    
    63   32   33 2    
    64   32   34 am   BACKBONE|DICT|INTERRES
    65   34   35 1    
    66   34   90 1    
    67   35   36 1    
    68   35   37 1    
    69   35   91 1    
    70   36   92 1    
    71   36   93 1    
    72   36   94 1    
    73   37   38 2    
    74   37   39 am   BACKBONE|DICT|INTERRES
    75   39   40 1    
    76   39   95 1    
    77   40   41 1    
    78   40   42 1    
    79   40   96 1    
    80   41   97 1    
    81   41   98 1    
    82   41   99 1    
    83   42   43 2    
    84   42   44 am   BACKBONE|DICT|INTERRES
    85   44   45 1    
    86   44  100 1    
    87   45   46 1    
    88   45   47 1    
    89   45  101 1    
    90   46  102 1    
    91   46  103 1    
    92   46  104 1    
    93   47   48 2    
    94   47   49 am   BACKBONE|DICT|INTERRES
    95   49   50 1    
    96   49  105 1    
    97   50   51 1    
    98   50   52 1    
    99   50  106 1    
   100   51  107 1    
   101   51  108 1    
   102   51  109 1    
   103   52   53 2    
   104   52   54 am   BACKBONE|DICT|INTERRES
   105   54   55 1    
   106   54  110 1    
   107   55   56 1    
   108   55   59 1    
   109   55  111 1    
   110   56   57 am   BACKBONE|DICT|INTERRES
   111   56   58 2    
   112   57  112 1    
   113   57  113 1    
   114   59   60 1    
   115   59  114 1    
   116   59  115 1    
   117   60   61 1    
   118   61  116 1    
   119   61  117 1    
@<TRIPOS>SUBSTRUCTURE
     1 UNK         1 GROUP             0       ****    0 ROOT    
