@<TRIPOS>MOLECULE
3R8
117   119    1
SMALL
USER_CHARGES


@<TRIPOS>ATOM
      1 CA         12.7870  -26.5382  -46.8797 C.3       0 UNK        -0.2013 
      2 C          14.0468  -27.1768  -46.3143 C.2       0 UNK         0.4866 
      3 O          14.3257  -28.3413  -46.6027 O.2       0 UNK        -0.5176 
      4 N          14.8042  -26.4283  -45.5032 N.am      1 UNK        -0.4884 
      5 CA         16.0723  -26.8642  -44.9098 C.3       1 UNK         0.0853 
      6 C6         16.4930  -25.9610  -43.7240 C.3       10 UNK        -0.0849 
      7 S7         15.3664  -26.0693  -42.2928 S.3       10 UNK        -0.2776 
      8 C8         15.6446  -27.7664  -41.6700 C.3       10 UNK         0.0316 
      9 C9         17.1177  -28.1478  -41.5649 C.ar      10 UNK        -0.0863 
     10 C10        17.6165  -29.2324  -42.2929 C.ar      10 UNK        -0.1009 
     11 C11        18.9631  -29.5959  -42.1966 C.ar      10 UNK        -0.0712 
     12 C12        19.8124  -28.8665  -41.3596 C.ar      10 UNK        -0.0894 
     13 C13        19.3366  -27.7579  -40.6522 C.ar      10 UNK        -0.0745 
     14 C14        17.9833  -27.4171  -40.7453 C.ar      10 UNK        -0.0972 
     15 C15        20.2738  -26.9082  -39.7972 C.3       10 UNK         0.0209 
     16 S16        21.7699  -26.3137  -40.6693 S.3       10 UNK        -0.2568 
     17 C17        21.1608  -25.8181  -42.3180 C.3       10 UNK        -0.0983 
     18 CA         21.6353  -26.8112  -43.4141 C.3       3 UNK         0.0876 
     19 N          20.6766  -26.9024  -44.5138 N.am      3 UNK        -0.4424 
     20 C          20.6276  -27.9103  -45.3943 C.2       2 UNK         0.4918 
     21 O          21.3984  -28.8707  -45.3816 O.2       2 UNK        -0.4875 
     22 CA         19.4705  -27.8580  -46.4024 C.3       2 UNK         0.0481 
     23 CB         19.4028  -29.0964  -47.3159 C.3       2 UNK        -0.1831 
     24 N          18.2230  -27.7315  -45.6522 N.am      2 UNK        -0.4498 
     25 C          17.2064  -26.9166  -45.9533 C.2       1 UNK         0.5027 
     26 O          17.1694  -26.1970  -46.9551 O.2       1 UNK        -0.4969 
     27 C          23.0469  -26.4676  -43.9235 C.2       3 UNK         0.5005 
     28 O          23.1888  -25.6209  -44.8095 O.2       3 UNK        -0.5279 
     29 N          24.0578  -27.0989  -43.3159 N.am      4 UNK        -0.4463 
     30 CA         25.4812  -26.8425  -43.5485 C.3       4 UNK         0.0283 
     31 CB         26.1295  -28.1130  -44.1303 C.3       4 UNK        -0.1875 
     32 C          26.1441  -26.3897  -42.2357 C.2       4 UNK         0.4949 
     33 O          27.2530  -26.8261  -41.9257 O.2       4 UNK        -0.5039 
     34 N          25.4181  -25.5644  -41.4615 N.am      5 UNK        -0.4663 
     35 CA         25.7084  -25.1504  -40.0774 C.3       5 UNK         0.0242 
     36 CB         26.9905  -24.2935  -40.0065 C.3       5 UNK        -0.1982 
     37 C          25.7233  -26.3370  -39.0879 C.2       5 UNK         0.5017 
     38 O          26.3886  -26.2753  -38.0525 O.2       5 UNK        -0.5012 
     39 N          24.9822  -27.3928  -39.4372 N.am      6 UNK        -0.4439 
     40 CA         24.8576  -28.6803  -38.7712 C.3       6 UNK         0.0297 
     41 CB         26.1903  -29.4536  -38.8260 C.3       6 UNK        -0.2006 
     42 C          23.7626  -29.4579  -39.5100 C.2       6 UNK         0.4892 
     43 O          23.4811  -29.1606  -40.6785 O.2       6 UNK        -0.5089 
     44 N          23.1880  -30.4549  -38.8264 N.am      7 UNK        -0.4243 
     45 CA         22.1382  -31.3498  -39.3217 C.3       7 UNK         0.0196 
     46 CB         21.4557  -32.0296  -38.1204 C.3       7 UNK        -0.2007 
     47 C          22.6644  -32.3650  -40.3557 C.2       7 UNK         0.5020 
     48 O          22.6118  -33.5741  -40.1264 O.2       7 UNK        -0.5147 
     49 N          23.1677  -31.8571  -41.4853 N.am      8 UNK        -0.4734 
     50 CA         23.6905  -32.6155  -42.6249 C.3       8 UNK         0.0238 
     51 CB         24.6489  -31.7044  -43.4152 C.3       8 UNK        -0.1912 
     52 C          22.5614  -33.1942  -43.5028 C.2       8 UNK         0.5038 
     53 O          22.5287  -32.9504  -44.7103 O.2       8 UNK        -0.5046 
     54 N          21.6427  -33.9319  -42.8754 N.am      9 UNK        -0.4200 
     55 CA         20.4392  -34.5126  -43.4751 C.3       9 UNK         0.0839 
     56 C          19.8723  -35.6609  -42.5995 C.2       9 UNK         0.5513 
     57 N          18.9626  -36.4600  -43.1406 N.am      9 UNK        -0.7519 
     58 O          20.2441  -35.8403  -41.4412 O.2       9 UNK        -0.4960 
     59 C59        19.3730  -33.4393  -43.8393 C.3       10 UNK        -0.0876 
     60 S60        18.8812  -32.3544  -42.4490 S.3       10 UNK        -0.2414 
     61 C61        19.5010  -30.7473  -43.0331 C.3       10 UNK         0.0169 
     62 H62        12.6659  -25.5076  -46.5435 H         1 UNK         0.0903 
     63 H63        12.8238  -26.5374  -47.9697 H         1 UNK         0.0903 
     64 H64        11.9077  -27.1029  -46.5678 H         1 UNK         0.0903 
     65 H65        14.5350  -25.4746  -45.3076 H         1 UNK         0.3096 
     66 H66        15.9300  -27.8826  -44.5428 H         1 UNK         0.1121 
     67 H67        17.5014  -26.1953  -43.3785 H         1 UNK         0.0849 
     68 H68        16.5342  -24.9173  -44.0416 H         1 UNK         0.0849 
     69 H69        15.1866  -27.8562  -40.6841 H         1 UNK         0.0865 
     70 H70        15.1084  -28.4667  -42.3121 H         1 UNK         0.0865 
     71 H71        16.9581  -29.8039  -42.9332 H         1 UNK         0.1346 
     72 H72        20.8573  -29.1305  -41.2893 H         1 UNK         0.1412 
     73 H73        17.6007  -26.5679  -40.1952 H         1 UNK         0.1426 
     74 H74        20.5855  -27.4924  -38.9304 H         1 UNK         0.0716 
     75 H75        19.7464  -26.0372  -39.4053 H         1 UNK         0.0716 
     76 H76        20.0718  -25.7666  -42.2858 H         1 UNK         0.0695 
     77 H77        21.4874  -24.7976  -42.5282 H         1 UNK         0.0695 
     78 H78        21.6884  -27.8114  -42.9823 H         1 UNK         0.0983 
     79 H79        20.0355  -26.1308  -44.6189 H         1 UNK         0.3095 
     80 H80        19.6320  -26.9755  -47.0246 H         1 UNK         0.0454 
     81 H81        20.3236  -29.2097  -47.8892 H         1 UNK         0.0851 
     82 H82        19.2586  -30.0133  -46.7435 H         1 UNK         0.0851 
     83 H83        18.5840  -29.0157  -48.0307 H         1 UNK         0.0851 
     84 H84        18.1888  -28.2537  -44.7871 H         1 UNK         0.2976 
     85 H85        23.8429  -27.7703  -42.5876 H         1 UNK         0.3116 
     86 H86        25.6176  -26.0308  -44.2658 H         1 UNK         0.0646 
     87 H87        27.1775  -27.9404  -44.3781 H         1 UNK         0.0847 
     88 H88        25.6294  -28.4304  -45.0454 H         1 UNK         0.0847 
     89 H89        26.0934  -28.9423  -43.4232 H         1 UNK         0.0847 
     90 H90        24.5232  -25.2626  -41.8226 H         1 UNK         0.3040 
     91 H91        24.8741  -24.5187  -39.7674 H         1 UNK         0.1015 
     92 H92        26.9546  -23.4659  -40.7150 H         1 UNK         0.0786 
     93 H93        27.8846  -24.8801  -40.2197 H         1 UNK         0.0786 
     94 H94        27.1174  -23.8619  -39.0129 H         1 UNK         0.0786 
     95 H95        24.4283  -27.3371  -40.2829 H         1 UNK         0.3172 
     96 H96        24.5528  -28.5180  -37.7355 H         1 UNK         0.0595 
     97 H97        26.9805  -28.9332  -38.2850 H         1 UNK         0.0839 
     98 H98        26.5284  -29.5954  -39.8537 H         1 UNK         0.0839 
     99 H99        26.0931  -30.4416  -38.3746 H         1 UNK         0.0839 
    100 H100       23.5165  -30.6396  -37.8893 H         1 UNK         0.2998 
    101 H101       21.3797  -30.7490  -39.8231 H         1 UNK         0.0822 
    102 H102       21.0234  -31.2946  -37.4413 H         1 UNK         0.0787 
    103 H103       20.6432  -32.6789  -38.4502 H         1 UNK         0.0787 
    104 H104       22.1547  -32.6443  -37.5519 H         1 UNK         0.0787 
    105 H105       23.2091  -30.8439  -41.5519 H         1 UNK         0.3055 
    106 H106       24.2671  -33.4628  -42.2474 H         1 UNK         0.1106 
    107 H107       24.1326  -30.8348  -43.8245 H         1 UNK         0.0828 
    108 H108       25.4634  -31.3461  -42.7856 H         1 UNK         0.0828 
    109 H109       25.1000  -32.2402  -44.2512 H         1 UNK         0.0828 
    110 H110       21.7468  -34.1014  -41.8786 H         1 UNK         0.2931 
    111 H111       20.7593  -34.9909  -44.4030 H         1 UNK         0.0412 
    112 H112       18.5814  -37.2119  -42.5872 H         1 UNK         0.3472 
    113 H113       18.6537  -36.3339  -44.0920 H         1 UNK         0.3472 
    114 H114       19.7518  -32.8271  -44.6587 H         1 UNK         0.0970 
    115 H115       18.4730  -33.9104  -44.2373 H         1 UNK         0.0970 
    116 H116       19.2003  -30.5961  -44.0707 H         1 UNK         0.0612 
    117 H117       20.5922  -30.7590  -43.0261 H         1 UNK         0.0612 
@<TRIPOS>BOND
     1    1    2 1    
     2    1   62 1    
     3    1   63 1    
     4    1   64 1    
     5    2    3 2    
     6    2    4 am   BACKBONE|DICT|INTERRES
     7    4    5 1    
     8    4   65 1    
     9    5    6 1    
    10    5   25 1    
    11    5   66 1    
    12    6    7 1    
    13    6   67 1    
    14    6   68 1    
    15    7    8 1    
    16    8    9 1    
    17    8   69 1    
    18    8   70 1    
    19    9   10 ar   
    20    9   14 ar   
    21   10   11 ar   
    22   10   71 1    
    23   11   12 ar   
    24   11   61 1    
    25   12   13 ar   
    26   12   72 1    
    27   13   14 ar   
    28   13   15 1    
    29   14   73 1    
    30   15   16 1    
    31   15   74 1    
    32   15   75 1    
    33   16   17 1    
    34   17   18 1    
    35   17   76 1    
    36   17   77 1    
    37   18   19 1    
    38   18   27 1    
    39   18   78 1    
    40   19   20 am   BACKBONE|DICT|INTERRES
    41   19   79 1    
    42   20   21 2    
    43   20   22 1    
    44   22   23 1    
    45   22   24 1    
    46   22   80 1    
    47   23   81 1    
    48   23   82 1    
    49   23   83 1    
    50   24   25 am   BACKBONE|DICT|INTERRES
    51   24   84 1    
    52   25   26 2    
    53   27   28 2    
    54   27   29 am   BACKBONE|DICT|INTERRES
    55   29   30 1    
    56   29   85 1    
    57   30   31 1    
    58   30   32 1    
    59   30   86 1    
    60   31   87 1    
    61   31   88 1    
    62   31   89 1    
    63   32   33 2    
    64   32   34 am   BACKBONE|DICT|INTERRES
    65   34   35 1    
    66   34   90 1    
    67   35   36 1    
    68   35   37 1    
    69   35   91 1    
    70   36   92 1    
    71   36   93 1    
    72   36   94 1    
    73   37   38 2    
    74   37   39 am   BACKBONE|DICT|INTERRES
    75   39   40 1    
    76   39   95 1    
    77   40   41 1    
    78   40   42 1    
    79   40   96 1    
    80   41   97 1    
    81   41   98 1    
    82   41   99 1    
    83   42   43 2    
    84   42   44 am   BACKBONE|DICT|INTERRES
    85   44   45 1    
    86   44  100 1    
    87   45   46 1    
    88   45   47 1    
    89   45  101 1    
    90   46  102 1    
    91   46  103 1    
    92   46  104 1    
    93   47   48 2    
    94   47   49 am   BACKBONE|DICT|INTERRES
    95   49   50 1    
    96   49  105 1    
    97   50   51 1    
    98   50   52 1    
    99   50  106 1    
   100   51  107 1    
   101   51  108 1    
   102   51  109 1    
   103   52   53 2    
   104   52   54 am   BACKBONE|DICT|INTERRES
   105   54   55 1    
   106   54  110 1    
   107   55   56 1    
   108   55   59 1    
   109   55  111 1    
   110   56   57 am   BACKBONE|DICT|INTERRES
   111   56   58 2    
   112   57  112 1    
   113   57  113 1    
   114   59   60 1    
   115   59  114 1    
   116   59  115 1    
   117   60   61 1    
   118   61  116 1    
   119   61  117 1    
@<TRIPOS>SUBSTRUCTURE
     1 UNK         1 GROUP             0       ****    0 ROOT    
