@<TRIPOS>MOLECULE
3R8
117   119    1
SMALL
USER_CHARGES


@<TRIPOS>ATOM
      1 CA         16.6670  -26.6729  -40.9509 C.3       0 UNK        -0.2013 
      2 C          16.2154  -26.0447  -42.2606 C.2       0 UNK         0.4866 
      3 O          15.1210  -25.4840  -42.3214 O.2       0 UNK        -0.5176 
      4 N          17.0503  -26.1242  -43.3027 N.am      1 UNK        -0.4884 
      5 CA         16.8157  -25.4984  -44.6030 C.3       1 UNK         0.0853 
      6 C6         15.8790  -26.3322  -45.5267 C.3       10 UNK        -0.0849 
      7 S7         16.5601  -27.8691  -46.2452 S.3       10 UNK        -0.2776 
      8 C8         16.3973  -29.0853  -44.8930 C.3       10 UNK         0.0316 
      9 C9         17.7471  -29.4525  -44.2838 C.ar      10 UNK        -0.0863 
     10 C10        17.9231  -29.4664  -42.8962 C.ar      10 UNK        -0.1009 
     11 C11        19.1580  -29.8163  -42.3403 C.ar      10 UNK        -0.0712 
     12 C12        20.2209  -30.1550  -43.1815 C.ar      10 UNK        -0.0894 
     13 C13        20.0620  -30.1456  -44.5693 C.ar      10 UNK        -0.0745 
     14 C14        18.8169  -29.8139  -45.1095 C.ar      10 UNK        -0.0972 
     15 C15        21.2199  -30.5235  -45.4847 C.3       10 UNK         0.0209 
     16 S16        21.5484  -29.2594  -46.7558 S.3       10 UNK        -0.2568 
     17 C17        22.7711  -28.1548  -45.9593 C.3       10 UNK        -0.0983 
     18 CA         22.1996  -26.9185  -45.1985 C.3       3 UNK         0.0876 
     19 N          21.0055  -26.3532  -45.8303 N.am      3 UNK        -0.4424 
     20 C          20.9821  -25.2938  -46.6449 C.2       2 UNK         0.4918 
     21 O          21.9811  -24.6403  -46.9474 O.2       2 UNK        -0.4875 
     22 CA         19.6145  -24.8784  -47.2258 C.3       2 UNK         0.0481 
     23 CB         19.4840  -25.3811  -48.6725 C.3       2 UNK        -0.1831 
     24 N          18.4378  -25.3195  -46.4642 N.am      2 UNK        -0.4498 
     25 C          18.1638  -25.0257  -45.1862 C.2       1 UNK         0.5027 
     26 O          18.9366  -24.3949  -44.4622 O.2       1 UNK        -0.4969 
     27 C          21.9704  -27.1310  -43.6879 C.2       3 UNK         0.5005 
     28 O          22.5015  -28.0831  -43.1200 O.2       3 UNK        -0.5279 
     29 N          21.2114  -26.2197  -43.0516 N.am      4 UNK        -0.4463 
     30 CA         20.8119  -26.2481  -41.6340 C.3       4 UNK         0.0283 
     31 CB         19.9933  -24.9865  -41.3109 C.3       4 UNK        -0.1875 
     32 C          21.9471  -26.3794  -40.5994 C.2       4 UNK         0.4949 
     33 O          21.6857  -26.8267  -39.4813 O.2       4 UNK        -0.5039 
     34 N          23.1713  -25.9748  -40.9625 N.am      5 UNK        -0.4663 
     35 CA         24.3816  -26.0691  -40.1428 C.3       5 UNK         0.0242 
     36 CB         25.4541  -25.1381  -40.7391 C.3       5 UNK        -0.1982 
     37 C          24.8708  -27.5263  -40.0102 C.2       5 UNK         0.5017 
     38 O          25.8945  -27.8872  -40.5942 O.2       5 UNK        -0.5012 
     39 N          24.1137  -28.3287  -39.2486 N.am      6 UNK        -0.4439 
     40 CA         24.2693  -29.7681  -39.0251 C.3       6 UNK         0.0297 
     41 CB         25.5937  -30.0977  -38.2989 C.3       6 UNK        -0.2006 
     42 C          24.0464  -30.5466  -40.3321 C.2       6 UNK         0.4892 
     43 O          22.8937  -30.6810  -40.7439 O.2       6 UNK        -0.5089 
     44 N          25.1286  -31.0508  -40.9457 N.am      7 UNK        -0.4243 
     45 CA         25.1522  -31.8308  -42.1885 C.3       7 UNK         0.0196 
     46 CB         24.8300  -30.9214  -43.3966 C.3       7 UNK        -0.2007 
     47 C          24.2545  -33.0770  -42.0748 C.2       7 UNK         0.5020 
     48 O          24.5619  -33.9625  -41.2755 O.2       7 UNK        -0.5147 
     49 N          23.1430  -33.1074  -42.8226 N.am      8 UNK        -0.4734 
     50 CA         22.1191  -34.1566  -42.7654 C.3       8 UNK         0.0238 
     51 CB         21.0931  -33.9283  -43.8872 C.3       8 UNK        -0.1912 
     52 C          21.4075  -34.2659  -41.4024 C.2       8 UNK         0.5038 
     53 O          20.9134  -35.3466  -41.0779 O.2       8 UNK        -0.5046 
     54 N          21.3818  -33.1703  -40.6318 N.am      9 UNK        -0.4200 
     55 CA         20.8690  -33.1246  -39.2547 C.3       9 UNK         0.0839 
     56 C          21.9449  -33.4748  -38.1846 C.2       9 UNK         0.5513 
     57 N          23.1877  -33.7778  -38.5455 N.am      9 UNK        -0.7519 
     58 O          21.6422  -33.4838  -36.9944 O.2       9 UNK        -0.4960 
     59 C59        20.1709  -31.7748  -38.9361 C.3       10 UNK        -0.0876 
     60 S60        18.8130  -31.3942  -40.0996 S.3       10 UNK        -0.2414 
     61 C61        19.3582  -29.8202  -40.8332 C.3       10 UNK         0.0169 
     62 H62        16.0346  -27.5246  -40.7025 H         1 UNK         0.0903 
     63 H63        17.6998  -27.0127  -40.9993 H         1 UNK         0.0903 
     64 H64        16.5923  -25.9465  -40.1422 H         1 UNK         0.0903 
     65 H65        17.9455  -26.5826  -43.2061 H         1 UNK         0.3096 
     66 H66        16.2905  -24.5588  -44.4138 H         1 UNK         0.1121 
     67 H67        14.9595  -26.5776  -44.9931 H         1 UNK         0.0849 
     68 H68        15.5532  -25.7067  -46.3597 H         1 UNK         0.0849 
     69 H69        15.7127  -28.7087  -44.1318 H         1 UNK         0.0865 
     70 H70        15.9411  -29.9920  -45.2924 H         1 UNK         0.0865 
     71 H71        17.0970  -29.2181  -42.2452 H         1 UNK         0.1346 
     72 H72        21.1788  -30.4121  -42.7503 H         1 UNK         0.1412 
     73 H73        18.6851  -29.8254  -46.1830 H         1 UNK         0.1426 
     74 H74        20.9686  -31.4589  -45.9860 H         1 UNK         0.0716 
     75 H75        22.1292  -30.7148  -44.9159 H         1 UNK         0.0716 
     76 H76        23.3933  -27.7815  -46.7740 H         1 UNK         0.0695 
     77 H77        23.4561  -28.7419  -45.3457 H         1 UNK         0.0695 
     78 H78        22.9884  -26.1631  -45.2151 H         1 UNK         0.0983 
     79 H79        20.1430  -26.8491  -45.6570 H         1 UNK         0.3095 
     80 H80        19.5941  -23.7871  -47.2428 H         1 UNK         0.0454 
     81 H81        19.4645  -26.4709  -48.7191 H         1 UNK         0.0851 
     82 H82        20.3241  -25.0447  -49.2819 H         1 UNK         0.0851 
     83 H83        18.5755  -25.0070  -49.1447 H         1 UNK         0.0851 
     84 H84        17.7713  -25.8980  -46.9596 H         1 UNK         0.2976 
     85 H85        20.8241  -25.4634  -43.6034 H         1 UNK         0.3116 
     86 H86        20.1676  -27.1183  -41.5071 H         1 UNK         0.0646 
     87 H87        19.6653  -24.9860  -40.2702 H         1 UNK         0.0847 
     88 H88        19.0976  -24.9120  -41.9221 H         1 UNK         0.0847 
     89 H89        20.5771  -24.0785  -41.4671 H         1 UNK         0.0847 
     90 H90        23.2943  -25.6549  -41.9115 H         1 UNK         0.3040 
     91 H91        24.1508  -25.7085  -39.1377 H         1 UNK         0.1015 
     92 H92        25.1166  -24.1016  -40.7534 H         1 UNK         0.0786 
     93 H93        25.7144  -25.4209  -41.7600 H         1 UNK         0.0786 
     94 H94        26.3705  -25.1705  -40.1480 H         1 UNK         0.0786 
     95 H95        23.2321  -27.9325  -38.9336 H         1 UNK         0.3172 
     96 H96        23.4567  -30.0612  -38.3583 H         1 UNK         0.0595 
     97 H97        26.4747  -29.7913  -38.8629 H         1 UNK         0.0839 
     98 H98        25.6780  -31.1692  -38.1111 H         1 UNK         0.0839 
     99 H99        25.6385  -29.6009  -37.3298 H         1 UNK         0.0839 
    100 H100       26.0269  -30.8870  -40.5142 H         1 UNK         0.2998 
    101 H101       26.1717  -32.1991  -42.3122 H         1 UNK         0.0822 
    102 H102       23.8531  -30.4465  -43.3049 H         1 UNK         0.0787 
    103 H103       25.5654  -30.1216  -43.4847 H         1 UNK         0.0787 
    104 H104       24.8506  -31.4782  -44.3344 H         1 UNK         0.0787 
    105 H105       22.9595  -32.3205  -43.4262 H         1 UNK         0.3055 
    106 H106       22.6174  -35.1121  -42.9443 H         1 UNK         0.1106 
    107 H107       20.5367  -33.0019  -43.7430 H         1 UNK         0.0828 
    108 H108       21.5707  -33.8899  -44.8662 H         1 UNK         0.0828 
    109 H109       20.3640  -34.7392  -43.9163 H         1 UNK         0.0828 
    110 H110       21.8492  -32.3258  -40.9481 H         1 UNK         0.2931 
    111 H111       20.1045  -33.8972  -39.1533 H         1 UNK         0.0412 
    112 H112       23.4622  -33.8076  -39.5201 H         1 UNK         0.3472 
    113 H113       23.8589  -34.0120  -37.8316 H         1 UNK         0.3472 
    114 H114       19.7373  -31.8025  -37.9348 H         1 UNK         0.0970 
    115 H115       20.9009  -30.9648  -38.9172 H         1 UNK         0.0970 
    116 H116       20.4070  -29.6238  -40.6088 H         1 UNK         0.0612 
    117 H117       18.7964  -29.0077  -40.3729 H         1 UNK         0.0612 
@<TRIPOS>BOND
     1    1    2 1    
     2    1   62 1    
     3    1   63 1    
     4    1   64 1    
     5    2    3 2    
     6    2    4 am   BACKBONE|DICT|INTERRES
     7    4    5 1    
     8    4   65 1    
     9    5    6 1    
    10    5   25 1    
    11    5   66 1    
    12    6    7 1    
    13    6   67 1    
    14    6   68 1    
    15    7    8 1    
    16    8    9 1    
    17    8   69 1    
    18    8   70 1    
    19    9   10 ar   
    20    9   14 ar   
    21   10   11 ar   
    22   10   71 1    
    23   11   12 ar   
    24   11   61 1    
    25   12   13 ar   
    26   12   72 1    
    27   13   14 ar   
    28   13   15 1    
    29   14   73 1    
    30   15   16 1    
    31   15   74 1    
    32   15   75 1    
    33   16   17 1    
    34   17   18 1    
    35   17   76 1    
    36   17   77 1    
    37   18   19 1    
    38   18   27 1    
    39   18   78 1    
    40   19   20 am   BACKBONE|DICT|INTERRES
    41   19   79 1    
    42   20   21 2    
    43   20   22 1    
    44   22   23 1    
    45   22   24 1    
    46   22   80 1    
    47   23   81 1    
    48   23   82 1    
    49   23   83 1    
    50   24   25 am   BACKBONE|DICT|INTERRES
    51   24   84 1    
    52   25   26 2    
    53   27   28 2    
    54   27   29 am   BACKBONE|DICT|INTERRES
    55   29   30 1    
    56   29   85 1    
    57   30   31 1    
    58   30   32 1    
    59   30   86 1    
    60   31   87 1    
    61   31   88 1    
    62   31   89 1    
    63   32   33 2    
    64   32   34 am   BACKBONE|DICT|INTERRES
    65   34   35 1    
    66   34   90 1    
    67   35   36 1    
    68   35   37 1    
    69   35   91 1    
    70   36   92 1    
    71   36   93 1    
    72   36   94 1    
    73   37   38 2    
    74   37   39 am   BACKBONE|DICT|INTERRES
    75   39   40 1    
    76   39   95 1    
    77   40   41 1    
    78   40   42 1    
    79   40   96 1    
    80   41   97 1    
    81   41   98 1    
    82   41   99 1    
    83   42   43 2    
    84   42   44 am   BACKBONE|DICT|INTERRES
    85   44   45 1    
    86   44  100 1    
    87   45   46 1    
    88   45   47 1    
    89   45  101 1    
    90   46  102 1    
    91   46  103 1    
    92   46  104 1    
    93   47   48 2    
    94   47   49 am   BACKBONE|DICT|INTERRES
    95   49   50 1    
    96   49  105 1    
    97   50   51 1    
    98   50   52 1    
    99   50  106 1    
   100   51  107 1    
   101   51  108 1    
   102   51  109 1    
   103   52   53 2    
   104   52   54 am   BACKBONE|DICT|INTERRES
   105   54   55 1    
   106   54  110 1    
   107   55   56 1    
   108   55   59 1    
   109   55  111 1    
   110   56   57 am   BACKBONE|DICT|INTERRES
   111   56   58 2    
   112   57  112 1    
   113   57  113 1    
   114   59   60 1    
   115   59  114 1    
   116   59  115 1    
   117   60   61 1    
   118   61  116 1    
   119   61  117 1    
@<TRIPOS>SUBSTRUCTURE
     1 UNK         1 GROUP             0       ****    0 ROOT    
