@<TRIPOS>MOLECULE
3R8
117   119    1
SMALL
USER_CHARGES


@<TRIPOS>ATOM
      1 CA         15.7028  -24.1769  -48.1721 C.3       0 UNK        -0.2013 
      2 C          16.6603  -24.9433  -47.2726 C.2       0 UNK         0.4866 
      3 O          17.6604  -25.4775  -47.7538 O.2       0 UNK        -0.5176 
      4 N          16.3745  -24.9929  -45.9655 N.am      1 UNK        -0.4884 
      5 CA         17.1495  -25.7032  -44.9389 C.3       1 UNK         0.0853 
      6 C6         16.2807  -26.0332  -43.6950 C.3       10 UNK        -0.0849 
      7 S7         14.9442  -27.2157  -44.0768 S.3       10 UNK        -0.2776 
      8 C8         15.2401  -28.5414  -42.8478 C.3       10 UNK         0.0316 
      9 C9         16.6052  -29.2234  -42.9540 C.ar      10 UNK        -0.0863 
     10 C10        17.2697  -29.6275  -41.7885 C.ar      10 UNK        -0.1009 
     11 C11        18.5142  -30.2625  -41.8617 C.ar      10 UNK        -0.0712 
     12 C12        19.1003  -30.4820  -43.1086 C.ar      10 UNK        -0.0894 
     13 C13        18.4468  -30.0967  -44.2788 C.ar      10 UNK        -0.0745 
     14 C14        17.1958  -29.4797  -44.1973 C.ar      10 UNK        -0.0972 
     15 C15        19.0849  -30.3527  -45.6326 C.3       10 UNK         0.0209 
     16 S16        19.9364  -28.8728  -46.2526 S.3       10 UNK        -0.2568 
     17 C17        21.5470  -28.9180  -45.3756 C.3       10 UNK        -0.0983 
     18 CA         21.8475  -27.6900  -44.4619 C.3       3 UNK         0.0876 
     19 N          21.2581  -26.4675  -45.0069 N.am      3 UNK        -0.4424 
     20 C          21.5812  -25.1978  -44.7390 C.2       2 UNK         0.4918 
     21 O          22.5071  -24.8624  -44.0016 O.2       2 UNK        -0.4875 
     22 CA         20.6584  -24.1343  -45.3678 C.3       2 UNK         0.0481 
     23 CB         21.2218  -23.6583  -46.7152 C.3       2 UNK        -0.1831 
     24 N          19.2894  -24.6362  -45.5599 N.am      2 UNK        -0.4498 
     25 C          18.4505  -24.9541  -44.5636 C.2       1 UNK         0.5027 
     26 O          18.7037  -24.7082  -43.3847 O.2       1 UNK        -0.4969 
     27 C          21.5179  -27.9476  -42.9703 C.2       3 UNK         0.5005 
     28 O          22.0458  -28.9122  -42.4067 O.2       3 UNK        -0.5279 
     29 N          20.7008  -27.0827  -42.3409 N.am      4 UNK        -0.4463 
     30 CA         20.3316  -27.1299  -40.9202 C.3       4 UNK         0.0283 
     31 CB         19.2803  -26.0565  -40.6058 C.3       4 UNK        -0.1875 
     32 C          21.5106  -27.0069  -39.9436 C.2       4 UNK         0.4949 
     33 O          21.4027  -27.4896  -38.8165 O.2       4 UNK        -0.5039 
     34 N          22.6293  -26.4166  -40.3863 N.am      5 UNK        -0.4663 
     35 CA         23.8913  -26.2943  -39.6454 C.3       5 UNK         0.0242 
     36 CB         24.7277  -25.1719  -40.2883 C.3       5 UNK        -0.1982 
     37 C          24.6704  -27.6271  -39.5390 C.2       5 UNK         0.5017 
     38 O          25.8908  -27.6386  -39.7075 O.2       5 UNK        -0.5012 
     39 N          23.9445  -28.7226  -39.2710 N.am      6 UNK        -0.4439 
     40 CA         24.3954  -30.1110  -39.1321 C.3       6 UNK         0.0297 
     41 CB         25.1854  -30.2868  -37.8185 C.3       6 UNK        -0.2006 
     42 C          25.1555  -30.6457  -40.3632 C.2       6 UNK         0.4892 
     43 O          26.1132  -31.4057  -40.2042 O.2       6 UNK        -0.5089 
     44 N          24.7323  -30.2359  -41.5695 N.am      7 UNK        -0.4243 
     45 CA         25.3461  -30.6801  -42.8233 C.3       7 UNK         0.0196 
     46 CB         25.0677  -29.6656  -43.9417 C.3       7 UNK        -0.2007 
     47 C          24.8578  -32.0822  -43.2121 C.2       7 UNK         0.5020 
     48 O          25.6802  -32.9410  -43.5310 O.2       7 UNK        -0.5147 
     49 N          23.5341  -32.2869  -43.1622 N.am      8 UNK        -0.4734 
     50 CA         22.8940  -33.5813  -43.4217 C.3       8 UNK         0.0238 
     51 CB         21.7481  -33.4011  -44.4311 C.3       8 UNK        -0.1912 
     52 C          22.3765  -34.2346  -42.1310 C.2       8 UNK         0.5038 
     53 O          22.4126  -35.4616  -42.0297 O.2       8 UNK        -0.5046 
     54 N          21.9000  -33.4213  -41.1784 N.am      9 UNK        -0.4200 
     55 CA         21.3921  -33.8780  -39.8762 C.3       9 UNK         0.0839 
     56 C          22.5473  -34.2557  -38.9133 C.2       9 UNK         0.5513 
     57 N          22.3767  -35.3024  -38.1180 N.am      9 UNK        -0.7519 
     58 O          23.5723  -33.5815  -38.8500 O.2       9 UNK        -0.4960 
     59 C59        20.4472  -32.8373  -39.2203 C.3       10 UNK        -0.0876 
     60 S60        18.9982  -32.4652  -40.2683 S.3       10 UNK        -0.2414 
     61 C61        19.2523  -30.6981  -40.6054 C.3       10 UNK         0.0169 
     62 H62        16.2256  -23.3576  -48.6647 H         1 UNK         0.0903 
     63 H63        15.3025  -24.8371  -48.9410 H         1 UNK         0.0903 
     64 H64        14.8650  -23.7589  -47.6144 H         1 UNK         0.0903 
     65 H65        15.5457  -24.5240  -45.6274 H         1 UNK         0.3096 
     66 H66        17.4764  -26.6554  -45.3641 H         1 UNK         0.1121 
     67 H67        15.8433  -25.1257  -43.2751 H         1 UNK         0.0849 
     68 H68        16.8938  -26.4645  -42.9036 H         1 UNK         0.0849 
     69 H69        15.1058  -28.1178  -41.8511 H         1 UNK         0.0865 
     70 H70        14.4663  -29.3012  -42.9636 H         1 UNK         0.0865 
     71 H71        16.8189  -29.4508  -40.8214 H         1 UNK         0.1346 
     72 H72        20.0723  -30.9478  -43.1613 H         1 UNK         0.1412 
     73 H73        16.6882  -29.1909  -45.1073 H         1 UNK         0.1426 
     74 H74        18.3123  -30.6359  -46.3489 H         1 UNK         0.0716 
     75 H75        19.7784  -31.1935  -45.5900 H         1 UNK         0.0716 
     76 H76        21.6520  -29.8628  -44.8398 H         1 UNK         0.0695 
     77 H77        22.3089  -28.9578  -46.1555 H         1 UNK         0.0695 
     78 H78        22.9283  -27.5356  -44.4749 H         1 UNK         0.0983 
     79 H79        20.4876  -26.6330  -45.6396 H         1 UNK         0.3095 
     80 H80        20.6195  -23.2798  -44.6892 H         1 UNK         0.0454 
     81 H81        20.6115  -22.8616  -47.1406 H         1 UNK         0.0851 
     82 H82        22.2320  -23.2635  -46.5978 H         1 UNK         0.0851 
     83 H83        21.2706  -24.4688  -47.4436 H         1 UNK         0.0851 
     84 H84        18.9911  -24.8549  -46.5075 H         1 UNK         0.2976 
     85 H85        20.3117  -26.3155  -42.8727 H         1 UNK         0.3116 
     86 H86        19.8741  -28.0985  -40.7371 H         1 UNK         0.0646 
     87 H87        19.6405  -25.0548  -40.8430 H         1 UNK         0.0847 
     88 H88        19.0139  -26.0644  -39.5478 H         1 UNK         0.0847 
     89 H89        18.3612  -26.2288  -41.1622 H         1 UNK         0.0847 
     90 H90        22.6318  -26.0700  -41.3355 H         1 UNK         0.3040 
     91 H91        23.6578  -25.9902  -38.6226 H         1 UNK         0.1015 
     92 H92        24.1772  -24.2312  -40.3145 H         1 UNK         0.0786 
     93 H93        25.0161  -25.4206  -41.3105 H         1 UNK         0.0786 
     94 H94        25.6437  -24.9904  -39.7242 H         1 UNK         0.0786 
     95 H95        22.9506  -28.5648  -39.1263 H         1 UNK         0.3172 
     96 H96        23.4906  -30.7154  -39.0544 H         1 UNK         0.0595 
     97 H97        24.6158  -29.9293  -36.9609 H         1 UNK         0.0839 
     98 H98        26.1327  -29.7470  -37.8425 H         1 UNK         0.0839 
     99 H99        25.4123  -31.3385  -37.6376 H         1 UNK         0.0839 
    100 H100       23.9274  -29.6221  -41.6350 H         1 UNK         0.2998 
    101 H101       26.4289  -30.7258  -42.6849 H         1 UNK         0.0822 
    102 H102       24.0133  -29.6420  -44.2056 H         1 UNK         0.0787 
    103 H103       25.3699  -28.6587  -43.6530 H         1 UNK         0.0787 
    104 H104       25.6201  -29.9258  -44.8456 H         1 UNK         0.0787 
    105 H105       22.9411  -31.5091  -42.9107 H         1 UNK         0.3055 
    106 H106       23.6132  -34.2746  -43.8644 H         1 UNK         0.1106 
    107 H107       22.0907  -32.9073  -45.3406 H         1 UNK         0.0828 
    108 H108       21.3373  -34.3684  -44.7236 H         1 UNK         0.0828 
    109 H109       20.9270  -32.8185  -44.0179 H         1 UNK         0.0828 
    110 H110       21.9284  -32.4256  -41.3184 H         1 UNK         0.2931 
    111 H111       20.8014  -34.7794  -40.0554 H         1 UNK         0.0412 
    112 H112       23.1107  -35.5522  -37.4733 H         1 UNK         0.3472 
    113 H113       21.5344  -35.8559  -38.1565 H         1 UNK         0.3472 
    114 H114       20.9883  -31.9205  -38.9787 H         1 UNK         0.0970 
    115 H115       20.0708  -33.2187  -38.2691 H         1 UNK         0.0970 
    116 H116       18.9243  -30.1183  -39.7414 H         1 UNK         0.0612 
    117 H117       20.3173  -30.4958  -40.7306 H         1 UNK         0.0612 
@<TRIPOS>BOND
     1    1    2 1    
     2    1   62 1    
     3    1   63 1    
     4    1   64 1    
     5    2    3 2    
     6    2    4 am   BACKBONE|DICT|INTERRES
     7    4    5 1    
     8    4   65 1    
     9    5    6 1    
    10    5   25 1    
    11    5   66 1    
    12    6    7 1    
    13    6   67 1    
    14    6   68 1    
    15    7    8 1    
    16    8    9 1    
    17    8   69 1    
    18    8   70 1    
    19    9   10 ar   
    20    9   14 ar   
    21   10   11 ar   
    22   10   71 1    
    23   11   12 ar   
    24   11   61 1    
    25   12   13 ar   
    26   12   72 1    
    27   13   14 ar   
    28   13   15 1    
    29   14   73 1    
    30   15   16 1    
    31   15   74 1    
    32   15   75 1    
    33   16   17 1    
    34   17   18 1    
    35   17   76 1    
    36   17   77 1    
    37   18   19 1    
    38   18   27 1    
    39   18   78 1    
    40   19   20 am   BACKBONE|DICT|INTERRES
    41   19   79 1    
    42   20   21 2    
    43   20   22 1    
    44   22   23 1    
    45   22   24 1    
    46   22   80 1    
    47   23   81 1    
    48   23   82 1    
    49   23   83 1    
    50   24   25 am   BACKBONE|DICT|INTERRES
    51   24   84 1    
    52   25   26 2    
    53   27   28 2    
    54   27   29 am   BACKBONE|DICT|INTERRES
    55   29   30 1    
    56   29   85 1    
    57   30   31 1    
    58   30   32 1    
    59   30   86 1    
    60   31   87 1    
    61   31   88 1    
    62   31   89 1    
    63   32   33 2    
    64   32   34 am   BACKBONE|DICT|INTERRES
    65   34   35 1    
    66   34   90 1    
    67   35   36 1    
    68   35   37 1    
    69   35   91 1    
    70   36   92 1    
    71   36   93 1    
    72   36   94 1    
    73   37   38 2    
    74   37   39 am   BACKBONE|DICT|INTERRES
    75   39   40 1    
    76   39   95 1    
    77   40   41 1    
    78   40   42 1    
    79   40   96 1    
    80   41   97 1    
    81   41   98 1    
    82   41   99 1    
    83   42   43 2    
    84   42   44 am   BACKBONE|DICT|INTERRES
    85   44   45 1    
    86   44  100 1    
    87   45   46 1    
    88   45   47 1    
    89   45  101 1    
    90   46  102 1    
    91   46  103 1    
    92   46  104 1    
    93   47   48 2    
    94   47   49 am   BACKBONE|DICT|INTERRES
    95   49   50 1    
    96   49  105 1    
    97   50   51 1    
    98   50   52 1    
    99   50  106 1    
   100   51  107 1    
   101   51  108 1    
   102   51  109 1    
   103   52   53 2    
   104   52   54 am   BACKBONE|DICT|INTERRES
   105   54   55 1    
   106   54  110 1    
   107   55   56 1    
   108   55   59 1    
   109   55  111 1    
   110   56   57 am   BACKBONE|DICT|INTERRES
   111   56   58 2    
   112   57  112 1    
   113   57  113 1    
   114   59   60 1    
   115   59  114 1    
   116   59  115 1    
   117   60   61 1    
   118   61  116 1    
   119   61  117 1    
@<TRIPOS>SUBSTRUCTURE
     1 UNK         1 GROUP             0       ****    0 ROOT    
