@<TRIPOS>MOLECULE
3R8
117   119    1
SMALL
USER_CHARGES


@<TRIPOS>ATOM
      1 CA         13.0039  -23.9138  -46.6766 C.3       0 UNK        -0.2013 
      2 C          14.4677  -24.3097  -46.5533 C.2       0 UNK         0.4866 
      3 O          15.3236  -23.4436  -46.3694 O.2       0 UNK        -0.5176 
      4 N          14.7635  -25.6104  -46.6623 N.am      1 UNK        -0.4884 
      5 CA         16.1004  -26.1854  -46.4868 C.3       1 UNK         0.0853 
      6 C6         16.1953  -27.5998  -47.1167 C.3       10 UNK        -0.0849 
      7 S7         14.9688  -28.7934  -46.4627 S.3       10 UNK        -0.2776 
      8 C8         15.9485  -30.3177  -46.2694 C.3       10 UNK         0.0316 
      9 C9         17.1453  -30.1486  -45.3416 C.ar      10 UNK        -0.0863 
     10 C10        16.9630  -29.9253  -43.9734 C.ar      10 UNK        -0.1009 
     11 C11        18.0606  -29.8017  -43.1144 C.ar      10 UNK        -0.0712 
     12 C12        19.3529  -29.9005  -43.6472 C.ar      10 UNK        -0.0894 
     13 C13        19.5491  -30.1267  -45.0133 C.ar      10 UNK        -0.0745 
     14 C14        18.4409  -30.2451  -45.8540 C.ar      10 UNK        -0.0972 
     15 C15        20.9494  -30.2849  -45.5884 C.3       10 UNK         0.0209 
     16 S16        21.7415  -28.6807  -45.9273 S.3       10 UNK        -0.2568 
     17 C17        22.4522  -28.2732  -44.2986 C.3       10 UNK        -0.0983 
     18 CA         21.9717  -26.9163  -43.7302 C.3       3 UNK         0.0876 
     19 N          20.5065  -26.7836  -43.7076 N.am      3 UNK        -0.4424 
     20 C          19.8660  -25.6311  -43.4719 C.2       2 UNK         0.4918 
     21 O          20.4363  -24.5462  -43.3472 O.2       2 UNK        -0.4875 
     22 CA         18.3381  -25.7047  -43.3810 C.3       2 UNK         0.0481 
     23 CB         17.7426  -24.4828  -42.6457 C.3       2 UNK        -0.1831 
     24 N          17.7818  -25.8303  -44.7265 N.am      2 UNK        -0.4498 
     25 C          16.5133  -26.1636  -44.9975 C.2       1 UNK         0.5027 
     26 O          15.6790  -26.4355  -44.1289 O.2       1 UNK        -0.4969 
     27 C          22.5974  -26.7063  -42.3344 C.2       3 UNK         0.5005 
     28 O          23.7232  -26.2139  -42.2419 O.2       3 UNK        -0.5279 
     29 N          21.8601  -27.1020  -41.2830 N.am      4 UNK        -0.4463 
     30 CA         22.2527  -27.0816  -39.8715 C.3       4 UNK         0.0283 
     31 CB         22.3447  -25.6273  -39.3550 C.3       4 UNK        -0.1875 
     32 C          23.5183  -27.9274  -39.6272 C.2       4 UNK         0.4949 
     33 O          23.6316  -29.0169  -40.1933 O.2       4 UNK        -0.5039 
     34 N          24.4539  -27.4213  -38.8129 N.am      5 UNK        -0.4663 
     35 CA         25.6909  -28.0901  -38.3870 C.3       5 UNK         0.0242 
     36 CB         26.4224  -27.1817  -37.3847 C.3       5 UNK        -0.1982 
     37 C          26.6472  -28.5208  -39.5177 C.2       5 UNK         0.5017 
     38 O          27.5360  -29.3339  -39.2627 O.2       5 UNK        -0.5012 
     39 N          26.4510  -27.9982  -40.7373 N.am      6 UNK        -0.4439 
     40 CA         27.1824  -28.3984  -41.9416 C.3       6 UNK         0.0297 
     41 CB         26.8897  -27.3993  -43.0722 C.3       6 UNK        -0.2006 
     42 C          26.8708  -29.8350  -42.4058 C.2       6 UNK         0.4892 
     43 O          27.7143  -30.4314  -43.0768 O.2       6 UNK        -0.5089 
     44 N          25.6864  -30.3605  -42.0572 N.am      7 UNK        -0.4243 
     45 CA         25.2452  -31.7119  -42.4238 C.3       7 UNK         0.0196 
     46 CB         24.3270  -31.6256  -43.6548 C.3       7 UNK        -0.2007 
     47 C          24.5366  -32.4593  -41.2824 C.2       7 UNK         0.5020 
     48 O          24.3682  -33.6740  -41.3904 O.2       7 UNK        -0.5147 
     49 N          24.0867  -31.7402  -40.2417 N.am      8 UNK        -0.4734 
     50 CA         23.2746  -32.2114  -39.1084 C.3       8 UNK         0.0238 
     51 CB         24.0330  -33.2629  -38.2706 C.3       8 UNK        -0.1912 
     52 C          21.8596  -32.6780  -39.5121 C.2       8 UNK         0.5038 
     53 O          21.1993  -33.3614  -38.7279 O.2       8 UNK        -0.5046 
     54 N          21.4231  -32.2907  -40.7194 N.am      9 UNK        -0.4200 
     55 CA         20.1334  -32.6245  -41.3467 C.3       9 UNK         0.0839 
     56 C          19.9237  -34.1448  -41.6235 C.2       9 UNK         0.5513 
     57 N          20.9796  -34.9460  -41.7118 N.am      9 UNK        -0.7519 
     58 O          18.7966  -34.6035  -41.7914 O.2       9 UNK        -0.4960 
     59 C59        18.9239  -31.9529  -40.6343 C.3       10 UNK        -0.0876 
     60 S60        19.1067  -30.1382  -40.4933 S.3       10 UNK        -0.2414 
     61 C61        17.8075  -29.5377  -41.6283 C.3       10 UNK         0.0169 
     62 H62        12.3611  -24.7769  -46.8487 H         1 UNK         0.0903 
     63 H63        12.6711  -23.4199  -45.7641 H         1 UNK         0.0903 
     64 H64        12.8709  -23.2212  -47.5073 H         1 UNK         0.0903 
     65 H65        14.0214  -26.2881  -46.7702 H         1 UNK         0.3096 
     66 H66        16.7988  -25.5438  -47.0295 H         1 UNK         0.1121 
     67 H67        17.2071  -27.9893  -47.0021 H         1 UNK         0.0849 
     68 H68        16.0389  -27.5259  -48.1940 H         1 UNK         0.0849 
     69 H69        15.3020  -31.1024  -45.8740 H         1 UNK         0.0865 
     70 H70        16.2661  -30.6581  -47.2562 H         1 UNK         0.0865 
     71 H71        15.9587  -29.8433  -43.5797 H         1 UNK         0.1346 
     72 H72        20.2097  -29.8179  -42.9964 H         1 UNK         0.1412 
     73 H73        18.5891  -30.4253  -46.9103 H         1 UNK         0.1426 
     74 H74        20.9044  -30.8447  -46.5239 H         1 UNK         0.0716 
     75 H75        21.5674  -30.8844  -44.9200 H         1 UNK         0.0716 
     76 H76        23.5380  -28.2659  -44.4138 H         1 UNK         0.0695 
     77 H77        22.2405  -29.0760  -43.5933 H         1 UNK         0.0695 
     78 H78        22.3615  -26.1268  -44.3770 H         1 UNK         0.0983 
     79 H79        19.9712  -27.6225  -43.8843 H         1 UNK         0.3095 
     80 H80        18.0873  -26.6019  -42.8139 H         1 UNK         0.0454 
     81 H81        18.2187  -24.3408  -41.6747 H         1 UNK         0.0851 
     82 H82        16.6755  -24.6018  -42.4602 H         1 UNK         0.0851 
     83 H83        17.8809  -23.5632  -43.2155 H         1 UNK         0.0851 
     84 H84        18.4200  -25.6273  -45.4846 H         1 UNK         0.2976 
     85 H85        20.9639  -27.5253  -41.4743 H         1 UNK         0.3116 
     86 H86        21.4499  -27.5784  -39.3247 H         1 UNK         0.0646 
     87 H87        23.1728  -25.0810  -39.8086 H         1 UNK         0.0847 
     88 H88        22.4737  -25.5950  -38.2725 H         1 UNK         0.0847 
     89 H89        21.4306  -25.0766  -39.5777 H         1 UNK         0.0847 
     90 H90        24.2860  -26.5074  -38.4172 H         1 UNK         0.3040 
     91 H91        25.3983  -29.0050  -37.8671 H         1 UNK         0.1015 
     92 H92        26.7146  -26.2340  -37.8391 H         1 UNK         0.0786 
     93 H93        27.3309  -27.6580  -37.0129 H         1 UNK         0.0786 
     94 H94        25.7992  -26.9621  -36.5175 H         1 UNK         0.0786 
     95 H95        25.6898  -27.3430  -40.8599 H         1 UNK         0.3172 
     96 H96        28.2496  -28.3503  -41.7148 H         1 UNK         0.0595 
     97 H97        25.8411  -27.4223  -43.3701 H         1 UNK         0.0839 
     98 H98        27.4825  -27.6302  -43.9584 H         1 UNK         0.0839 
     99 H99        27.1333  -26.3785  -42.7774 H         1 UNK         0.0839 
    100 H100       25.0500  -29.7929  -41.5096 H         1 UNK         0.2998 
    101 H101       26.1117  -32.3234  -42.6849 H         1 UNK         0.0822 
    102 H102       24.8256  -31.1367  -44.4921 H         1 UNK         0.0787 
    103 H103       24.0264  -32.6187  -43.9918 H         1 UNK         0.0787 
    104 H104       23.4191  -31.0684  -43.4313 H         1 UNK         0.0787 
    105 H105       24.1827  -30.7278  -40.2684 H         1 UNK         0.3055 
    106 H106       23.1197  -31.3383  -38.4722 H         1 UNK         0.1106 
    107 H107       23.5009  -33.4822  -37.3442 H         1 UNK         0.0828 
    108 H108       24.1477  -34.2054  -38.8063 H         1 UNK         0.0828 
    109 H109       25.0265  -32.9091  -37.9952 H         1 UNK         0.0828 
    110 H110       22.0477  -31.7284  -41.2757 H         1 UNK         0.2931 
    111 H111       20.1912  -32.1931  -42.3450 H         1 UNK         0.0412 
    112 H112       20.8414  -35.9264  -41.9005 H         1 UNK         0.3472 
    113 H113       21.9125  -34.5828  -41.5806 H         1 UNK         0.3472 
    114 H114       18.7960  -32.3660  -39.6327 H         1 UNK         0.0970 
    115 H115       17.9978  -32.1731  -41.1682 H         1 UNK         0.0970 
    116 H116       17.6989  -28.4636  -41.4814 H         1 UNK         0.0612 
    117 H117       16.8579  -29.9820  -41.3256 H         1 UNK         0.0612 
@<TRIPOS>BOND
     1    1    2 1    
     2    1   62 1    
     3    1   63 1    
     4    1   64 1    
     5    2    3 2    
     6    2    4 am   BACKBONE|DICT|INTERRES
     7    4    5 1    
     8    4   65 1    
     9    5    6 1    
    10    5   25 1    
    11    5   66 1    
    12    6    7 1    
    13    6   67 1    
    14    6   68 1    
    15    7    8 1    
    16    8    9 1    
    17    8   69 1    
    18    8   70 1    
    19    9   10 ar   
    20    9   14 ar   
    21   10   11 ar   
    22   10   71 1    
    23   11   12 ar   
    24   11   61 1    
    25   12   13 ar   
    26   12   72 1    
    27   13   14 ar   
    28   13   15 1    
    29   14   73 1    
    30   15   16 1    
    31   15   74 1    
    32   15   75 1    
    33   16   17 1    
    34   17   18 1    
    35   17   76 1    
    36   17   77 1    
    37   18   19 1    
    38   18   27 1    
    39   18   78 1    
    40   19   20 am   BACKBONE|DICT|INTERRES
    41   19   79 1    
    42   20   21 2    
    43   20   22 1    
    44   22   23 1    
    45   22   24 1    
    46   22   80 1    
    47   23   81 1    
    48   23   82 1    
    49   23   83 1    
    50   24   25 am   BACKBONE|DICT|INTERRES
    51   24   84 1    
    52   25   26 2    
    53   27   28 2    
    54   27   29 am   BACKBONE|DICT|INTERRES
    55   29   30 1    
    56   29   85 1    
    57   30   31 1    
    58   30   32 1    
    59   30   86 1    
    60   31   87 1    
    61   31   88 1    
    62   31   89 1    
    63   32   33 2    
    64   32   34 am   BACKBONE|DICT|INTERRES
    65   34   35 1    
    66   34   90 1    
    67   35   36 1    
    68   35   37 1    
    69   35   91 1    
    70   36   92 1    
    71   36   93 1    
    72   36   94 1    
    73   37   38 2    
    74   37   39 am   BACKBONE|DICT|INTERRES
    75   39   40 1    
    76   39   95 1    
    77   40   41 1    
    78   40   42 1    
    79   40   96 1    
    80   41   97 1    
    81   41   98 1    
    82   41   99 1    
    83   42   43 2    
    84   42   44 am   BACKBONE|DICT|INTERRES
    85   44   45 1    
    86   44  100 1    
    87   45   46 1    
    88   45   47 1    
    89   45  101 1    
    90   46  102 1    
    91   46  103 1    
    92   46  104 1    
    93   47   48 2    
    94   47   49 am   BACKBONE|DICT|INTERRES
    95   49   50 1    
    96   49  105 1    
    97   50   51 1    
    98   50   52 1    
    99   50  106 1    
   100   51  107 1    
   101   51  108 1    
   102   51  109 1    
   103   52   53 2    
   104   52   54 am   BACKBONE|DICT|INTERRES
   105   54   55 1    
   106   54  110 1    
   107   55   56 1    
   108   55   59 1    
   109   55  111 1    
   110   56   57 am   BACKBONE|DICT|INTERRES
   111   56   58 2    
   112   57  112 1    
   113   57  113 1    
   114   59   60 1    
   115   59  114 1    
   116   59  115 1    
   117   60   61 1    
   118   61  116 1    
   119   61  117 1    
@<TRIPOS>SUBSTRUCTURE
     1 UNK         1 GROUP             0       ****    0 ROOT    
