@<TRIPOS>MOLECULE
3R8
117   119    1
SMALL
USER_CHARGES


@<TRIPOS>ATOM
      1 CA         21.9716  -24.1934  -45.0482 C.3       0 UNK        -0.2013 
      2 C          21.2265  -24.2817  -46.3791 C.2       0 UNK         0.4866 
      3 O          21.0921  -23.2660  -47.0583 O.2       0 UNK        -0.5176 
      4 N          20.7376  -25.4545  -46.8097 N.am      1 UNK        -0.4884 
      5 CA         20.7266  -26.7406  -46.1013 C.3       1 UNK         0.0853 
      6 C6         20.3551  -27.9139  -47.0430 C.3       10 UNK        -0.0849 
      7 S7         18.7670  -27.6895  -47.9310 S.3       10 UNK        -0.2776 
      8 C8         18.1878  -29.4012  -48.1522 C.3       10 UNK         0.0316 
      9 C9         17.9707  -30.1212  -46.8286 C.ar      10 UNK        -0.0863 
     10 C10        18.8687  -31.1100  -46.4207 C.ar      10 UNK        -0.1009 
     11 C11        18.6759  -31.7908  -45.2184 C.ar      10 UNK        -0.0712 
     12 C12        17.5587  -31.4956  -44.4338 C.ar      10 UNK        -0.0894 
     13 C13        16.6590  -30.4887  -44.8128 C.ar      10 UNK        -0.0745 
     14 C14        16.8732  -29.8113  -46.0189 C.ar      10 UNK        -0.0972 
     15 C15        15.4332  -30.1195  -43.9712 C.3       10 UNK         0.0209 
     16 S16        15.4614  -30.7042  -42.2387 S.3       10 UNK        -0.2568 
     17 C17        16.3025  -29.3769  -41.3068 C.3       10 UNK        -0.0983 
     18 CA         17.7315  -29.0061  -41.8175 C.3       3 UNK         0.0876 
     19 N          17.7130  -28.0228  -42.9125 N.am      3 UNK        -0.4424 
     20 C          17.3460  -26.7359  -42.8122 C.2       2 UNK         0.4918 
     21 O          16.8386  -26.2535  -41.7986 O.2       2 UNK        -0.4875 
     22 CA         17.6032  -25.8139  -44.0244 C.3       2 UNK         0.0481 
     23 CB         18.0001  -24.3934  -43.5703 C.3       2 UNK        -0.1831 
     24 N          18.5767  -26.2835  -45.0214 N.am      2 UNK        -0.4498 
     25 C          19.8461  -26.6775  -44.8362 C.2       1 UNK         0.5027 
     26 O          20.3458  -26.9123  -43.7368 O.2       1 UNK        -0.4969 
     27 C          18.7173  -28.5866  -40.6898 C.2       3 UNK         0.5005 
     28 O          18.5046  -28.9195  -39.5223 O.2       3 UNK        -0.5279 
     29 N          19.7776  -27.8455  -41.0481 N.am      4 UNK        -0.4463 
     30 CA         20.7553  -27.2890  -40.1160 C.3       4 UNK         0.0283 
     31 CB         21.4393  -26.0807  -40.7777 C.3       4 UNK        -0.1875 
     32 C          21.8118  -28.3215  -39.7045 C.2       4 UNK         0.4949 
     33 O          22.2243  -29.1498  -40.5206 O.2       4 UNK        -0.5039 
     34 N          22.3132  -28.1823  -38.4701 N.am      5 UNK        -0.4663 
     35 CA         23.4569  -28.9397  -37.9487 C.3       5 UNK         0.0242 
     36 CB         23.6195  -28.6596  -36.4468 C.3       5 UNK        -0.1982 
     37 C          24.7633  -28.6360  -38.7028 C.2       5 UNK         0.5017 
     38 O          25.5818  -29.5368  -38.8802 O.2       5 UNK        -0.5012 
     39 N          24.9007  -27.3943  -39.1919 N.am      6 UNK        -0.4439 
     40 CA         25.9942  -26.9361  -40.0555 C.3       6 UNK         0.0297 
     41 CB         25.8943  -25.4119  -40.2290 C.3       6 UNK        -0.2006 
     42 C          26.0300  -27.6288  -41.4320 C.2       6 UNK         0.4892 
     43 O          27.1029  -27.7199  -42.0286 O.2       6 UNK        -0.5089 
     44 N          24.8725  -28.1189  -41.8985 N.am      7 UNK        -0.4243 
     45 CA         24.7291  -28.9181  -43.1174 C.3       7 UNK         0.0196 
     46 CB         23.3714  -28.5864  -43.7632 C.3       7 UNK        -0.2007 
     47 C          24.8508  -30.4304  -42.8430 C.2       7 UNK         0.5020 
     48 O          24.7338  -31.2139  -43.7847 O.2       7 UNK        -0.5147 
     49 N          25.0606  -30.8153  -41.5723 N.am      8 UNK        -0.4734 
     50 CA         25.0551  -32.1812  -41.0306 C.3       8 UNK         0.0238 
     51 CB         26.1782  -33.0403  -41.6506 C.3       8 UNK        -0.1912 
     52 C          23.6692  -32.8548  -41.1025 C.2       8 UNK         0.5038 
     53 O          23.5918  -34.0843  -41.1393 O.2       8 UNK        -0.5046 
     54 N          22.6063  -32.0406  -41.1032 N.am      9 UNK        -0.4200 
     55 CA         21.2008  -32.4619  -41.1872 C.3       9 UNK         0.0839 
     56 C          20.4523  -32.3693  -39.8261 C.2       9 UNK         0.5513 
     57 N          21.1177  -32.0680  -38.7173 N.am      9 UNK        -0.7519 
     58 O          19.2479  -32.6018  -39.7694 O.2       9 UNK        -0.4960 
     59 C59        20.4614  -31.6839  -42.3055 C.3       10 UNK        -0.0876 
     60 S60        21.1202  -32.0610  -43.9654 S.3       10 UNK        -0.2414 
     61 C61        19.6846  -32.8378  -44.7716 C.3       10 UNK         0.0169 
     62 H62        21.2698  -24.1662  -44.2153 H         1 UNK         0.0903 
     63 H63        22.6546  -25.0294  -44.9053 H         1 UNK         0.0903 
     64 H64        22.5664  -23.2810  -45.0090 H         1 UNK         0.0903 
     65 H65        20.2576  -25.4687  -47.6992 H         1 UNK         0.3096 
     66 H66        21.7446  -26.9357  -45.7614 H         1 UNK         0.1121 
     67 H67        20.3545  -28.8468  -46.4795 H         1 UNK         0.0849 
     68 H68        21.1363  -28.0344  -47.7952 H         1 UNK         0.0849 
     69 H69        17.2510  -29.3873  -48.7113 H         1 UNK         0.0865 
     70 H70        18.9027  -29.9410  -48.7754 H         1 UNK         0.0865 
     71 H71        19.7284  -31.3458  -47.0336 H         1 UNK         0.1346 
     72 H72        17.4051  -32.0520  -43.5210 H         1 UNK         0.1412 
     73 H73        16.1809  -29.0422  -46.3345 H         1 UNK         0.1426 
     74 H74        15.2811  -29.0392  -43.9776 H         1 UNK         0.0716 
     75 H75        14.5565  -30.5526  -44.4544 H         1 UNK         0.0716 
     76 H76        16.3284  -29.7465  -40.2810 H         1 UNK         0.0695 
     77 H77        15.6485  -28.5054  -41.2739 H         1 UNK         0.0695 
     78 H78        18.1759  -29.9083  -42.2312 H         1 UNK         0.0983 
     79 H79        18.1166  -28.3291  -43.7862 H         1 UNK         0.3095 
     80 H80        16.6501  -25.7408  -44.5499 H         1 UNK         0.0454 
     81 H81        18.1557  -23.7314  -44.4222 H         1 UNK         0.0851 
     82 H82        18.9182  -24.4035  -42.9817 H         1 UNK         0.0851 
     83 H83        17.2227  -23.9409  -42.9535 H         1 UNK         0.0851 
     84 H84        18.2810  -26.1872  -45.9846 H         1 UNK         0.2976 
     85 H85        19.9184  -27.6173  -42.0297 H         1 UNK         0.3116 
     86 H86        20.2286  -26.9417  -39.2244 H         1 UNK         0.0646 
     87 H87        20.7082  -25.3379  -41.0973 H         1 UNK         0.0847 
     88 H88        22.1212  -25.5844  -40.0865 H         1 UNK         0.0847 
     89 H89        22.0186  -26.3733  -41.6547 H         1 UNK         0.0847 
     90 H90        21.9169  -27.4814  -37.8594 H         1 UNK         0.3040 
     91 H91        23.2448  -30.0026  -38.0786 H         1 UNK         0.1015 
     92 H92        23.8151  -27.6049  -36.2487 H         1 UNK         0.0786 
     93 H93        24.4528  -29.2290  -36.0322 H         1 UNK         0.0786 
     94 H94        22.7264  -28.9463  -35.8911 H         1 UNK         0.0786 
     95 H95        24.1779  -26.7229  -38.9783 H         1 UNK         0.3172 
     96 H96        26.9350  -27.1634  -39.5497 H         1 UNK         0.0595 
     97 H97        24.9627  -25.1192  -40.7153 H         1 UNK         0.0839 
     98 H98        26.7134  -25.0352  -40.8436 H         1 UNK         0.0839 
     99 H99        25.9507  -24.8969  -39.2698 H         1 UNK         0.0839 
    100 H100       24.0415  -28.0361  -41.3278 H         1 UNK         0.2998 
    101 H101       25.5160  -28.6512  -43.8260 H         1 UNK         0.0822 
    102 H102       23.2601  -29.0914  -44.7236 H         1 UNK         0.0787 
    103 H103       22.5344  -28.8987  -43.1378 H         1 UNK         0.0787 
    104 H104       23.2715  -27.5165  -43.9435 H         1 UNK         0.0787 
    105 H105       25.1801  -30.0901  -40.8742 H         1 UNK         0.3055 
    106 H106       25.2763  -32.0814  -39.9667 H         1 UNK         0.1106 
    107 H107       27.1425  -32.5359  -41.5919 H         1 UNK         0.0828 
    108 H108       26.2788  -33.9901  -41.1239 H         1 UNK         0.0828 
    109 H109       25.9825  -33.2726  -42.6977 H         1 UNK         0.0828 
    110 H110       22.7482  -31.0379  -41.0387 H         1 UNK         0.2931 
    111 H111       21.1588  -33.5195  -41.4535 H         1 UNK         0.0412 
    112 H112       22.1096  -31.9056  -38.7491 H         1 UNK         0.3472 
    113 H113       20.6204  -32.0187  -37.8422 H         1 UNK         0.3472 
    114 H114       20.5450  -30.6090  -42.1406 H         1 UNK         0.0970 
    115 H115       19.3976  -31.9180  -42.2874 H         1 UNK         0.0970 
    116 H116       19.2264  -33.5640  -44.0983 H         1 UNK         0.0612 
    117 H117       20.0324  -33.4024  -45.6379 H         1 UNK         0.0612 
@<TRIPOS>BOND
     1    1    2 1    
     2    1   62 1    
     3    1   63 1    
     4    1   64 1    
     5    2    3 2    
     6    2    4 am   BACKBONE|DICT|INTERRES
     7    4    5 1    
     8    4   65 1    
     9    5    6 1    
    10    5   25 1    
    11    5   66 1    
    12    6    7 1    
    13    6   67 1    
    14    6   68 1    
    15    7    8 1    
    16    8    9 1    
    17    8   69 1    
    18    8   70 1    
    19    9   10 ar   
    20    9   14 ar   
    21   10   11 ar   
    22   10   71 1    
    23   11   12 ar   
    24   11   61 1    
    25   12   13 ar   
    26   12   72 1    
    27   13   14 ar   
    28   13   15 1    
    29   14   73 1    
    30   15   16 1    
    31   15   74 1    
    32   15   75 1    
    33   16   17 1    
    34   17   18 1    
    35   17   76 1    
    36   17   77 1    
    37   18   19 1    
    38   18   27 1    
    39   18   78 1    
    40   19   20 am   BACKBONE|DICT|INTERRES
    41   19   79 1    
    42   20   21 2    
    43   20   22 1    
    44   22   23 1    
    45   22   24 1    
    46   22   80 1    
    47   23   81 1    
    48   23   82 1    
    49   23   83 1    
    50   24   25 am   BACKBONE|DICT|INTERRES
    51   24   84 1    
    52   25   26 2    
    53   27   28 2    
    54   27   29 am   BACKBONE|DICT|INTERRES
    55   29   30 1    
    56   29   85 1    
    57   30   31 1    
    58   30   32 1    
    59   30   86 1    
    60   31   87 1    
    61   31   88 1    
    62   31   89 1    
    63   32   33 2    
    64   32   34 am   BACKBONE|DICT|INTERRES
    65   34   35 1    
    66   34   90 1    
    67   35   36 1    
    68   35   37 1    
    69   35   91 1    
    70   36   92 1    
    71   36   93 1    
    72   36   94 1    
    73   37   38 2    
    74   37   39 am   BACKBONE|DICT|INTERRES
    75   39   40 1    
    76   39   95 1    
    77   40   41 1    
    78   40   42 1    
    79   40   96 1    
    80   41   97 1    
    81   41   98 1    
    82   41   99 1    
    83   42   43 2    
    84   42   44 am   BACKBONE|DICT|INTERRES
    85   44   45 1    
    86   44  100 1    
    87   45   46 1    
    88   45   47 1    
    89   45  101 1    
    90   46  102 1    
    91   46  103 1    
    92   46  104 1    
    93   47   48 2    
    94   47   49 am   BACKBONE|DICT|INTERRES
    95   49   50 1    
    96   49  105 1    
    97   50   51 1    
    98   50   52 1    
    99   50  106 1    
   100   51  107 1    
   101   51  108 1    
   102   51  109 1    
   103   52   53 2    
   104   52   54 am   BACKBONE|DICT|INTERRES
   105   54   55 1    
   106   54  110 1    
   107   55   56 1    
   108   55   59 1    
   109   55  111 1    
   110   56   57 am   BACKBONE|DICT|INTERRES
   111   56   58 2    
   112   57  112 1    
   113   57  113 1    
   114   59   60 1    
   115   59  114 1    
   116   59  115 1    
   117   60   61 1    
   118   61  116 1    
   119   61  117 1    
@<TRIPOS>SUBSTRUCTURE
     1 UNK         1 GROUP             0       ****    0 ROOT    
