@<TRIPOS>MOLECULE
3R8
117   119    1
SMALL
USER_CHARGES


@<TRIPOS>ATOM
      1 CA         12.4832  -24.4978  -42.0398 C.3       0 UNK        -0.2013 
      2 C          13.4607  -24.4719  -43.2055 C.2       0 UNK         0.4866 
      3 O          13.2507  -23.7283  -44.1647 O.2       0 UNK        -0.5176 
      4 N          14.5220  -25.2846  -43.1355 N.am      1 UNK        -0.4884 
      5 CA         15.5873  -25.3603  -44.1410 C.3       1 UNK         0.0853 
      6 C6         16.4853  -26.6049  -43.9343 C.3       10 UNK        -0.0849 
      7 S7         15.5722  -28.1764  -44.0895 S.3       10 UNK        -0.2776 
      8 C8         16.4446  -28.9842  -45.4762 C.3       10 UNK         0.0316 
      9 C9         17.9243  -29.2384  -45.1961 C.ar      10 UNK        -0.0863 
     10 C10        18.3300  -29.8747  -44.0191 C.ar      10 UNK        -0.1009 
     11 C11        19.6835  -30.1164  -43.7681 C.ar      10 UNK        -0.0712 
     12 C12        20.6404  -29.7292  -44.7117 C.ar      10 UNK        -0.0894 
     13 C13        20.2501  -29.0909  -45.8935 C.ar      10 UNK        -0.0745 
     14 C14        18.8913  -28.8527  -46.1299 C.ar      10 UNK        -0.0972 
     15 C15        21.2902  -28.6826  -46.9303 C.3       10 UNK         0.0209 
     16 S16        22.2373  -27.2008  -46.4469 S.3       10 UNK        -0.2568 
     17 C17        20.9443  -25.9086  -46.3634 C.3       10 UNK        -0.0983 
     18 CA         20.8492  -25.1170  -45.0250 C.3       3 UNK         0.0876 
     19 N          19.6238  -24.3319  -44.9686 N.am      3 UNK        -0.4424 
     20 C          19.3666  -23.2015  -45.6329 C.2       2 UNK         0.4918 
     21 O          20.1923  -22.6360  -46.3511 O.2       2 UNK        -0.4875 
     22 CA         17.9416  -22.6252  -45.4927 C.3       2 UNK         0.0481 
     23 CB         17.5335  -21.7844  -46.7168 C.3       2 UNK        -0.1831 
     24 N          16.9561  -23.6955  -45.3015 N.am      2 UNK        -0.4498 
     25 C          16.4607  -24.0893  -44.1215 C.2       1 UNK         0.5027 
     26 O          16.7253  -23.5413  -43.0484 O.2       1 UNK        -0.4969 
     27 C          20.8512  -25.9983  -43.7609 C.2       3 UNK         0.5005 
     28 O          19.7797  -26.3418  -43.2533 O.2       3 UNK        -0.5279 
     29 N          22.0521  -26.3379  -43.2814 N.am      4 UNK        -0.4463 
     30 CA         22.3089  -27.2682  -42.1832 C.3       4 UNK         0.0283 
     31 CB         22.0512  -26.5912  -40.8215 C.3       4 UNK        -0.1875 
     32 C          23.7385  -27.8161  -42.3254 C.2       4 UNK         0.4949 
     33 O          24.4854  -27.8648  -41.3486 O.2       4 UNK        -0.5039 
     34 N          24.1187  -28.1824  -43.5579 N.am      5 UNK        -0.4663 
     35 CA         25.4830  -28.5423  -43.9694 C.3       5 UNK         0.0242 
     36 CB         25.6093  -28.3208  -45.4889 C.3       5 UNK        -0.1982 
     37 C          25.9496  -29.9534  -43.5447 C.2       5 UNK         0.5017 
     38 O          26.7221  -30.5806  -44.2721 O.2       5 UNK        -0.5012 
     39 N          25.5007  -30.4296  -42.3802 N.am      6 UNK        -0.4439 
     40 CA         25.9006  -31.6865  -41.7555 C.3       6 UNK         0.0297 
     41 CB         25.2455  -32.8855  -42.4665 C.3       6 UNK        -0.2006 
     42 C          25.5074  -31.6322  -40.2772 C.2       6 UNK         0.4892 
     43 O          24.4579  -31.0696  -39.9521 O.2       6 UNK        -0.5089 
     44 N          26.3429  -32.2269  -39.4144 N.am      7 UNK        -0.4243 
     45 CA         26.1438  -32.3080  -37.9643 C.3       7 UNK         0.0196 
     46 CB         27.3749  -32.9611  -37.3139 C.3       7 UNK        -0.2007 
     47 C          24.8621  -33.0846  -37.6276 C.2       7 UNK         0.5020 
     48 O          24.7781  -34.2743  -37.9384 O.2       7 UNK        -0.5147 
     49 N          23.8676  -32.3755  -37.0734 N.am      8 UNK        -0.4734 
     50 CA         22.4950  -32.8375  -36.8083 C.3       8 UNK         0.0238 
     51 CB         22.4852  -33.8793  -35.6690 C.3       8 UNK        -0.1912 
     52 C          21.7577  -33.3376  -38.0716 C.2       8 UNK         0.5038 
     53 O          20.8583  -34.1728  -37.9628 O.2       8 UNK        -0.5046 
     54 N          22.1638  -32.8305  -39.2451 N.am      9 UNK        -0.4200 
     55 CA         21.7483  -33.2892  -40.5774 C.3       9 UNK         0.0839 
     56 C          22.2542  -34.7175  -40.9568 C.2       9 UNK         0.5513 
     57 N          23.2403  -35.2804  -40.2668 N.am      9 UNK        -0.7519 
     58 O          21.7691  -35.3225  -41.9087 O.2       9 UNK        -0.4960 
     59 C59        20.2312  -33.0622  -40.8389 C.3       10 UNK        -0.0876 
     60 S60        19.8795  -32.5897  -42.5653 S.3       10 UNK        -0.2414 
     61 C61        20.0990  -30.7880  -42.4698 C.3       10 UNK         0.0169 
     62 H62        12.7840  -25.2090  -41.2707 H         1 UNK         0.0903 
     63 H63        12.4191  -23.5108  -41.5824 H         1 UNK         0.0903 
     64 H64        11.4896  -24.7769  -42.3893 H         1 UNK         0.0903 
     65 H65        14.6498  -25.8711  -42.3231 H         1 UNK         0.3096 
     66 H66        15.1125  -25.4339  -45.1223 H         1 UNK         0.1121 
     67 H67        17.3080  -26.6027  -44.6519 H         1 UNK         0.0849 
     68 H68        16.9555  -26.5836  -42.9488 H         1 UNK         0.0849 
     69 H69        15.9609  -29.9390  -45.6864 H         1 UNK         0.0865 
     70 H70        16.3175  -28.3732  -46.3713 H         1 UNK         0.0865 
     71 H71        17.5899  -30.1809  -43.2924 H         1 UNK         0.1346 
     72 H72        21.6878  -29.9233  -44.5271 H         1 UNK         0.1412 
     73 H73        18.5864  -28.3687  -47.0477 H         1 UNK         0.1426 
     74 H74        20.8202  -28.5028  -47.8985 H         1 UNK         0.0716 
     75 H75        21.9873  -29.5079  -47.0825 H         1 UNK         0.0716 
     76 H76        21.1318  -25.2107  -47.1805 H         1 UNK         0.0695 
     77 H77        19.9784  -26.3588  -46.5910 H         1 UNK         0.0695 
     78 H78        21.6980  -24.4329  -44.9560 H         1 UNK         0.0983 
     79 H79        18.9321  -24.7176  -44.3379 H         1 UNK         0.3095 
     80 H80        17.9500  -21.9629  -44.6249 H         1 UNK         0.0454 
     81 H81        18.2011  -20.9319  -46.8486 H         1 UNK         0.0851 
     82 H82        17.5643  -22.3684  -47.6373 H         1 UNK         0.0851 
     83 H83        16.5250  -21.3860  -46.6053 H         1 UNK         0.0851 
     84 H84        16.7104  -24.2183  -46.1311 H         1 UNK         0.2976 
     85 H85        22.8772  -26.0006  -43.7603 H         1 UNK         0.3116 
     86 H86        21.6319  -28.1186  -42.2794 H         1 UNK         0.0646 
     87 H87        22.2309  -27.2853  -39.9995 H         1 UNK         0.0847 
     88 H88        21.0195  -26.2511  -40.7331 H         1 UNK         0.0847 
     89 H89        22.7029  -25.7298  -40.6722 H         1 UNK         0.0847 
     90 H90        23.4332  -28.1425  -44.3002 H         1 UNK         0.3040 
     91 H91        26.1700  -27.8460  -43.4830 H         1 UNK         0.1015 
     92 H92        25.3427  -27.3006  -45.7657 H         1 UNK         0.0786 
     93 H93        24.9652  -29.0002  -46.0486 H         1 UNK         0.0786 
     94 H94        26.6324  -28.4832  -45.8309 H         1 UNK         0.0786 
     95 H95        24.9217  -29.8281  -41.7994 H         1 UNK         0.3172 
     96 H96        26.9869  -31.7794  -41.8198 H         1 UNK         0.0595 
     97 H97        25.6555  -33.0246  -43.4668 H         1 UNK         0.0839 
     98 H98        24.1692  -32.7546  -42.5688 H         1 UNK         0.0839 
     99 H99        25.4152  -33.8133  -41.9183 H         1 UNK         0.0839 
    100 H100       27.1614  -32.6930  -39.7787 H         1 UNK         0.2998 
    101 H101       26.0571  -31.2892  -37.5807 H         1 UNK         0.0822 
    102 H102       28.2790  -32.3818  -37.5028 H         1 UNK         0.0787 
    103 H103       27.2538  -33.0275  -36.2318 H         1 UNK         0.0787 
    104 H104       27.5403  -33.9734  -37.6854 H         1 UNK         0.0787 
    105 H105       24.0328  -31.3933  -36.8957 H         1 UNK         0.3055 
    106 H106       21.9352  -31.9661  -36.4645 H         1 UNK         0.1106 
    107 H107       22.9671  -34.8108  -35.9681 H         1 UNK         0.0828 
    108 H108       22.9991  -33.5049  -34.7838 H         1 UNK         0.0828 
    109 H109       21.4655  -34.1240  -35.3689 H         1 UNK         0.0828 
    110 H110       22.9231  -32.1565  -39.2444 H         1 UNK         0.2931 
    111 H111       22.2941  -32.6218  -41.2431 H         1 UNK         0.0412 
    112 H112       23.6641  -34.8179  -39.4687 H         1 UNK         0.3472 
    113 H113       23.5564  -36.1995  -40.5319 H         1 UNK         0.3472 
    114 H114       19.8413  -32.2765  -40.1902 H         1 UNK         0.0970 
    115 H115       19.6545  -33.9541  -40.5870 H         1 UNK         0.0970 
    116 H116       21.1413  -30.5648  -42.2371 H         1 UNK         0.0612 
    117 H117       19.5036  -30.3865  -41.6484 H         1 UNK         0.0612 
@<TRIPOS>BOND
     1    1    2 1    
     2    1   62 1    
     3    1   63 1    
     4    1   64 1    
     5    2    3 2    
     6    2    4 am   BACKBONE|DICT|INTERRES
     7    4    5 1    
     8    4   65 1    
     9    5    6 1    
    10    5   25 1    
    11    5   66 1    
    12    6    7 1    
    13    6   67 1    
    14    6   68 1    
    15    7    8 1    
    16    8    9 1    
    17    8   69 1    
    18    8   70 1    
    19    9   10 ar   
    20    9   14 ar   
    21   10   11 ar   
    22   10   71 1    
    23   11   12 ar   
    24   11   61 1    
    25   12   13 ar   
    26   12   72 1    
    27   13   14 ar   
    28   13   15 1    
    29   14   73 1    
    30   15   16 1    
    31   15   74 1    
    32   15   75 1    
    33   16   17 1    
    34   17   18 1    
    35   17   76 1    
    36   17   77 1    
    37   18   19 1    
    38   18   27 1    
    39   18   78 1    
    40   19   20 am   BACKBONE|DICT|INTERRES
    41   19   79 1    
    42   20   21 2    
    43   20   22 1    
    44   22   23 1    
    45   22   24 1    
    46   22   80 1    
    47   23   81 1    
    48   23   82 1    
    49   23   83 1    
    50   24   25 am   BACKBONE|DICT|INTERRES
    51   24   84 1    
    52   25   26 2    
    53   27   28 2    
    54   27   29 am   BACKBONE|DICT|INTERRES
    55   29   30 1    
    56   29   85 1    
    57   30   31 1    
    58   30   32 1    
    59   30   86 1    
    60   31   87 1    
    61   31   88 1    
    62   31   89 1    
    63   32   33 2    
    64   32   34 am   BACKBONE|DICT|INTERRES
    65   34   35 1    
    66   34   90 1    
    67   35   36 1    
    68   35   37 1    
    69   35   91 1    
    70   36   92 1    
    71   36   93 1    
    72   36   94 1    
    73   37   38 2    
    74   37   39 am   BACKBONE|DICT|INTERRES
    75   39   40 1    
    76   39   95 1    
    77   40   41 1    
    78   40   42 1    
    79   40   96 1    
    80   41   97 1    
    81   41   98 1    
    82   41   99 1    
    83   42   43 2    
    84   42   44 am   BACKBONE|DICT|INTERRES
    85   44   45 1    
    86   44  100 1    
    87   45   46 1    
    88   45   47 1    
    89   45  101 1    
    90   46  102 1    
    91   46  103 1    
    92   46  104 1    
    93   47   48 2    
    94   47   49 am   BACKBONE|DICT|INTERRES
    95   49   50 1    
    96   49  105 1    
    97   50   51 1    
    98   50   52 1    
    99   50  106 1    
   100   51  107 1    
   101   51  108 1    
   102   51  109 1    
   103   52   53 2    
   104   52   54 am   BACKBONE|DICT|INTERRES
   105   54   55 1    
   106   54  110 1    
   107   55   56 1    
   108   55   59 1    
   109   55  111 1    
   110   56   57 am   BACKBONE|DICT|INTERRES
   111   56   58 2    
   112   57  112 1    
   113   57  113 1    
   114   59   60 1    
   115   59  114 1    
   116   59  115 1    
   117   60   61 1    
   118   61  116 1    
   119   61  117 1    
@<TRIPOS>SUBSTRUCTURE
     1 UNK         1 GROUP             0       ****    0 ROOT    
