@<TRIPOS>MOLECULE
3R8
117   119    1
SMALL
USER_CHARGES


@<TRIPOS>ATOM
      1 CA         17.2403  -22.0550  -47.4856 C.3       0 UNK        -0.2013 
      2 C          18.0908  -23.2234  -47.0095 C.2       0 UNK         0.4866 
      3 O          19.2809  -23.2817  -47.3213 O.2       0 UNK        -0.5176 
      4 N          17.4884  -24.1588  -46.2654 N.am      1 UNK        -0.4884 
      5 CA         18.1616  -25.3250  -45.6841 C.3       1 UNK         0.0853 
      6 C6         17.1502  -26.3841  -45.1824 C.3       10 UNK        -0.0849 
      7 S7         16.1325  -27.0999  -46.5152 S.3       10 UNK        -0.2776 
      8 C8         17.0285  -28.6554  -46.8735 C.3       10 UNK         0.0316 
      9 C9         17.1103  -29.6777  -45.7335 C.ar      10 UNK        -0.0863 
     10 C10        18.0196  -30.7342  -45.8580 C.ar      10 UNK        -0.1009 
     11 C11        18.1434  -31.7114  -44.8644 C.ar      10 UNK        -0.0712 
     12 C12        17.3340  -31.6176  -43.7271 C.ar      10 UNK        -0.0894 
     13 C13        16.4523  -30.5498  -43.5618 C.ar      10 UNK        -0.0745 
     14 C14        16.3216  -29.5997  -44.5772 C.ar      10 UNK        -0.0972 
     15 C15        15.6663  -30.4166  -42.2660 C.3       10 UNK         0.0209 
     16 S16        16.7695  -30.1743  -40.8311 S.3       10 UNK        -0.2568 
     17 C17        17.5366  -28.5567  -41.1949 C.3       10 UNK        -0.0983 
     18 CA         19.0782  -28.6271  -41.3826 C.3       3 UNK         0.0876 
     19 N          19.5593  -27.4042  -42.0392 N.am      3 UNK        -0.4424 
     20 C          20.8213  -27.0483  -42.3279 C.2       2 UNK         0.4918 
     21 O          21.8218  -27.7082  -42.0413 O.2       2 UNK        -0.4875 
     22 CA         20.9729  -25.7261  -43.0988 C.3       2 UNK         0.0481 
     23 CB         22.4200  -25.4578  -43.5483 C.3       2 UNK        -0.1831 
     24 N          20.1005  -25.7655  -44.2723 N.am      2 UNK        -0.4498 
     25 C          19.0875  -24.9262  -44.5171 C.2       1 UNK         0.5027 
     26 O          18.8245  -23.9393  -43.8249 O.2       1 UNK        -0.4969 
     27 C          19.8172  -28.8877  -40.0504 C.2       3 UNK         0.5005 
     28 O          19.4953  -28.2551  -39.0419 O.2       3 UNK        -0.5279 
     29 N          20.8345  -29.7616  -40.0981 N.am      4 UNK        -0.4463 
     30 CA         21.7781  -30.1130  -39.0289 C.3       4 UNK         0.0283 
     31 CB         21.0523  -30.8346  -37.8748 C.3       4 UNK        -0.1875 
     32 C          22.6506  -28.9396  -38.5307 C.2       4 UNK         0.4949 
     33 O          23.2753  -29.0605  -37.4761 O.2       4 UNK        -0.5039 
     34 N          22.6953  -27.8350  -39.2872 N.am      5 UNK        -0.4663 
     35 CA         23.4231  -26.6107  -38.9452 C.3       5 UNK         0.0242 
     36 CB         22.5381  -25.3944  -39.2629 C.3       5 UNK        -0.1982 
     37 C          24.7619  -26.5052  -39.6888 C.2       5 UNK         0.5017 
     38 O          25.6752  -25.8550  -39.1796 O.2       5 UNK        -0.5012 
     39 N          24.8645  -27.1415  -40.8629 N.am      6 UNK        -0.4439 
     40 CA         26.0721  -27.1843  -41.6873 C.3       6 UNK         0.0297 
     41 CB         26.0222  -26.0798  -42.7606 C.3       6 UNK        -0.2006 
     42 C          26.2280  -28.5916  -42.2746 C.2       6 UNK         0.4892 
     43 O          26.2558  -28.7534  -43.4952 O.2       6 UNK        -0.5089 
     44 N          26.2753  -29.5915  -41.3820 N.am      7 UNK        -0.4243 
     45 CA         26.4350  -31.0374  -41.6145 C.3       7 UNK         0.0196 
     46 CB         27.7679  -31.3464  -42.3242 C.3       7 UNK        -0.2007 
     47 C          25.2612  -31.7333  -42.3305 C.2       7 UNK         0.5020 
     48 O          25.0112  -32.9056  -42.0480 O.2       7 UNK        -0.5147 
     49 N          24.5612  -31.0213  -43.2228 N.am      8 UNK        -0.4734 
     50 CA         23.3808  -31.4589  -43.9716 C.3       8 UNK         0.0238 
     51 CB         22.8875  -30.2920  -44.8460 C.3       8 UNK        -0.1912 
     52 C          22.2637  -31.9535  -43.0392 C.2       8 UNK         0.5038 
     53 O          21.6221  -31.1326  -42.3810 O.2       8 UNK        -0.5046 
     54 N          22.0788  -33.2796  -42.9861 N.am      9 UNK        -0.4200 
     55 CA         21.1585  -33.9832  -42.0762 C.3       9 UNK         0.0839 
     56 C          21.5523  -33.8832  -40.5688 C.2       9 UNK         0.5513 
     57 N          22.7980  -33.5712  -40.2303 N.am      9 UNK        -0.7519 
     58 O          20.7317  -34.1304  -39.6892 O.2       9 UNK        -0.4960 
     59 C59        19.6662  -33.6357  -42.3445 C.3       10 UNK        -0.0876 
     60 S60        19.0678  -34.2669  -43.9537 S.3       10 UNK        -0.2414 
     61 C61        19.1877  -32.8140  -45.0581 C.3       10 UNK         0.0169 
     62 H62        17.2402  -22.0099  -48.5744 H         1 UNK         0.0903 
     63 H63        16.2067  -22.1392  -47.1499 H         1 UNK         0.0903 
     64 H64        17.6449  -21.1174  -47.1053 H         1 UNK         0.0903 
     65 H65        16.5105  -24.0590  -46.0331 H         1 UNK         0.3096 
     66 H66        18.7804  -25.7748  -46.4644 H         1 UNK         0.1121 
     67 H67        17.6683  -27.1932  -44.6655 H         1 UNK         0.0849 
     68 H68        16.4756  -25.9474  -44.4430 H         1 UNK         0.0849 
     69 H69        16.5455  -29.1348  -47.7260 H         1 UNK         0.0865 
     70 H70        18.0372  -28.3978  -47.2004 H         1 UNK         0.0865 
     71 H71        18.6418  -30.7972  -46.7409 H         1 UNK         0.1346 
     72 H72        17.3924  -32.3514  -42.9388 H         1 UNK         0.1412 
     73 H73        15.6159  -28.7919  -44.4481 H         1 UNK         0.1426 
     74 H74        14.9564  -29.5896  -42.3177 H         1 UNK         0.0716 
     75 H75        15.0762  -31.3209  -42.1112 H         1 UNK         0.0716 
     76 H76        17.2667  -27.8571  -40.4015 H         1 UNK         0.0695 
     77 H77        17.0732  -28.1572  -42.0979 H         1 UNK         0.0695 
     78 H78        19.2976  -29.4518  -42.0652 H         1 UNK         0.0983 
     79 H79        18.8368  -26.7481  -42.2924 H         1 UNK         0.3095 
     80 H80        20.6760  -24.9258  -42.4181 H         1 UNK         0.0454 
     81 H81        22.8011  -26.2581  -44.1839 H         1 UNK         0.0851 
     82 H82        23.0843  -25.3741  -42.6882 H         1 UNK         0.0851 
     83 H83        22.4950  -24.5236  -44.1045 H         1 UNK         0.0851 
     84 H84        20.2266  -26.5652  -44.8782 H         1 UNK         0.2976 
     85 H85        21.0555  -30.1876  -41.0011 H         1 UNK         0.3116 
     86 H86        22.4724  -30.8245  -39.4772 H         1 UNK         0.0646 
     87 H87        20.3857  -30.1632  -37.3331 H         1 UNK         0.0847 
     88 H88        21.7644  -31.2370  -37.1535 H         1 UNK         0.0847 
     89 H89        20.4600  -31.6725  -38.2423 H         1 UNK         0.0847 
     90 H90        22.1844  -27.8377  -40.1655 H         1 UNK         0.3040 
     91 H91        23.6418  -26.5949  -37.8749 H         1 UNK         0.1015 
     92 H92        22.3230  -25.3139  -40.3277 H         1 UNK         0.0786 
     93 H93        23.0273  -24.4676  -38.9597 H         1 UNK         0.0786 
     94 H94        21.5873  -25.4477  -38.7319 H         1 UNK         0.0786 
     95 H95        24.0620  -27.6521  -41.2114 H         1 UNK         0.3172 
     96 H96        26.9537  -27.0119  -41.0661 H         1 UNK         0.0595 
     97 H97        26.9519  -26.0517  -43.3301 H         1 UNK         0.0839 
     98 H98        25.8855  -25.0948  -42.3143 H         1 UNK         0.0839 
     99 H99        25.2138  -26.2443  -43.4724 H         1 UNK         0.0839 
    100 H100       26.1955  -29.3298  -40.4086 H         1 UNK         0.2998 
    101 H101       26.4867  -31.4847  -40.6203 H         1 UNK         0.0822 
    102 H102       27.9296  -32.4229  -42.3953 H         1 UNK         0.0787 
    103 H103       27.7919  -30.9495  -43.3396 H         1 UNK         0.0787 
    104 H104       28.6141  -30.9275  -41.7797 H         1 UNK         0.0787 
    105 H105       24.9025  -30.0846  -43.4176 H         1 UNK         0.3055 
    106 H106       23.6840  -32.2759  -44.6293 H         1 UNK         0.1106 
    107 H107       22.0027  -30.5764  -45.4169 H         1 UNK         0.0828 
    108 H108       22.6202  -29.4218  -44.2440 H         1 UNK         0.0828 
    109 H109       23.6493  -29.9814  -45.5612 H         1 UNK         0.0828 
    110 H110       22.6868  -33.8759  -43.5282 H         1 UNK         0.2931 
    111 H111       21.2852  -35.0418  -42.3057 H         1 UNK         0.0412 
    112 H112       23.5025  -33.3929  -40.9397 H         1 UNK         0.3472 
    113 H113       23.0466  -33.5372  -39.2552 H         1 UNK         0.3472 
    114 H114       19.0234  -34.0884  -41.5878 H         1 UNK         0.0970 
    115 H115       19.5030  -32.5618  -42.2608 H         1 UNK         0.0970 
    116 H116       19.1113  -33.1844  -46.0814 H         1 UNK         0.0612 
    117 H117       20.1809  -32.3767  -44.9698 H         1 UNK         0.0612 
@<TRIPOS>BOND
     1    1    2 1    
     2    1   62 1    
     3    1   63 1    
     4    1   64 1    
     5    2    3 2    
     6    2    4 am   BACKBONE|DICT|INTERRES
     7    4    5 1    
     8    4   65 1    
     9    5    6 1    
    10    5   25 1    
    11    5   66 1    
    12    6    7 1    
    13    6   67 1    
    14    6   68 1    
    15    7    8 1    
    16    8    9 1    
    17    8   69 1    
    18    8   70 1    
    19    9   10 ar   
    20    9   14 ar   
    21   10   11 ar   
    22   10   71 1    
    23   11   12 ar   
    24   11   61 1    
    25   12   13 ar   
    26   12   72 1    
    27   13   14 ar   
    28   13   15 1    
    29   14   73 1    
    30   15   16 1    
    31   15   74 1    
    32   15   75 1    
    33   16   17 1    
    34   17   18 1    
    35   17   76 1    
    36   17   77 1    
    37   18   19 1    
    38   18   27 1    
    39   18   78 1    
    40   19   20 am   BACKBONE|DICT|INTERRES
    41   19   79 1    
    42   20   21 2    
    43   20   22 1    
    44   22   23 1    
    45   22   24 1    
    46   22   80 1    
    47   23   81 1    
    48   23   82 1    
    49   23   83 1    
    50   24   25 am   BACKBONE|DICT|INTERRES
    51   24   84 1    
    52   25   26 2    
    53   27   28 2    
    54   27   29 am   BACKBONE|DICT|INTERRES
    55   29   30 1    
    56   29   85 1    
    57   30   31 1    
    58   30   32 1    
    59   30   86 1    
    60   31   87 1    
    61   31   88 1    
    62   31   89 1    
    63   32   33 2    
    64   32   34 am   BACKBONE|DICT|INTERRES
    65   34   35 1    
    66   34   90 1    
    67   35   36 1    
    68   35   37 1    
    69   35   91 1    
    70   36   92 1    
    71   36   93 1    
    72   36   94 1    
    73   37   38 2    
    74   37   39 am   BACKBONE|DICT|INTERRES
    75   39   40 1    
    76   39   95 1    
    77   40   41 1    
    78   40   42 1    
    79   40   96 1    
    80   41   97 1    
    81   41   98 1    
    82   41   99 1    
    83   42   43 2    
    84   42   44 am   BACKBONE|DICT|INTERRES
    85   44   45 1    
    86   44  100 1    
    87   45   46 1    
    88   45   47 1    
    89   45  101 1    
    90   46  102 1    
    91   46  103 1    
    92   46  104 1    
    93   47   48 2    
    94   47   49 am   BACKBONE|DICT|INTERRES
    95   49   50 1    
    96   49  105 1    
    97   50   51 1    
    98   50   52 1    
    99   50  106 1    
   100   51  107 1    
   101   51  108 1    
   102   51  109 1    
   103   52   53 2    
   104   52   54 am   BACKBONE|DICT|INTERRES
   105   54   55 1    
   106   54  110 1    
   107   55   56 1    
   108   55   59 1    
   109   55  111 1    
   110   56   57 am   BACKBONE|DICT|INTERRES
   111   56   58 2    
   112   57  112 1    
   113   57  113 1    
   114   59   60 1    
   115   59  114 1    
   116   59  115 1    
   117   60   61 1    
   118   61  116 1    
   119   61  117 1    
@<TRIPOS>SUBSTRUCTURE
     1 UNK         1 GROUP             0       ****    0 ROOT    
