@<TRIPOS>MOLECULE
3R8
117   119    1
SMALL
USER_CHARGES


@<TRIPOS>ATOM
      1 CA         12.0676  -24.8545  -46.9770 C.3       0 UNK        -0.2013 
      2 C          13.4612  -25.4540  -47.0910 C.2       0 UNK         0.4866 
      3 O          14.0922  -25.3437  -48.1426 O.2       0 UNK        -0.5176 
      4 N          13.9432  -26.0958  -46.0207 N.am      1 UNK        -0.4884 
      5 CA         15.2898  -26.6658  -45.9170 C.3       1 UNK         0.0853 
      6 C6         15.3934  -27.6974  -44.7625 C.3       10 UNK        -0.0849 
      7 S7         14.7936  -27.0779  -43.1516 S.3       10 UNK        -0.2776 
      8 C8         15.0856  -28.5218  -42.0841 C.3       10 UNK         0.0316 
      9 C9         16.5624  -28.7252  -41.7729 C.ar      10 UNK        -0.0863 
     10 C10        17.2239  -29.8828  -42.1971 C.ar      10 UNK        -0.1009 
     11 C11        18.5621  -30.0993  -41.8536 C.ar      10 UNK        -0.0712 
     12 C12        19.2344  -29.1495  -41.0817 C.ar      10 UNK        -0.0894 
     13 C13        18.6005  -27.9667  -40.6912 C.ar      10 UNK        -0.0745 
     14 C14        17.2592  -27.7674  -41.0287 C.ar      10 UNK        -0.0972 
     15 C15        19.3599  -26.9087  -39.9010 C.3       10 UNK         0.0209 
     16 S16        20.9446  -26.4513  -40.6797 S.3       10 UNK        -0.2568 
     17 C17        20.4141  -25.6708  -42.2457 C.3       10 UNK        -0.0983 
     18 CA         20.3842  -26.6310  -43.4748 C.3       3 UNK         0.0876 
     19 N          19.4826  -26.1680  -44.5375 N.am      3 UNK        -0.4424 
     20 C          19.5597  -25.0074  -45.2065 C.2       2 UNK         0.4918 
     21 O          20.3254  -24.0883  -44.9132 O.2       2 UNK        -0.4875 
     22 CA         18.6481  -24.8453  -46.4370 C.3       2 UNK         0.0481 
     23 CB         19.4632  -25.0418  -47.7260 C.3       2 UNK        -0.1831 
     24 N          17.5127  -25.7736  -46.4460 N.am      2 UNK        -0.4498 
     25 C          16.3589  -25.5573  -45.8003 C.2       1 UNK         0.5027 
     26 O          16.1295  -24.5464  -45.1310 O.2       1 UNK        -0.4969 
     27 C          21.7794  -26.9982  -44.0430 C.2       3 UNK         0.5005 
     28 O          21.9858  -26.9787  -45.2606 O.2       3 UNK        -0.5279 
     29 N          22.7080  -27.3712  -43.1593 N.am      4 UNK        -0.4463 
     30 CA         24.0748  -27.7736  -43.4689 C.3       4 UNK         0.0283 
     31 CB         24.0969  -29.2389  -43.9439 C.3       4 UNK        -0.1875 
     32 C          24.9171  -27.6124  -42.2024 C.2       4 UNK         0.4949 
     33 O          24.3807  -27.7283  -41.0982 O.2       4 UNK        -0.5039 
     34 N          26.2310  -27.4171  -42.3759 N.am      5 UNK        -0.4663 
     35 CA         27.2099  -27.2965  -41.2846 C.3       5 UNK         0.0242 
     36 CB         28.5752  -26.9015  -41.8704 C.3       5 UNK        -0.1982 
     37 C          27.3407  -28.5654  -40.4192 C.2       5 UNK         0.5017 
     38 O          27.7303  -28.4686  -39.2555 O.2       5 UNK        -0.5012 
     39 N          26.9855  -29.7220  -40.9961 N.am      6 UNK        -0.4439 
     40 CA         26.8904  -31.0159  -40.3188 C.3       6 UNK         0.0297 
     41 CB         26.8508  -32.1284  -41.3815 C.3       6 UNK        -0.2006 
     42 C          25.6745  -31.1398  -39.3792 C.2       6 UNK         0.4892 
     43 O          25.6326  -32.0934  -38.6015 O.2       6 UNK        -0.5089 
     44 N          24.6930  -30.2276  -39.4914 N.am      7 UNK        -0.4243 
     45 CA         23.4187  -30.1338  -38.7579 C.3       7 UNK         0.0196 
     46 CB         23.6505  -29.9582  -37.2449 C.3       7 UNK        -0.2007 
     47 C          22.4182  -31.2721  -39.0360 C.2       7 UNK         0.5020 
     48 O          21.2207  -31.0100  -39.1241 O.2       7 UNK        -0.5147 
     49 N          22.9104  -32.5058  -39.1865 N.am      8 UNK        -0.4734 
     50 CA         22.1296  -33.6930  -39.5443 C.3       8 UNK         0.0238 
     51 CB         22.8604  -34.9385  -39.0152 C.3       8 UNK        -0.1912 
     52 C          21.8765  -33.8209  -41.0583 C.2       8 UNK         0.5038 
     53 O          21.0641  -34.6573  -41.4541 O.2       8 UNK        -0.5046 
     54 N          22.5803  -33.0167  -41.8698 N.am      9 UNK        -0.4200 
     55 CA         22.5629  -33.0242  -43.3452 C.3       9 UNK         0.0839 
     56 C          23.1656  -34.3112  -43.9897 C.2       9 UNK         0.5513 
     57 N          23.9463  -35.1077  -43.2690 N.am      9 UNK        -0.7519 
     58 O          22.9543  -34.5788  -45.1698 O.2       9 UNK        -0.4960 
     59 C59        21.1803  -32.6401  -43.9511 C.3       10 UNK        -0.0876 
     60 S60        20.6247  -30.9683  -43.4753 S.3       10 UNK        -0.2414 
     61 C61        19.2877  -31.3580  -42.3031 C.3       10 UNK         0.0169 
     62 H62        11.4107  -25.2851  -47.7314 H         1 UNK         0.0903 
     63 H63        11.6243  -25.0361  -45.9990 H         1 UNK         0.0903 
     64 H64        12.1086  -23.7780  -47.1355 H         1 UNK         0.0903 
     65 H65        13.4042  -26.1258  -45.1663 H         1 UNK         0.3096 
     66 H66        15.4802  -27.2036  -46.8488 H         1 UNK         0.1121 
     67 H67        14.8045  -28.5794  -45.0189 H         1 UNK         0.0849 
     68 H68        16.4195  -28.0529  -44.6499 H         1 UNK         0.0849 
     69 H69        14.5467  -28.3783  -41.1469 H         1 UNK         0.0865 
     70 H70        14.6537  -29.4095  -42.5483 H         1 UNK         0.0865 
     71 H71        16.6938  -30.6228  -42.7811 H         1 UNK         0.1346 
     72 H72        20.2688  -29.3168  -40.8154 H         1 UNK         0.1412 
     73 H73        16.7512  -26.8660  -40.7133 H         1 UNK         0.1426 
     74 H74        18.7574  -26.0087  -39.7688 H         1 UNK         0.0716 
     75 H75        19.5604  -27.2973  -38.9017 H         1 UNK         0.0716 
     76 H76        19.4213  -25.2478  -42.0837 H         1 UNK         0.0695 
     77 H77        21.0673  -24.8185  -42.4399 H         1 UNK         0.0695 
     78 H78        19.9526  -27.5780  -43.1544 H         1 UNK         0.0983 
     79 H79        18.8350  -26.8596  -44.8820 H         1 UNK         0.3095 
     80 H80        18.2705  -23.8204  -46.4346 H         1 UNK         0.0454 
     81 H81        19.8878  -26.0447  -47.7879 H         1 UNK         0.0851 
     82 H82        18.8517  -24.8777  -48.6132 H         1 UNK         0.0851 
     83 H83        20.2940  -24.3363  -47.7728 H         1 UNK         0.0851 
     84 H84        17.6230  -26.6163  -46.9924 H         1 UNK         0.2976 
     85 H85        22.4968  -27.3276  -42.1664 H         1 UNK         0.3116 
     86 H86        24.4762  -27.1211  -44.2475 H         1 UNK         0.0646 
     87 H87        25.1093  -29.5613  -44.1890 H         1 UNK         0.0847 
     88 H88        23.4898  -29.3790  -44.8386 H         1 UNK         0.0847 
     89 H89        23.7132  -29.9106  -43.1750 H         1 UNK         0.0847 
     90 H90        26.5919  -27.3402  -43.3170 H         1 UNK         0.3040 
     91 H91        26.8735  -26.4937  -40.6241 H         1 UNK         0.1015 
     92 H92        28.5183  -25.9547  -42.4082 H         1 UNK         0.0786 
     93 H93        28.9546  -27.6582  -42.5584 H         1 UNK         0.0786 
     94 H94        29.3179  -26.7778  -41.0806 H         1 UNK         0.0786 
     95 H95        26.7053  -29.6922  -41.9652 H         1 UNK         0.3172 
     96 H96        27.7875  -31.1526  -39.7111 H         1 UNK         0.0595 
     97 H97        26.8158  -33.1145  -40.9155 H         1 UNK         0.0839 
     98 H98        27.7391  -32.1061  -42.0131 H         1 UNK         0.0839 
     99 H99        25.9763  -32.0435  -42.0282 H         1 UNK         0.0839 
    100 H100       24.8261  -29.4786  -40.1636 H         1 UNK         0.2998 
    101 H101       22.9462  -29.2191  -39.1215 H         1 UNK         0.0822 
    102 H102       24.2986  -29.1058  -37.0408 H         1 UNK         0.0787 
    103 H103       22.7074  -29.7802  -36.7265 H         1 UNK         0.0787 
    104 H104       24.1049  -30.8413  -36.7949 H         1 UNK         0.0787 
    105 H105       23.9090  -32.6265  -39.0296 H         1 UNK         0.3055 
    106 H106       21.1526  -33.6349  -39.0589 H         1 UNK         0.1106 
    107 H107       22.3007  -35.8476  -39.2403 H         1 UNK         0.0828 
    108 H108       23.8509  -35.0460  -39.4589 H         1 UNK         0.0828 
    109 H109       22.9816  -34.8959  -37.9327 H         1 UNK         0.0828 
    110 H110       23.2147  -32.3620  -41.4398 H         1 UNK         0.2931 
    111 H111       23.2611  -32.2397  -43.6369 H         1 UNK         0.0412 
    112 H112       24.3399  -35.9306  -43.6981 H         1 UNK         0.3472 
    113 H113       24.1400  -34.9010  -42.3032 H         1 UNK         0.3472 
    114 H114       20.4226  -33.3801  -43.6902 H         1 UNK         0.0970 
    115 H115       21.2306  -32.6454  -45.0412 H         1 UNK         0.0970 
    116 H116       19.7033  -31.8626  -41.4307 H         1 UNK         0.0612 
    117 H117       18.5913  -32.0568  -42.7690 H         1 UNK         0.0612 
@<TRIPOS>BOND
     1    1    2 1    
     2    1   62 1    
     3    1   63 1    
     4    1   64 1    
     5    2    3 2    
     6    2    4 am   BACKBONE|DICT|INTERRES
     7    4    5 1    
     8    4   65 1    
     9    5    6 1    
    10    5   25 1    
    11    5   66 1    
    12    6    7 1    
    13    6   67 1    
    14    6   68 1    
    15    7    8 1    
    16    8    9 1    
    17    8   69 1    
    18    8   70 1    
    19    9   10 ar   
    20    9   14 ar   
    21   10   11 ar   
    22   10   71 1    
    23   11   12 ar   
    24   11   61 1    
    25   12   13 ar   
    26   12   72 1    
    27   13   14 ar   
    28   13   15 1    
    29   14   73 1    
    30   15   16 1    
    31   15   74 1    
    32   15   75 1    
    33   16   17 1    
    34   17   18 1    
    35   17   76 1    
    36   17   77 1    
    37   18   19 1    
    38   18   27 1    
    39   18   78 1    
    40   19   20 am   BACKBONE|DICT|INTERRES
    41   19   79 1    
    42   20   21 2    
    43   20   22 1    
    44   22   23 1    
    45   22   24 1    
    46   22   80 1    
    47   23   81 1    
    48   23   82 1    
    49   23   83 1    
    50   24   25 am   BACKBONE|DICT|INTERRES
    51   24   84 1    
    52   25   26 2    
    53   27   28 2    
    54   27   29 am   BACKBONE|DICT|INTERRES
    55   29   30 1    
    56   29   85 1    
    57   30   31 1    
    58   30   32 1    
    59   30   86 1    
    60   31   87 1    
    61   31   88 1    
    62   31   89 1    
    63   32   33 2    
    64   32   34 am   BACKBONE|DICT|INTERRES
    65   34   35 1    
    66   34   90 1    
    67   35   36 1    
    68   35   37 1    
    69   35   91 1    
    70   36   92 1    
    71   36   93 1    
    72   36   94 1    
    73   37   38 2    
    74   37   39 am   BACKBONE|DICT|INTERRES
    75   39   40 1    
    76   39   95 1    
    77   40   41 1    
    78   40   42 1    
    79   40   96 1    
    80   41   97 1    
    81   41   98 1    
    82   41   99 1    
    83   42   43 2    
    84   42   44 am   BACKBONE|DICT|INTERRES
    85   44   45 1    
    86   44  100 1    
    87   45   46 1    
    88   45   47 1    
    89   45  101 1    
    90   46  102 1    
    91   46  103 1    
    92   46  104 1    
    93   47   48 2    
    94   47   49 am   BACKBONE|DICT|INTERRES
    95   49   50 1    
    96   49  105 1    
    97   50   51 1    
    98   50   52 1    
    99   50  106 1    
   100   51  107 1    
   101   51  108 1    
   102   51  109 1    
   103   52   53 2    
   104   52   54 am   BACKBONE|DICT|INTERRES
   105   54   55 1    
   106   54  110 1    
   107   55   56 1    
   108   55   59 1    
   109   55  111 1    
   110   56   57 am   BACKBONE|DICT|INTERRES
   111   56   58 2    
   112   57  112 1    
   113   57  113 1    
   114   59   60 1    
   115   59  114 1    
   116   59  115 1    
   117   60   61 1    
   118   61  116 1    
   119   61  117 1    
@<TRIPOS>SUBSTRUCTURE
     1 UNK         1 GROUP             0       ****    0 ROOT    
