@<TRIPOS>MOLECULE
3R8
117   119    1
SMALL
USER_CHARGES


@<TRIPOS>ATOM
      1 CA         18.7030  -25.0781  -40.6663 C.3       0 UNK        -0.2013 
      2 C          18.7077  -25.2893  -42.1716 C.2       0 UNK         0.4866 
      3 O          19.7386  -25.6734  -42.7324 O.2       0 UNK        -0.5176 
      4 N          17.5549  -25.0550  -42.8176 N.am      1 UNK        -0.4884 
      5 CA         17.3109  -25.1812  -44.2620 C.3       1 UNK         0.0853 
      6 C6         17.2857  -26.6631  -44.7402 C.3       10 UNK        -0.0849 
      7 S7         15.9629  -27.6358  -43.9397 S.3       10 UNK        -0.2776 
      8 C8         15.7549  -29.0257  -45.1039 C.3       10 UNK         0.0316 
      9 C9         16.9042  -30.0205  -45.0085 C.ar      10 UNK        -0.0863 
     10 C10        16.7998  -31.1512  -44.1937 C.ar      10 UNK        -0.1009 
     11 C11        17.8598  -32.0578  -44.0852 C.ar      10 UNK        -0.0712 
     12 C12        19.0372  -31.8117  -44.8071 C.ar      10 UNK        -0.0894 
     13 C13        19.1687  -30.6756  -45.6133 C.ar      10 UNK        -0.0745 
     14 C14        18.0793  -29.8023  -45.7295 C.ar      10 UNK        -0.0972 
     15 C15        20.5036  -30.4337  -46.3248 C.3       10 UNK         0.0209 
     16 S16        20.7131  -28.7558  -47.0243 S.3       10 UNK        -0.2568 
     17 C17        22.4059  -28.2962  -46.5072 C.3       10 UNK        -0.0983 
     18 CA         22.4729  -27.3275  -45.2874 C.3       3 UNK         0.0876 
     19 N          21.5518  -26.1865  -45.3603 N.am      3 UNK        -0.4424 
     20 C          21.5698  -25.2591  -46.3303 C.2       2 UNK         0.4918 
     21 O          22.4433  -25.1969  -47.1967 O.2       2 UNK        -0.4875 
     22 CA         20.4009  -24.2569  -46.3630 C.3       2 UNK         0.0481 
     23 CB         20.1096  -23.7196  -47.7774 C.3       2 UNK        -0.1831 
     24 N          19.2003  -24.8840  -45.8142 N.am      2 UNK        -0.4498 
     25 C          18.3028  -24.2773  -45.0304 C.2       1 UNK         0.5027 
     26 O          18.2667  -23.0581  -44.8489 O.2       1 UNK        -0.4969 
     27 C          22.3204  -28.0967  -43.9661 C.2       3 UNK         0.5005 
     28 O          23.3347  -28.5113  -43.4042 O.2       3 UNK        -0.5279 
     29 N          21.0814  -28.2735  -43.4785 N.am      4 UNK        -0.4463 
     30 CA         20.7454  -29.0628  -42.2859 C.3       4 UNK         0.0283 
     31 CB         19.2275  -29.0534  -42.0482 C.3       4 UNK        -0.1875 
     32 C          21.4755  -28.6389  -41.0039 C.2       4 UNK         0.4949 
     33 O          21.8132  -29.5073  -40.2002 O.2       4 UNK        -0.5039 
     34 N          21.7344  -27.3329  -40.8535 N.am      5 UNK        -0.4663 
     35 CA         22.5127  -26.7677  -39.7466 C.3       5 UNK         0.0242 
     36 CB         22.3901  -25.2356  -39.7623 C.3       5 UNK        -0.1982 
     37 C          23.9965  -27.1791  -39.7576 C.2       5 UNK         0.5017 
     38 O          24.5897  -27.3052  -38.6862 O.2       5 UNK        -0.5012 
     39 N          24.5668  -27.3749  -40.9542 N.am      6 UNK        -0.4439 
     40 CA         25.9538  -27.8011  -41.1509 C.3       6 UNK         0.0297 
     41 CB         26.4875  -27.2226  -42.4719 C.3       6 UNK        -0.2006 
     42 C          26.0744  -29.3316  -41.1417 C.2       6 UNK         0.4892 
     43 O          27.0236  -29.8622  -40.5646 O.2       6 UNK        -0.5089 
     44 N          25.1065  -30.0095  -41.7731 N.am      7 UNK        -0.4243 
     45 CA         25.0241  -31.4680  -41.8713 C.3       7 UNK         0.0196 
     46 CB         24.0443  -31.8254  -43.0020 C.3       7 UNK        -0.2007 
     47 C          24.6055  -32.1621  -40.5618 C.2       7 UNK         0.5020 
     48 O          24.7889  -33.3745  -40.4523 O.2       7 UNK        -0.5147 
     49 N          24.0288  -31.4009  -39.6180 N.am      8 UNK        -0.4734 
     50 CA         23.3877  -31.8526  -38.3736 C.3       8 UNK         0.0238 
     51 CB         24.4076  -32.5046  -37.4156 C.3       8 UNK        -0.1912 
     52 C          22.1588  -32.7396  -38.6588 C.2       8 UNK         0.5038 
     53 O          21.9600  -33.7651  -38.0045 O.2       8 UNK        -0.5046 
     54 N          21.3750  -32.3226  -39.6597 N.am      9 UNK        -0.4200 
     55 CA         20.1821  -33.0167  -40.1641 C.3       9 UNK         0.0839 
     56 C          18.8861  -32.6982  -39.3628 C.2       9 UNK         0.5513 
     57 N          18.8724  -31.6876  -38.5009 N.am      9 UNK        -0.7519 
     58 O          17.8808  -33.3869  -39.5112 O.2       9 UNK        -0.4960 
     59 C59        20.0169  -32.7442  -41.6823 C.3       10 UNK        -0.0876 
     60 S60        19.2175  -34.0937  -42.6108 S.3       10 UNK        -0.2414 
     61 C61        17.6805  -33.2822  -43.1803 C.3       10 UNK         0.0169 
     62 H62        19.2680  -24.1814  -40.4151 H         1 UNK         0.0903 
     63 H63        17.6923  -24.9634  -40.2755 H         1 UNK         0.0903 
     64 H64        19.1610  -25.9299  -40.1645 H         1 UNK         0.0903 
     65 H65        16.7603  -24.7282  -42.2858 H         1 UNK         0.3096 
     66 H66        16.3233  -24.7565  -44.4506 H         1 UNK         0.1121 
     67 H67        17.1266  -26.7067  -45.8193 H         1 UNK         0.0849 
     68 H68        18.2356  -27.1575  -44.5349 H         1 UNK         0.0849 
     69 H69        14.8117  -29.5275  -44.8828 H         1 UNK         0.0865 
     70 H70        15.6609  -28.6486  -46.1235 H         1 UNK         0.0865 
     71 H71        15.8895  -31.3229  -43.6352 H         1 UNK         0.1346 
     72 H72        19.8686  -32.4986  -44.7379 H         1 UNK         0.1412 
     73 H73        18.1376  -28.9322  -46.3655 H         1 UNK         0.1426 
     74 H74        20.6133  -31.1613  -47.1297 H         1 UNK         0.0716 
     75 H75        21.3103  -30.6308  -45.6172 H         1 UNK         0.0716 
     76 H76        23.0032  -29.1938  -46.3346 H         1 UNK         0.0695 
     77 H77        22.8752  -27.8175  -47.3675 H         1 UNK         0.0695 
     78 H78        23.4806  -26.9065  -45.2632 H         1 UNK         0.0983 
     79 H79        20.8963  -26.0797  -44.5941 H         1 UNK         0.3095 
     80 H80        20.7001  -23.4204  -45.7281 H         1 UNK         0.0454 
     81 H81        20.9775  -23.2028  -48.1888 H         1 UNK         0.0851 
     82 H82        19.8498  -24.5243  -48.4660 H         1 UNK         0.0851 
     83 H83        19.2858  -23.0059  -47.7687 H         1 UNK         0.0851 
     84 H84        19.1434  -25.8846  -45.9382 H         1 UNK         0.2976 
     85 H85        20.2989  -27.9139  -44.0016 H         1 UNK         0.3116 
     86 H86        21.0472  -30.0881  -42.5013 H         1 UNK         0.0646 
     87 H87        18.9596  -29.6443  -41.1715 H         1 UNK         0.0847 
     88 H88        18.6902  -29.4713  -42.8954 H         1 UNK         0.0847 
     89 H89        18.8428  -28.0514  -41.8775 H         1 UNK         0.0847 
     90 H90        21.3781  -26.6929  -41.5538 H         1 UNK         0.3040 
     91 H91        22.0844  -27.1365  -38.8117 H         1 UNK         0.1015 
     92 H92        21.3676  -24.9179  -39.5681 H         1 UNK         0.0786 
     93 H93        22.7006  -24.8133  -40.7188 H         1 UNK         0.0786 
     94 H94        23.0131  -24.7841  -38.9885 H         1 UNK         0.0786 
     95 H95        23.9833  -27.3311  -41.7812 H         1 UNK         0.3172 
     96 H96        26.5724  -27.4085  -40.3408 H         1 UNK         0.0595 
     97 H97        27.5281  -27.5095  -42.6293 H         1 UNK         0.0839 
     98 H98        26.4493  -26.1332  -42.4710 H         1 UNK         0.0839 
     99 H99        25.9192  -27.5770  -43.3328 H         1 UNK         0.0839 
    100 H100       24.3946  -29.4805  -42.2739 H         1 UNK         0.2998 
    101 H101       26.0119  -31.8492  -42.1391 H         1 UNK         0.0822 
    102 H102       23.0462  -31.4347  -42.8052 H         1 UNK         0.0787 
    103 H103       24.3771  -31.4191  -43.9574 H         1 UNK         0.0787 
    104 H104       23.9565  -32.9062  -43.1218 H         1 UNK         0.0787 
    105 H105       23.8792  -30.4258  -39.8453 H         1 UNK         0.3055 
    106 H106       23.0043  -30.9556  -37.8839 H         1 UNK         0.1106 
    107 H107       24.7846  -33.4516  -37.8024 H         1 UNK         0.0828 
    108 H108       25.2611  -31.8498  -37.2402 H         1 UNK         0.0828 
    109 H109       23.9529  -32.7109  -36.4460 H         1 UNK         0.0828 
    110 H110       21.5832  -31.4172  -40.0692 H         1 UNK         0.2931 
    111 H111       20.3615  -34.0864  -40.0392 H         1 UNK         0.0412 
    112 H112       18.0313  -31.4953  -37.9797 H         1 UNK         0.3472 
    113 H113       19.6923  -31.1183  -38.3650 H         1 UNK         0.3472 
    114 H114       19.4848  -31.8100  -41.8508 H         1 UNK         0.0970 
    115 H115       20.9948  -32.6124  -42.1469 H         1 UNK         0.0970 
    116 H116       17.0842  -34.0207  -43.7173 H         1 UNK         0.0612 
    117 H117       17.1031  -33.0024  -42.2975 H         1 UNK         0.0612 
@<TRIPOS>BOND
     1    1    2 1    
     2    1   62 1    
     3    1   63 1    
     4    1   64 1    
     5    2    3 2    
     6    2    4 am   BACKBONE|DICT|INTERRES
     7    4    5 1    
     8    4   65 1    
     9    5    6 1    
    10    5   25 1    
    11    5   66 1    
    12    6    7 1    
    13    6   67 1    
    14    6   68 1    
    15    7    8 1    
    16    8    9 1    
    17    8   69 1    
    18    8   70 1    
    19    9   10 ar   
    20    9   14 ar   
    21   10   11 ar   
    22   10   71 1    
    23   11   12 ar   
    24   11   61 1    
    25   12   13 ar   
    26   12   72 1    
    27   13   14 ar   
    28   13   15 1    
    29   14   73 1    
    30   15   16 1    
    31   15   74 1    
    32   15   75 1    
    33   16   17 1    
    34   17   18 1    
    35   17   76 1    
    36   17   77 1    
    37   18   19 1    
    38   18   27 1    
    39   18   78 1    
    40   19   20 am   BACKBONE|DICT|INTERRES
    41   19   79 1    
    42   20   21 2    
    43   20   22 1    
    44   22   23 1    
    45   22   24 1    
    46   22   80 1    
    47   23   81 1    
    48   23   82 1    
    49   23   83 1    
    50   24   25 am   BACKBONE|DICT|INTERRES
    51   24   84 1    
    52   25   26 2    
    53   27   28 2    
    54   27   29 am   BACKBONE|DICT|INTERRES
    55   29   30 1    
    56   29   85 1    
    57   30   31 1    
    58   30   32 1    
    59   30   86 1    
    60   31   87 1    
    61   31   88 1    
    62   31   89 1    
    63   32   33 2    
    64   32   34 am   BACKBONE|DICT|INTERRES
    65   34   35 1    
    66   34   90 1    
    67   35   36 1    
    68   35   37 1    
    69   35   91 1    
    70   36   92 1    
    71   36   93 1    
    72   36   94 1    
    73   37   38 2    
    74   37   39 am   BACKBONE|DICT|INTERRES
    75   39   40 1    
    76   39   95 1    
    77   40   41 1    
    78   40   42 1    
    79   40   96 1    
    80   41   97 1    
    81   41   98 1    
    82   41   99 1    
    83   42   43 2    
    84   42   44 am   BACKBONE|DICT|INTERRES
    85   44   45 1    
    86   44  100 1    
    87   45   46 1    
    88   45   47 1    
    89   45  101 1    
    90   46  102 1    
    91   46  103 1    
    92   46  104 1    
    93   47   48 2    
    94   47   49 am   BACKBONE|DICT|INTERRES
    95   49   50 1    
    96   49  105 1    
    97   50   51 1    
    98   50   52 1    
    99   50  106 1    
   100   51  107 1    
   101   51  108 1    
   102   51  109 1    
   103   52   53 2    
   104   52   54 am   BACKBONE|DICT|INTERRES
   105   54   55 1    
   106   54  110 1    
   107   55   56 1    
   108   55   59 1    
   109   55  111 1    
   110   56   57 am   BACKBONE|DICT|INTERRES
   111   56   58 2    
   112   57  112 1    
   113   57  113 1    
   114   59   60 1    
   115   59  114 1    
   116   59  115 1    
   117   60   61 1    
   118   61  116 1    
   119   61  117 1    
@<TRIPOS>SUBSTRUCTURE
     1 UNK         1 GROUP             0       ****    0 ROOT    
