@<TRIPOS>MOLECULE
3R8
117   119    1
SMALL
USER_CHARGES


@<TRIPOS>ATOM
      1 CA         14.0602  -24.8305  -43.4032 C.3       0 UNK        -0.2013 
      2 C          15.2461  -25.7591  -43.6141 C.2       0 UNK         0.4866 
      3 O          16.3586  -25.2891  -43.8535 O.2       0 UNK        -0.5176 
      4 N          15.0249  -27.0758  -43.5134 N.am      1 UNK        -0.4884 
      5 CA         16.0237  -28.1379  -43.7079 C.3       1 UNK         0.0853 
      6 C6         15.3530  -29.4601  -44.1616 C.3       10 UNK        -0.0849 
      7 S7         14.6293  -29.2661  -45.8300 S.3       10 UNK        -0.2776 
      8 C8         15.7240  -30.2726  -46.8903 C.3       10 UNK         0.0316 
      9 C9         17.2067  -30.0578  -46.6086 C.ar      10 UNK        -0.0863 
     10 C10        17.9639  -31.0973  -46.0635 C.ar      10 UNK        -0.1009 
     11 C11        19.3205  -30.9214  -45.7726 C.ar      10 UNK        -0.0712 
     12 C12        19.9242  -29.6914  -46.0530 C.ar      10 UNK        -0.0894 
     13 C13        19.1841  -28.6490  -46.6205 C.ar      10 UNK        -0.0745 
     14 C14        17.8250  -28.8374  -46.8952 C.ar      10 UNK        -0.0972 
     15 C15        19.8537  -27.3283  -46.9696 C.3       10 UNK         0.0209 
     16 S16        19.7663  -26.1432  -45.5942 S.3       10 UNK        -0.2568 
     17 C17        21.3870  -26.3831  -44.7885 C.3       10 UNK        -0.0983 
     18 CA         21.3749  -25.8496  -43.3335 C.3       3 UNK         0.0876 
     19 N          20.4441  -26.6217  -42.5018 N.am      3 UNK        -0.4424 
     20 C          19.6441  -26.1207  -41.5562 C.2       2 UNK         0.4918 
     21 O          19.6892  -24.9558  -41.1612 O.2       2 UNK        -0.4875 
     22 CA         18.5739  -27.0817  -41.0288 C.3       2 UNK         0.0481 
     23 CB         17.8983  -26.5957  -39.7340 C.3       2 UNK        -0.1831 
     24 N          17.5864  -27.2016  -42.0914 N.am      2 UNK        -0.4498 
     25 C          16.9263  -28.3007  -42.4644 C.2       1 UNK         0.5027 
     26 O          17.0008  -29.3794  -41.8736 O.2       1 UNK        -0.4969 
     27 C          22.7914  -25.7657  -42.7201 C.2       3 UNK         0.5005 
     28 O          23.7365  -25.3935  -43.4184 O.2       3 UNK        -0.5279 
     29 N          22.9136  -26.0919  -41.4246 N.am      4 UNK        -0.4463 
     30 CA         24.0988  -26.0546  -40.5585 C.3       4 UNK         0.0283 
     31 CB         24.6432  -24.6206  -40.4043 C.3       4 UNK        -0.1875 
     32 C          25.2108  -27.0368  -40.9601 C.2       4 UNK         0.4949 
     33 O          25.5204  -27.9386  -40.1818 O.2       4 UNK        -0.5039 
     34 N          25.7774  -26.8560  -42.1595 N.am      5 UNK        -0.4663 
     35 CA         26.9558  -27.5590  -42.6833 C.3       5 UNK         0.0242 
     36 CB         27.3488  -26.9351  -44.0318 C.3       5 UNK        -0.1982 
     37 C          26.7930  -29.0821  -42.8255 C.2       5 UNK         0.5017 
     38 O          27.7873  -29.8040  -42.7557 O.2       5 UNK        -0.5012 
     39 N          25.5475  -29.5439  -42.9869 N.am      6 UNK        -0.4439 
     40 CA         25.1633  -30.9565  -43.0480 C.3       6 UNK         0.0297 
     41 CB         23.9221  -31.0810  -43.9521 C.3       6 UNK        -0.2006 
     42 C          24.9162  -31.5762  -41.6546 C.2       6 UNK         0.4892 
     43 O          24.2404  -32.6026  -41.5772 O.2       6 UNK        -0.5089 
     44 N          25.4244  -30.9351  -40.5869 N.am      7 UNK        -0.4243 
     45 CA         25.1239  -31.1748  -39.1669 C.3       7 UNK         0.0196 
     46 CB         25.5631  -32.5847  -38.7166 C.3       7 UNK        -0.2007 
     47 C          23.6401  -30.8753  -38.8953 C.2       7 UNK         0.5020 
     48 O          22.8980  -31.7414  -38.4292 O.2       7 UNK        -0.5147 
     49 N          23.2293  -29.6641  -39.3018 N.am      8 UNK        -0.4734 
     50 CA         21.8565  -29.2246  -39.5841 C.3       8 UNK         0.0238 
     51 CB         20.9280  -29.3081  -38.3540 C.3       8 UNK        -0.1912 
     52 C          21.3049  -29.9640  -40.8138 C.2       8 UNK         0.5038 
     53 O          21.2236  -29.3665  -41.8873 O.2       8 UNK        -0.5046 
     54 N          21.0103  -31.2527  -40.6374 N.am      9 UNK        -0.4200 
     55 CA         20.7350  -32.2387  -41.6785 C.3       9 UNK         0.0839 
     56 C          20.8003  -33.6380  -41.0176 C.2       9 UNK         0.5513 
     57 N          21.9870  -34.2179  -40.9130 N.am      9 UNK        -0.7519 
     58 O          19.7932  -34.1863  -40.5760 O.2       9 UNK        -0.4960 
     59 C59        19.4318  -31.9638  -42.4801 C.3       10 UNK        -0.0876 
     60 S60        19.2990  -33.0533  -43.9374 S.3       10 UNK        -0.2414 
     61 C61        20.1554  -32.0690  -45.2128 C.3       10 UNK         0.0169 
     62 H62        14.2500  -24.1652  -42.5613 H         1 UNK         0.0903 
     63 H63        13.9007  -24.2196  -44.2913 H         1 UNK         0.0903 
     64 H64        13.1414  -25.3808  -43.2009 H         1 UNK         0.0903 
     65 H65        14.0924  -27.4002  -43.2989 H         1 UNK         0.3096 
     66 H66        16.6984  -27.8261  -44.5088 H         1 UNK         0.1121 
     67 H67        16.0637  -30.2877  -44.1642 H         1 UNK         0.0849 
     68 H68        14.5651  -29.7511  -43.4649 H         1 UNK         0.0849 
     69 H69        15.4569  -31.3229  -46.7632 H         1 UNK         0.0865 
     70 H70        15.5195  -30.0352  -47.9352 H         1 UNK         0.0865 
     71 H71        17.4930  -32.0496  -45.8618 H         1 UNK         0.1346 
     72 H72        20.9766  -29.5510  -45.8482 H         1 UNK         0.1412 
     73 H73        17.2451  -28.0327  -47.3271 H         1 UNK         0.1426 
     74 H74        20.8922  -27.4894  -47.2631 H         1 UNK         0.0716 
     75 H75        19.3625  -26.8870  -47.8382 H         1 UNK         0.0716 
     76 H76        21.6570  -27.4403  -44.8053 H         1 UNK         0.0695 
     77 H77        22.1289  -25.8619  -45.3964 H         1 UNK         0.0695 
     78 H78        21.0268  -24.8148  -43.3738 H         1 UNK         0.0983 
     79 H79        20.3914  -27.6140  -42.7061 H         1 UNK         0.3095 
     80 H80        19.0405  -28.0491  -40.8401 H         1 UNK         0.0454 
     81 H81        17.3880  -25.6423  -39.8763 H         1 UNK         0.0851 
     82 H82        17.1627  -27.3175  -39.3788 H         1 UNK         0.0851 
     83 H83        18.6317  -26.4601  -38.9384 H         1 UNK         0.0851 
     84 H84        17.4366  -26.3649  -42.6522 H         1 UNK         0.2976 
     85 H85        22.0564  -26.3643  -40.9676 H         1 UNK         0.3116 
     86 H86        23.7519  -26.3673  -39.5721 H         1 UNK         0.0646 
     87 H87        25.4831  -24.5961  -39.7086 H         1 UNK         0.0847 
     88 H88        23.8799  -23.9491  -40.0115 H         1 UNK         0.0847 
     89 H89        24.9954  -24.2062  -41.3493 H         1 UNK         0.0847 
     90 H90        25.3614  -26.1428  -42.7545 H         1 UNK         0.3040 
     91 H91        27.7727  -27.3928  -41.9776 H         1 UNK         0.1015 
     92 H92        27.5780  -25.8745  -43.9264 H         1 UNK         0.0786 
     93 H93        26.5509  -27.0342  -44.7690 H         1 UNK         0.0786 
     94 H94        28.2368  -27.4171  -44.4437 H         1 UNK         0.0786 
     95 H95        24.7989  -28.8666  -43.0151 H         1 UNK         0.3172 
     96 H96        25.9710  -31.5279  -43.5097 H         1 UNK         0.0595 
     97 H97        23.0656  -30.5502  -43.5356 H         1 UNK         0.0839 
     98 H98        23.6296  -32.1238  -44.0822 H         1 UNK         0.0839 
     99 H99        24.1135  -30.6783  -44.9467 H         1 UNK         0.0839 
    100 H100       25.9407  -30.0836  -40.7685 H         1 UNK         0.2998 
    101 H101       25.7031  -30.4478  -38.5951 H         1 UNK         0.0822 
    102 H102       26.6144  -32.7629  -38.9419 H         1 UNK         0.0787 
    103 H103       25.4360  -32.7022  -37.6399 H         1 UNK         0.0787 
    104 H104       24.9792  -33.3710  -39.1957 H         1 UNK         0.0787 
    105 H105       23.9580  -29.0466  -39.6482 H         1 UNK         0.3055 
    106 H106       21.9238  -28.1728  -39.8560 H         1 UNK         0.1106 
    107 H107       19.9404  -28.9083  -38.5863 H         1 UNK         0.0828 
    108 H108       20.7828  -30.3279  -37.9987 H         1 UNK         0.0828 
    109 H109       21.3248  -28.7237  -37.5240 H         1 UNK         0.0828 
    110 H110       21.2113  -31.6512  -39.7260 H         1 UNK         0.2931 
    111 H111       21.5665  -32.1766  -42.3825 H         1 UNK         0.0412 
    112 H112       22.0631  -35.1227  -40.4771 H         1 UNK         0.3472 
    113 H113       22.8266  -33.7220  -41.2089 H         1 UNK         0.3472 
    114 H114       19.3887  -30.9289  -42.8211 H         1 UNK         0.0970 
    115 H115       18.5525  -32.1022  -41.8488 H         1 UNK         0.0970 
    116 H116       21.0944  -31.6983  -44.8003 H         1 UNK         0.0612 
    117 H117       20.4207  -32.7312  -46.0376 H         1 UNK         0.0612 
@<TRIPOS>BOND
     1    1    2 1    
     2    1   62 1    
     3    1   63 1    
     4    1   64 1    
     5    2    3 2    
     6    2    4 am   BACKBONE|DICT|INTERRES
     7    4    5 1    
     8    4   65 1    
     9    5    6 1    
    10    5   25 1    
    11    5   66 1    
    12    6    7 1    
    13    6   67 1    
    14    6   68 1    
    15    7    8 1    
    16    8    9 1    
    17    8   69 1    
    18    8   70 1    
    19    9   10 ar   
    20    9   14 ar   
    21   10   11 ar   
    22   10   71 1    
    23   11   12 ar   
    24   11   61 1    
    25   12   13 ar   
    26   12   72 1    
    27   13   14 ar   
    28   13   15 1    
    29   14   73 1    
    30   15   16 1    
    31   15   74 1    
    32   15   75 1    
    33   16   17 1    
    34   17   18 1    
    35   17   76 1    
    36   17   77 1    
    37   18   19 1    
    38   18   27 1    
    39   18   78 1    
    40   19   20 am   BACKBONE|DICT|INTERRES
    41   19   79 1    
    42   20   21 2    
    43   20   22 1    
    44   22   23 1    
    45   22   24 1    
    46   22   80 1    
    47   23   81 1    
    48   23   82 1    
    49   23   83 1    
    50   24   25 am   BACKBONE|DICT|INTERRES
    51   24   84 1    
    52   25   26 2    
    53   27   28 2    
    54   27   29 am   BACKBONE|DICT|INTERRES
    55   29   30 1    
    56   29   85 1    
    57   30   31 1    
    58   30   32 1    
    59   30   86 1    
    60   31   87 1    
    61   31   88 1    
    62   31   89 1    
    63   32   33 2    
    64   32   34 am   BACKBONE|DICT|INTERRES
    65   34   35 1    
    66   34   90 1    
    67   35   36 1    
    68   35   37 1    
    69   35   91 1    
    70   36   92 1    
    71   36   93 1    
    72   36   94 1    
    73   37   38 2    
    74   37   39 am   BACKBONE|DICT|INTERRES
    75   39   40 1    
    76   39   95 1    
    77   40   41 1    
    78   40   42 1    
    79   40   96 1    
    80   41   97 1    
    81   41   98 1    
    82   41   99 1    
    83   42   43 2    
    84   42   44 am   BACKBONE|DICT|INTERRES
    85   44   45 1    
    86   44  100 1    
    87   45   46 1    
    88   45   47 1    
    89   45  101 1    
    90   46  102 1    
    91   46  103 1    
    92   46  104 1    
    93   47   48 2    
    94   47   49 am   BACKBONE|DICT|INTERRES
    95   49   50 1    
    96   49  105 1    
    97   50   51 1    
    98   50   52 1    
    99   50  106 1    
   100   51  107 1    
   101   51  108 1    
   102   51  109 1    
   103   52   53 2    
   104   52   54 am   BACKBONE|DICT|INTERRES
   105   54   55 1    
   106   54  110 1    
   107   55   56 1    
   108   55   59 1    
   109   55  111 1    
   110   56   57 am   BACKBONE|DICT|INTERRES
   111   56   58 2    
   112   57  112 1    
   113   57  113 1    
   114   59   60 1    
   115   59  114 1    
   116   59  115 1    
   117   60   61 1    
   118   61  116 1    
   119   61  117 1    
@<TRIPOS>SUBSTRUCTURE
     1 UNK         1 GROUP             0       ****    0 ROOT    
