@<TRIPOS>MOLECULE
3R8
117   119    1
SMALL
USER_CHARGES


@<TRIPOS>ATOM
      1 CA         16.2675  -23.2119  -48.6568 C.3       0 UNK        -0.2013 
      2 C          17.0700  -24.4897  -48.4624 C.2       0 UNK         0.4866 
      3 O          17.2522  -25.2501  -49.4135 O.2       0 UNK        -0.5176 
      4 N          17.5519  -24.7318  -47.2398 N.am      1 UNK        -0.4884 
      5 CA         18.3686  -25.8825  -46.8610 C.3       1 UNK         0.0853 
      6 C6         17.5020  -27.1386  -46.5849 C.3       10 UNK        -0.0849 
      7 S7         18.4565  -28.6893  -46.6865 S.3       10 UNK        -0.2776 
      8 C8         17.2030  -29.9071  -46.1750 C.3       10 UNK         0.0316 
      9 C9         17.1206  -30.0357  -44.6604 C.ar      10 UNK        -0.0863 
     10 C10        17.9252  -30.9651  -43.9951 C.ar      10 UNK        -0.1009 
     11 C11        17.8484  -31.1094  -42.6070 C.ar      10 UNK        -0.0712 
     12 C12        16.9472  -30.3249  -41.8841 C.ar      10 UNK        -0.0894 
     13 C13        16.1470  -29.3809  -42.5351 C.ar      10 UNK        -0.0745 
     14 C14        16.2310  -29.2472  -43.9246 C.ar      10 UNK        -0.0972 
     15 C15        15.2019  -28.4967  -41.7341 C.3       10 UNK         0.0209 
     16 S16        16.0907  -27.4670  -40.5210 S.3       10 UNK        -0.2568 
     17 C17        17.2256  -26.5131  -41.5882 C.3       10 UNK        -0.0983 
     18 CA         18.6689  -27.0834  -41.6135 C.3       3 UNK         0.0876 
     19 N          19.4536  -26.4485  -42.6747 N.am      3 UNK        -0.4424 
     20 C          20.7180  -26.7090  -43.0349 C.2       2 UNK         0.4918 
     21 O          21.4569  -27.5049  -42.4505 O.2       2 UNK        -0.4875 
     22 CA         21.2341  -25.9501  -44.2753 C.3       2 UNK         0.0481 
     23 CB         22.6575  -26.3762  -44.6787 C.3       2 UNK        -0.1831 
     24 N          20.3454  -26.1273  -45.4282 N.am      2 UNK        -0.4498 
     25 C          19.1930  -25.4762  -45.6292 C.2       1 UNK         0.5027 
     26 O          18.7538  -24.6171  -44.8576 O.2       1 UNK        -0.4969 
     27 C          19.3747  -26.9753  -40.2470 C.2       3 UNK         0.5005 
     28 O          19.3509  -25.9069  -39.6325 O.2       3 UNK        -0.5279 
     29 N          20.0464  -28.0660  -39.8443 N.am      4 UNK        -0.4463 
     30 CA         20.9037  -28.2152  -38.6589 C.3       4 UNK         0.0283 
     31 CB         20.0828  -28.0538  -37.3628 C.3       4 UNK        -0.1875 
     32 C          22.1667  -27.3246  -38.6550 C.2       4 UNK         0.4949 
     33 O          22.9039  -27.3356  -37.6684 O.2       4 UNK        -0.5039 
     34 N          22.4114  -26.5854  -39.7447 N.am      5 UNK        -0.4663 
     35 CA         23.5950  -25.7517  -39.9484 C.3       5 UNK         0.0242 
     36 CB         23.2382  -24.5646  -40.8574 C.3       5 UNK        -0.1982 
     37 C          24.7427  -26.5753  -40.5451 C.2       5 UNK         0.5017 
     38 O          25.8960  -26.3631  -40.1691 O.2       5 UNK        -0.5012 
     39 N          24.4039  -27.5165  -41.4367 N.am      6 UNK        -0.4439 
     40 CA         25.3152  -28.5480  -41.9206 C.3       6 UNK         0.0297 
     41 CB         24.9185  -28.9592  -43.3476 C.3       6 UNK        -0.2006 
     42 C          25.2479  -29.7516  -40.9733 C.2       6 UNK         0.4892 
     43 O          24.1502  -30.1520  -40.5769 O.2       6 UNK        -0.5089 
     44 N          26.4149  -30.3222  -40.6509 N.am      7 UNK        -0.4243 
     45 CA         26.5316  -31.5735  -39.9032 C.3       7 UNK         0.0196 
     46 CB         27.9816  -31.7574  -39.4250 C.3       7 UNK        -0.2007 
     47 C          26.0865  -32.7401  -40.7968 C.2       7 UNK         0.5020 
     48 O          26.6564  -32.9144  -41.8760 O.2       7 UNK        -0.5147 
     49 N          25.0673  -33.4837  -40.3430 N.am      8 UNK        -0.4734 
     50 CA         24.3532  -34.5347  -41.0807 C.3       8 UNK         0.0238 
     51 CB         25.2647  -35.7569  -41.3289 C.3       8 UNK        -0.1912 
     52 C          23.7118  -33.9829  -42.3704 C.2       8 UNK         0.5038 
     53 O          24.0525  -34.4235  -43.4700 O.2       8 UNK        -0.5046 
     54 N          22.8108  -33.0050  -42.1977 N.am      9 UNK        -0.4200 
     55 CA         22.0673  -32.3139  -43.2662 C.3       9 UNK         0.0839 
     56 C          21.1982  -33.2121  -44.1966 C.2       9 UNK         0.5513 
     57 N          20.8587  -34.4387  -43.8179 N.am      9 UNK        -0.7519 
     58 O          20.8323  -32.7857  -45.2881 O.2       9 UNK        -0.4960 
     59 C59        21.2635  -31.0936  -42.7254 C.3       10 UNK        -0.0876 
     60 S60        20.2560  -31.4154  -41.2301 S.3       10 UNK        -0.2414 
     61 C61        18.7131  -32.1316  -41.8869 C.3       10 UNK         0.0169 
     62 H62        16.1829  -22.6390  -47.7335 H         1 UNK         0.0903 
     63 H63        16.7438  -22.5797  -49.4058 H         1 UNK         0.0903 
     64 H64        15.2615  -23.4496  -49.0013 H         1 UNK         0.0903 
     65 H65        17.4210  -24.0652  -46.4872 H         1 UNK         0.3096 
     66 H66        19.0631  -26.0863  -47.6798 H         1 UNK         0.1121 
     67 H67        16.7028  -27.2110  -47.3244 H         1 UNK         0.0849 
     68 H68        17.0065  -27.0646  -45.6158 H         1 UNK         0.0849 
     69 H69        16.2300  -29.6414  -46.5915 H         1 UNK         0.0865 
     70 H70        17.4600  -30.8740  -46.6106 H         1 UNK         0.0865 
     71 H71        18.6095  -31.5800  -44.5623 H         1 UNK         0.1346 
     72 H72        16.8822  -30.4330  -40.8098 H         1 UNK         0.1412 
     73 H73        15.6031  -28.5291  -44.4336 H         1 UNK         0.1426 
     74 H74        14.4847  -29.1269  -41.2066 H         1 UNK         0.0716 
     75 H75        14.6192  -27.8485  -42.3904 H         1 UNK         0.0716 
     76 H76        17.2256  -25.4746  -41.2518 H         1 UNK         0.0695 
     77 H77        16.8139  -26.4933  -42.5987 H         1 UNK         0.0695 
     78 H78        18.6104  -28.1389  -41.8815 H         1 UNK         0.0983 
     79 H79        18.9686  -25.7440  -43.2199 H         1 UNK         0.3095 
     80 H80        21.2681  -24.8903  -44.0143 H         1 UNK         0.0454 
     81 H81        22.7026  -27.4348  -44.9368 H         1 UNK         0.0851 
     82 H82        23.3653  -26.2063  -43.8673 H         1 UNK         0.0851 
     83 H83        23.0143  -25.8067  -45.5368 H         1 UNK         0.0851 
     84 H84        20.5949  -26.8654  -46.0723 H         1 UNK         0.2976 
     85 H85        20.0453  -28.8691  -40.4610 H         1 UNK         0.3116 
     86 H86        21.2694  -29.2428  -38.6908 H         1 UNK         0.0646 
     87 H87        19.7340  -27.0297  -37.2278 H         1 UNK         0.0847 
     88 H88        19.2117  -28.7088  -37.3603 H         1 UNK         0.0847 
     89 H89        20.6801  -28.3089  -36.4866 H         1 UNK         0.0847 
     90 H90        21.7732  -26.6763  -40.5250 H         1 UNK         0.3040 
     91 H91        23.9290  -25.3561  -38.9863 H         1 UNK         0.1015 
     92 H92        24.0996  -23.9100  -40.9970 H         1 UNK         0.0786 
     93 H93        22.4399  -23.9616  -40.4240 H         1 UNK         0.0786 
     94 H94        22.9130  -24.8890  -41.8452 H         1 UNK         0.0786 
     95 H95        23.4212  -27.6534  -41.6457 H         1 UNK         0.3172 
     96 H96        26.3370  -28.1630  -41.9471 H         1 UNK         0.0595 
     97 H97        23.8795  -29.2836  -43.4040 H         1 UNK         0.0839 
     98 H98        25.5373  -29.7844  -43.7033 H         1 UNK         0.0839 
     99 H99        25.0512  -28.1335  -44.0462 H         1 UNK         0.0839 
    100 H100       27.2669  -29.9518  -41.0469 H         1 UNK         0.2998 
    101 H101       25.8849  -31.5165  -39.0245 H         1 UNK         0.0822 
    102 H102       28.0881  -32.6816  -38.8554 H         1 UNK         0.0787 
    103 H103       28.6815  -31.8075  -40.2604 H         1 UNK         0.0787 
    104 H104       28.2922  -30.9388  -38.7754 H         1 UNK         0.0787 
    105 H105       24.6697  -33.2378  -39.4462 H         1 UNK         0.3055 
    106 H106       23.5313  -34.8671  -40.4441 H         1 UNK         0.1106 
    107 H107       25.6725  -36.1435  -40.3950 H         1 UNK         0.0828 
    108 H108       24.7066  -36.5676  -41.7987 H         1 UNK         0.0828 
    109 H109       26.1014  -35.5191  -41.9863 H         1 UNK         0.0828 
    110 H110       22.6087  -32.6862  -41.2611 H         1 UNK         0.2931 
    111 H111       22.8356  -31.9034  -43.9246 H         1 UNK         0.0412 
    112 H112       21.1606  -34.8019  -42.9287 H         1 UNK         0.3472 
    113 H113       20.3056  -35.0110  -44.4361 H         1 UNK         0.3472 
    114 H114       21.9714  -30.3133  -42.4438 H         1 UNK         0.0970 
    115 H115       20.6495  -30.6370  -43.5028 H         1 UNK         0.0970 
    116 H116       18.9307  -32.9741  -42.5405 H         1 UNK         0.0612 
    117 H117       18.1519  -32.5504  -41.0504 H         1 UNK         0.0612 
@<TRIPOS>BOND
     1    1    2 1    
     2    1   62 1    
     3    1   63 1    
     4    1   64 1    
     5    2    3 2    
     6    2    4 am   BACKBONE|DICT|INTERRES
     7    4    5 1    
     8    4   65 1    
     9    5    6 1    
    10    5   25 1    
    11    5   66 1    
    12    6    7 1    
    13    6   67 1    
    14    6   68 1    
    15    7    8 1    
    16    8    9 1    
    17    8   69 1    
    18    8   70 1    
    19    9   10 ar   
    20    9   14 ar   
    21   10   11 ar   
    22   10   71 1    
    23   11   12 ar   
    24   11   61 1    
    25   12   13 ar   
    26   12   72 1    
    27   13   14 ar   
    28   13   15 1    
    29   14   73 1    
    30   15   16 1    
    31   15   74 1    
    32   15   75 1    
    33   16   17 1    
    34   17   18 1    
    35   17   76 1    
    36   17   77 1    
    37   18   19 1    
    38   18   27 1    
    39   18   78 1    
    40   19   20 am   BACKBONE|DICT|INTERRES
    41   19   79 1    
    42   20   21 2    
    43   20   22 1    
    44   22   23 1    
    45   22   24 1    
    46   22   80 1    
    47   23   81 1    
    48   23   82 1    
    49   23   83 1    
    50   24   25 am   BACKBONE|DICT|INTERRES
    51   24   84 1    
    52   25   26 2    
    53   27   28 2    
    54   27   29 am   BACKBONE|DICT|INTERRES
    55   29   30 1    
    56   29   85 1    
    57   30   31 1    
    58   30   32 1    
    59   30   86 1    
    60   31   87 1    
    61   31   88 1    
    62   31   89 1    
    63   32   33 2    
    64   32   34 am   BACKBONE|DICT|INTERRES
    65   34   35 1    
    66   34   90 1    
    67   35   36 1    
    68   35   37 1    
    69   35   91 1    
    70   36   92 1    
    71   36   93 1    
    72   36   94 1    
    73   37   38 2    
    74   37   39 am   BACKBONE|DICT|INTERRES
    75   39   40 1    
    76   39   95 1    
    77   40   41 1    
    78   40   42 1    
    79   40   96 1    
    80   41   97 1    
    81   41   98 1    
    82   41   99 1    
    83   42   43 2    
    84   42   44 am   BACKBONE|DICT|INTERRES
    85   44   45 1    
    86   44  100 1    
    87   45   46 1    
    88   45   47 1    
    89   45  101 1    
    90   46  102 1    
    91   46  103 1    
    92   46  104 1    
    93   47   48 2    
    94   47   49 am   BACKBONE|DICT|INTERRES
    95   49   50 1    
    96   49  105 1    
    97   50   51 1    
    98   50   52 1    
    99   50  106 1    
   100   51  107 1    
   101   51  108 1    
   102   51  109 1    
   103   52   53 2    
   104   52   54 am   BACKBONE|DICT|INTERRES
   105   54   55 1    
   106   54  110 1    
   107   55   56 1    
   108   55   59 1    
   109   55  111 1    
   110   56   57 am   BACKBONE|DICT|INTERRES
   111   56   58 2    
   112   57  112 1    
   113   57  113 1    
   114   59   60 1    
   115   59  114 1    
   116   59  115 1    
   117   60   61 1    
   118   61  116 1    
   119   61  117 1    
@<TRIPOS>SUBSTRUCTURE
     1 UNK         1 GROUP             0       ****    0 ROOT    
