@<TRIPOS>MOLECULE
3R8
117   119    1
SMALL
USER_CHARGES


@<TRIPOS>ATOM
      1 CA         16.0150  -23.4455  -48.2255 C.3       0 UNK        -0.2013 
      2 C          16.9411  -24.5496  -47.7375 C.2       0 UNK         0.4866 
      3 O          17.8407  -24.9631  -48.4702 O.2       0 UNK        -0.5176 
      4 N          16.7226  -25.0372  -46.5102 N.am      1 UNK        -0.4884 
      5 CA         17.5413  -26.0674  -45.8626 C.3       1 UNK         0.0853 
      6 C6         16.8447  -26.6567  -44.6120 C.3       10 UNK        -0.0849 
      7 S7         15.2471  -27.4641  -44.9652 S.3       10 UNK        -0.2776 
      8 C8         15.7303  -29.2139  -45.2029 C.3       10 UNK         0.0316 
      9 C9         16.4991  -29.8591  -44.0461 C.ar      10 UNK        -0.0863 
     10 C10        17.3656  -30.9200  -44.3257 C.ar      10 UNK        -0.1009 
     11 C11        18.1022  -31.5338  -43.3085 C.ar      10 UNK        -0.0712 
     12 C12        17.9795  -31.0726  -41.9946 C.ar      10 UNK        -0.0894 
     13 C13        17.1086  -30.0202  -41.6946 C.ar      10 UNK        -0.0745 
     14 C14        16.3579  -29.4338  -42.7188 C.ar      10 UNK        -0.0972 
     15 C15        16.9595  -29.5239  -40.2622 C.3       10 UNK         0.0209 
     16 S16        18.4482  -28.6703  -39.6459 S.3       10 UNK        -0.2568 
     17 C17        18.6076  -27.2439  -40.7763 C.3       10 UNK        -0.0983 
     18 CA         20.0827  -27.0433  -41.2135 C.3       3 UNK         0.0876 
     19 N          20.1949  -26.6187  -42.6122 N.am      3 UNK        -0.4424 
     20 C          21.3395  -26.5373  -43.3075 C.2       2 UNK         0.4918 
     21 O          22.4443  -26.7674  -42.8143 O.2       2 UNK        -0.4875 
     22 CA         21.2430  -26.1702  -44.8039 C.3       2 UNK         0.0481 
     23 CB         22.2760  -26.9518  -45.6367 C.3       2 UNK        -0.1831 
     24 N          19.9049  -26.4261  -45.3490 N.am      2 UNK        -0.4498 
     25 C          18.9243  -25.5193  -45.4520 C.2       1 UNK         0.5027 
     26 O          19.0558  -24.3292  -45.1551 O.2       1 UNK        -0.4969 
     27 C          20.8468  -26.1142  -40.2454 C.2       3 UNK         0.5005 
     28 O          21.1104  -24.9533  -40.5707 O.2       3 UNK        -0.5279 
     29 N          21.2190  -26.6660  -39.0830 N.am      4 UNK        -0.4463 
     30 CA         22.0980  -26.1167  -38.0398 C.3       4 UNK         0.0283 
     31 CB         21.5723  -24.7839  -37.4715 C.3       4 UNK        -0.1875 
     32 C          23.5707  -26.0044  -38.4761 C.2       4 UNK         0.4949 
     33 O          24.4496  -26.4140  -37.7184 O.2       4 UNK        -0.5039 
     34 N          23.8180  -25.4892  -39.6874 N.am      5 UNK        -0.4663 
     35 CA         25.1365  -25.4330  -40.3219 C.3       5 UNK         0.0242 
     36 CB         25.0895  -24.4736  -41.5226 C.3       5 UNK        -0.1982 
     37 C          25.6277  -26.8260  -40.7492 C.2       5 UNK         0.5017 
     38 O          26.7723  -27.1800  -40.4646 O.2       5 UNK        -0.5012 
     39 N          24.7467  -27.5914  -41.4034 N.am      6 UNK        -0.4439 
     40 CA         24.9815  -28.9527  -41.8717 C.3       6 UNK         0.0297 
     41 CB         25.5436  -28.9183  -43.3064 C.3       6 UNK        -0.2006 
     42 C          23.6717  -29.7445  -41.7554 C.2       6 UNK         0.4892 
     43 O          23.1241  -30.1865  -42.7649 O.2       6 UNK        -0.5089 
     44 N          23.1840  -29.8945  -40.5141 N.am      7 UNK        -0.4243 
     45 CA         21.9731  -30.6557  -40.1755 C.3       7 UNK         0.0196 
     46 CB         21.6293  -30.4347  -38.6937 C.3       7 UNK        -0.2007 
     47 C          22.0898  -32.1624  -40.4676 C.2       7 UNK         0.5020 
     48 O          21.0816  -32.8060  -40.7579 O.2       7 UNK        -0.5147 
     49 N          23.3147  -32.6999  -40.4017 N.am      8 UNK        -0.4734 
     50 CA         23.6510  -34.0717  -40.7812 C.3       8 UNK         0.0238 
     51 CB         24.9091  -34.5093  -40.0072 C.3       8 UNK        -0.1912 
     52 C          23.8285  -34.1678  -42.3076 C.2       8 UNK         0.5038 
     53 O          24.9542  -34.3207  -42.7866 O.2       8 UNK        -0.5046 
     54 N          22.7150  -34.0257  -43.0370 N.am      9 UNK        -0.4200 
     55 CA         22.6361  -34.0732  -44.5046 C.3       9 UNK         0.0839 
     56 C          23.1590  -35.4095  -45.1014 C.2       9 UNK         0.5513 
     57 N          23.8488  -35.3567  -46.2325 N.am      9 UNK        -0.7519 
     58 O          22.9011  -36.4905  -44.5752 O.2       9 UNK        -0.4960 
     59 C59        21.1959  -33.7990  -45.0088 C.3       10 UNK        -0.0876 
     60 S60        20.5302  -32.1859  -44.4707 S.3       10 UNK        -0.2414 
     61 C61        19.0030  -32.7142  -43.6364 C.3       10 UNK         0.0169 
     62 H62        15.5050  -23.7584  -49.1362 H         1 UNK         0.0903 
     63 H63        15.2582  -23.1902  -47.4840 H         1 UNK         0.0903 
     64 H64        16.5887  -22.5461  -48.4477 H         1 UNK         0.0903 
     65 H65        15.9736  -24.6585  -45.9481 H         1 UNK         0.3096 
     66 H66        17.6984  -26.8714  -46.5858 H         1 UNK         0.1121 
     67 H67        17.4994  -27.3740  -44.1172 H         1 UNK         0.0849 
     68 H68        16.6592  -25.8717  -43.8757 H         1 UNK         0.0849 
     69 H69        14.8277  -29.7989  -45.3840 H         1 UNK         0.0865 
     70 H70        16.3221  -29.2753  -46.1177 H         1 UNK         0.0865 
     71 H71        17.4711  -31.2752  -45.3421 H         1 UNK         0.1346 
     72 H72        18.5551  -31.5360  -41.2042 H         1 UNK         0.1412 
     73 H73        15.6761  -28.6296  -42.4798 H         1 UNK         0.1426 
     74 H74        16.1047  -28.8520  -40.1695 H         1 UNK         0.0716 
     75 H75        16.7494  -30.3740  -39.6117 H         1 UNK         0.0716 
     76 H76        18.1948  -26.3534  -40.2975 H         1 UNK         0.0695 
     77 H77        17.9764  -27.4209  -41.6460 H         1 UNK         0.0695 
     78 H78        20.5900  -28.0099  -41.1865 H         1 UNK         0.0983 
     79 H79        19.3409  -26.3499  -43.0717 H         1 UNK         0.3095 
     80 H80        21.4818  -25.1083  -44.8888 H         1 UNK         0.0454 
     81 H81        22.1490  -28.0301  -45.5290 H         1 UNK         0.0851 
     82 H82        23.2935  -26.7127  -45.3243 H         1 UNK         0.0851 
     83 H83        22.2012  -26.7069  -46.6961 H         1 UNK         0.0851 
     84 H84        19.7072  -27.3880  -45.5892 H         1 UNK         0.2976 
     85 H85        20.9078  -27.6122  -38.9113 H         1 UNK         0.3116 
     86 H86        22.0693  -26.8447  -37.2272 H         1 UNK         0.0646 
     87 H87        21.6151  -23.9768  -38.2031 H         1 UNK         0.0847 
     88 H88        22.1677  -24.4692  -36.6136 H         1 UNK         0.0847 
     89 H89        20.5404  -24.8761  -37.1333 H         1 UNK         0.0847 
     90 H90        23.0200  -25.1698  -40.2305 H         1 UNK         0.3040 
     91 H91        25.8500  -25.0372  -39.5955 H         1 UNK         0.1015 
     92 H92        24.3662  -24.7953  -42.2730 H         1 UNK         0.0786 
     93 H93        26.0627  -24.4133  -42.0118 H         1 UNK         0.0786 
     94 H94        24.8207  -23.4640  -41.2113 H         1 UNK         0.0786 
     95 H95        23.8418  -27.1991  -41.6607 H         1 UNK         0.3172 
     96 H96        25.7109  -29.4469  -41.2265 H         1 UNK         0.0595 
     97 H97        25.7137  -29.9274  -43.6840 H         1 UNK         0.0839 
     98 H98        26.4967  -28.3912  -43.3472 H         1 UNK         0.0839 
     99 H99        24.8563  -28.4223  -43.9932 H         1 UNK         0.0839 
    100 H100       23.6989  -29.4888  -39.7454 H         1 UNK         0.2998 
    101 H101       21.1521  -30.2744  -40.7861 H         1 UNK         0.0822 
    102 H102       20.6986  -30.9412  -38.4327 H         1 UNK         0.0787 
    103 H103       22.4072  -30.8248  -38.0360 H         1 UNK         0.0787 
    104 H104       21.4955  -29.3803  -38.4617 H         1 UNK         0.0787 
    105 H105       24.0883  -32.0912  -40.1782 H         1 UNK         0.3055 
    106 H106       22.8349  -34.7411  -40.4983 H         1 UNK         0.1106 
    107 H107       24.7408  -34.4830  -38.9305 H         1 UNK         0.0828 
    108 H108       25.1884  -35.5318  -40.2651 H         1 UNK         0.0828 
    109 H109       25.7662  -33.8718  -40.2281 H         1 UNK         0.0828 
    110 H110       21.8500  -33.8298  -42.5494 H         1 UNK         0.2931 
    111 H111       23.2776  -33.2687  -44.8706 H         1 UNK         0.0412 
    112 H112       24.0553  -34.4749  -46.6765 H         1 UNK         0.3472 
    113 H113       24.1817  -36.2145  -46.6452 H         1 UNK         0.3472 
    114 H114       21.1706  -33.8091  -46.1003 H         1 UNK         0.0970 
    115 H115       20.5281  -34.6013  -44.6889 H         1 UNK         0.0970 
    116 H116       19.2585  -33.2698  -42.7331 H         1 UNK         0.0612 
    117 H117       18.4581  -33.4053  -44.2813 H         1 UNK         0.0612 
@<TRIPOS>BOND
     1    1    2 1    
     2    1   62 1    
     3    1   63 1    
     4    1   64 1    
     5    2    3 2    
     6    2    4 am   BACKBONE|DICT|INTERRES
     7    4    5 1    
     8    4   65 1    
     9    5    6 1    
    10    5   25 1    
    11    5   66 1    
    12    6    7 1    
    13    6   67 1    
    14    6   68 1    
    15    7    8 1    
    16    8    9 1    
    17    8   69 1    
    18    8   70 1    
    19    9   10 ar   
    20    9   14 ar   
    21   10   11 ar   
    22   10   71 1    
    23   11   12 ar   
    24   11   61 1    
    25   12   13 ar   
    26   12   72 1    
    27   13   14 ar   
    28   13   15 1    
    29   14   73 1    
    30   15   16 1    
    31   15   74 1    
    32   15   75 1    
    33   16   17 1    
    34   17   18 1    
    35   17   76 1    
    36   17   77 1    
    37   18   19 1    
    38   18   27 1    
    39   18   78 1    
    40   19   20 am   BACKBONE|DICT|INTERRES
    41   19   79 1    
    42   20   21 2    
    43   20   22 1    
    44   22   23 1    
    45   22   24 1    
    46   22   80 1    
    47   23   81 1    
    48   23   82 1    
    49   23   83 1    
    50   24   25 am   BACKBONE|DICT|INTERRES
    51   24   84 1    
    52   25   26 2    
    53   27   28 2    
    54   27   29 am   BACKBONE|DICT|INTERRES
    55   29   30 1    
    56   29   85 1    
    57   30   31 1    
    58   30   32 1    
    59   30   86 1    
    60   31   87 1    
    61   31   88 1    
    62   31   89 1    
    63   32   33 2    
    64   32   34 am   BACKBONE|DICT|INTERRES
    65   34   35 1    
    66   34   90 1    
    67   35   36 1    
    68   35   37 1    
    69   35   91 1    
    70   36   92 1    
    71   36   93 1    
    72   36   94 1    
    73   37   38 2    
    74   37   39 am   BACKBONE|DICT|INTERRES
    75   39   40 1    
    76   39   95 1    
    77   40   41 1    
    78   40   42 1    
    79   40   96 1    
    80   41   97 1    
    81   41   98 1    
    82   41   99 1    
    83   42   43 2    
    84   42   44 am   BACKBONE|DICT|INTERRES
    85   44   45 1    
    86   44  100 1    
    87   45   46 1    
    88   45   47 1    
    89   45  101 1    
    90   46  102 1    
    91   46  103 1    
    92   46  104 1    
    93   47   48 2    
    94   47   49 am   BACKBONE|DICT|INTERRES
    95   49   50 1    
    96   49  105 1    
    97   50   51 1    
    98   50   52 1    
    99   50  106 1    
   100   51  107 1    
   101   51  108 1    
   102   51  109 1    
   103   52   53 2    
   104   52   54 am   BACKBONE|DICT|INTERRES
   105   54   55 1    
   106   54  110 1    
   107   55   56 1    
   108   55   59 1    
   109   55  111 1    
   110   56   57 am   BACKBONE|DICT|INTERRES
   111   56   58 2    
   112   57  112 1    
   113   57  113 1    
   114   59   60 1    
   115   59  114 1    
   116   59  115 1    
   117   60   61 1    
   118   61  116 1    
   119   61  117 1    
@<TRIPOS>SUBSTRUCTURE
     1 UNK         1 GROUP             0       ****    0 ROOT    
