@<TRIPOS>MOLECULE
3R8
117   119    1
SMALL
USER_CHARGES


@<TRIPOS>ATOM
      1 CA         15.3063  -24.8656  -48.6851 C.3       0 UNK        -0.2013 
      2 C          15.3253  -25.3627  -47.2473 C.2       0 UNK         0.4866 
      3 O          14.5926  -24.8328  -46.4119 O.2       0 UNK        -0.5176 
      4 N          16.1594  -26.3730  -46.9616 N.am      1 UNK        -0.4884 
      5 CA         16.3442  -27.0151  -45.6502 C.3       1 UNK         0.0853 
      6 C6         15.1158  -27.8493  -45.1897 C.3       10 UNK        -0.0849 
      7 S7         14.9116  -29.3326  -46.2356 S.3       10 UNK        -0.2776 
      8 C8         15.6452  -30.6413  -45.1917 C.3       10 UNK         0.0316 
      9 C9         17.0433  -30.2835  -44.6990 C.ar      10 UNK        -0.0863 
     10 C10        17.2619  -30.0101  -43.3446 C.ar      10 UNK        -0.1009 
     11 C11        18.5311  -29.6444  -42.8886 C.ar      10 UNK        -0.0712 
     12 C12        19.5843  -29.5512  -43.8016 C.ar      10 UNK        -0.0894 
     13 C13        19.3835  -29.8189  -45.1595 C.ar      10 UNK        -0.0745 
     14 C14        18.1115  -30.2011  -45.5984 C.ar      10 UNK        -0.0972 
     15 C15        20.5342  -29.7138  -46.1533 C.3       10 UNK         0.0209 
     16 S16        20.9326  -27.9848  -46.5818 S.3       10 UNK        -0.2568 
     17 C17        22.1406  -27.5540  -45.2788 C.3       10 UNK        -0.0983 
     18 CA         21.9831  -26.1339  -44.6721 C.3       3 UNK         0.0876 
     19 N          20.5796  -25.7574  -44.4454 N.am      3 UNK        -0.4424 
     20 C          20.1409  -24.4999  -44.2831 C.2       2 UNK         0.4918 
     21 O          20.8844  -23.5183  -44.2660 O.2       2 UNK        -0.4875 
     22 CA         18.6214  -24.3154  -44.1267 C.3       2 UNK         0.0481 
     23 CB         18.1515  -22.8880  -44.4647 C.3       2 UNK        -0.1831 
     24 N          17.9063  -25.2745  -44.9681 N.am      2 UNK        -0.4498 
     25 C          16.8722  -26.0329  -44.5833 C.2       1 UNK         0.5027 
     26 O          16.3617  -25.9823  -43.4625 O.2       1 UNK        -0.4969 
     27 C          22.8532  -26.0170  -43.3978 C.2       3 UNK         0.5005 
     28 O          24.0804  -26.0169  -43.5106 O.2       3 UNK        -0.5279 
     29 N          22.2002  -25.9402  -42.2261 N.am      4 UNK        -0.4463 
     30 CA         22.7483  -25.9435  -40.8648 C.3       4 UNK         0.0283 
     31 CB         23.8160  -24.8426  -40.6742 C.3       4 UNK        -0.1875 
     32 C          23.2492  -27.3332  -40.4281 C.2       4 UNK         0.4949 
     33 O          23.2088  -28.2941  -41.2005 O.2       4 UNK        -0.5039 
     34 N          23.7049  -27.4125  -39.1693 N.am      5 UNK        -0.4663 
     35 CA         24.1216  -28.6373  -38.4722 C.3       5 UNK         0.0242 
     36 CB         24.4878  -28.2877  -37.0208 C.3       5 UNK        -0.1982 
     37 C          25.2672  -29.4202  -39.1384 C.2       5 UNK         0.5017 
     38 O          25.4063  -30.6137  -38.8715 O.2       5 UNK        -0.5012 
     39 N          26.0314  -28.7632  -40.0226 N.am      6 UNK        -0.4439 
     40 CA         27.0636  -29.3617  -40.8751 C.3       6 UNK         0.0297 
     41 CB         27.7470  -28.2512  -41.6891 C.3       6 UNK        -0.2006 
     42 C          26.5407  -30.4692  -41.8131 C.2       6 UNK         0.4892 
     43 O          27.3192  -31.3434  -42.1949 O.2       6 UNK        -0.5089 
     44 N          25.2408  -30.4355  -42.1443 N.am      7 UNK        -0.4243 
     45 CA         24.5493  -31.4810  -42.9031 C.3       7 UNK         0.0196 
     46 CB         23.2987  -30.8711  -43.5540 C.3       7 UNK        -0.2007 
     47 C          24.1714  -32.7140  -42.0576 C.2       7 UNK         0.5020 
     48 O          23.7014  -33.6975  -42.6297 O.2       7 UNK        -0.5147 
     49 N          24.3529  -32.6444  -40.7279 N.am      8 UNK        -0.4734 
     50 CA         24.0097  -33.6628  -39.7232 C.3       8 UNK         0.0238 
     51 CB         24.8444  -34.9461  -39.9235 C.3       8 UNK        -0.1912 
     52 C          22.4956  -33.9417  -39.6175 C.2       8 UNK         0.5038 
     53 O          22.0997  -35.0388  -39.2196 O.2       8 UNK        -0.5046 
     54 N          21.6785  -32.9396  -39.9648 N.am      9 UNK        -0.4200 
     55 CA         20.2095  -32.9735  -39.9166 C.3       9 UNK         0.0839 
     56 C          19.5899  -32.8339  -38.4946 C.2       9 UNK         0.5513 
     57 N          20.3620  -32.5427  -37.4542 N.am      9 UNK        -0.7519 
     58 O          18.3851  -33.0092  -38.3317 O.2       9 UNK        -0.4960 
     59 C59        19.5946  -31.9735  -40.9305 C.3       10 UNK        -0.0876 
     60 S60        20.1495  -30.2492  -40.6887 S.3       10 UNK        -0.2414 
     61 C61        18.7558  -29.3251  -41.4140 C.3       10 UNK         0.0169 
     62 H62        15.9961  -25.4216  -49.3199 H         1 UNK         0.0903 
     63 H63        14.3051  -24.9671  -49.1033 H         1 UNK         0.0903 
     64 H64        15.5856  -23.8129  -48.7216 H         1 UNK         0.0903 
     65 H65        16.7192  -26.7633  -47.7076 H         1 UNK         0.3096 
     66 H66        17.1742  -27.7064  -45.7874 H         1 UNK         0.1121 
     67 H67        14.2029  -27.2537  -45.2303 H         1 UNK         0.0849 
     68 H68        15.2120  -28.1697  -44.1512 H         1 UNK         0.0849 
     69 H69        14.9778  -30.8378  -44.3510 H         1 UNK         0.0865 
     70 H70        15.6915  -31.5685  -45.7646 H         1 UNK         0.0865 
     71 H71        16.4389  -30.0694  -42.6453 H         1 UNK         0.1346 
     72 H72        20.5605  -29.2775  -43.4349 H         1 UNK         0.1412 
     73 H73        17.9417  -30.4089  -46.6464 H         1 UNK         0.1426 
     74 H74        20.2793  -30.2408  -47.0740 H         1 UNK         0.0716 
     75 H75        21.4175  -30.2178  -45.7607 H         1 UNK         0.0716 
     76 H76        23.1377  -27.6567  -45.7111 H         1 UNK         0.0695 
     77 H77        22.0974  -28.3030  -44.4925 H         1 UNK         0.0695 
     78 H78        22.3924  -25.4240  -45.3947 H         1 UNK         0.0983 
     79 H79        19.9077  -26.5102  -44.4739 H         1 UNK         0.3095 
     80 H80        18.4024  -24.5051  -43.0741 H         1 UNK         0.0454 
     81 H81        18.3895  -22.6193  -45.4945 H         1 UNK         0.0851 
     82 H82        18.6270  -22.1522  -43.8149 H         1 UNK         0.0851 
     83 H83        17.0743  -22.7852  -44.3328 H         1 UNK         0.0851 
     84 H84        18.2496  -25.3754  -45.9142 H         1 UNK         0.2976 
     85 H85        21.1929  -25.9831  -42.2752 H         1 UNK         0.3116 
     86 H86        21.9062  -25.7029  -40.2141 H         1 UNK         0.0646 
     87 H87        24.7559  -25.0941  -41.1665 H         1 UNK         0.0847 
     88 H88        24.0392  -24.6816  -39.6193 H         1 UNK         0.0847 
     89 H89        23.4756  -23.8876  -41.0745 H         1 UNK         0.0847 
     90 H90        23.7015  -26.5706  -38.6110 H         1 UNK         0.3040 
     91 H91        23.2577  -29.3057  -38.4556 H         1 UNK         0.1015 
     92 H92        25.3258  -27.5912  -36.9727 H         1 UNK         0.0786 
     93 H93        24.7742  -29.1807  -36.4629 H         1 UNK         0.0786 
     94 H94        23.6451  -27.8387  -36.4945 H         1 UNK         0.0786 
     95 H95        25.8243  -27.7873  -40.1774 H         1 UNK         0.3172 
     96 H96        27.8083  -29.8158  -40.2183 H         1 UNK         0.0595 
     97 H97        27.0412  -27.7389  -42.3447 H         1 UNK         0.0839 
     98 H98        28.5387  -28.6597  -42.3190 H         1 UNK         0.0839 
     99 H99        28.2062  -27.5057  -41.0396 H         1 UNK         0.0839 
    100 H100       24.6653  -29.6742  -41.7963 H         1 UNK         0.2998 
    101 H101       25.2087  -31.8305  -43.7004 H         1 UNK         0.0822 
    102 H102       23.5728  -30.0692  -44.2383 H         1 UNK         0.0787 
    103 H103       22.7498  -31.6161  -44.1317 H         1 UNK         0.0787 
    104 H104       22.6136  -30.4654  -42.8088 H         1 UNK         0.0787 
    105 H105       24.7622  -31.7977  -40.3440 H         1 UNK         0.3055 
    106 H106       24.2963  -33.2385  -38.7595 H         1 UNK         0.1106 
    107 H107       24.7101  -35.6346  -39.0883 H         1 UNK         0.0828 
    108 H108       24.5591  -35.4797  -40.8304 H         1 UNK         0.0828 
    109 H109       25.9090  -34.7209  -39.9865 H         1 UNK         0.0828 
    110 H110       22.0845  -32.0680  -40.2714 H         1 UNK         0.2931 
    111 H111       19.9106  -33.9680  -40.2537 H         1 UNK         0.0412 
    112 H112       19.9476  -32.4619  -36.5389 H         1 UNK         0.3472 
    113 H113       21.3507  -32.3973  -37.5761 H         1 UNK         0.3472 
    114 H114       19.8660  -32.2701  -41.9450 H         1 UNK         0.0970 
    115 H115       18.5042  -32.0158  -40.8973 H         1 UNK         0.0970 
    116 H116       17.8580  -29.5299  -40.8289 H         1 UNK         0.0612 
    117 H117       18.9541  -28.2574  -41.3130 H         1 UNK         0.0612 
@<TRIPOS>BOND
     1    1    2 1    
     2    1   62 1    
     3    1   63 1    
     4    1   64 1    
     5    2    3 2    
     6    2    4 am   BACKBONE|DICT|INTERRES
     7    4    5 1    
     8    4   65 1    
     9    5    6 1    
    10    5   25 1    
    11    5   66 1    
    12    6    7 1    
    13    6   67 1    
    14    6   68 1    
    15    7    8 1    
    16    8    9 1    
    17    8   69 1    
    18    8   70 1    
    19    9   10 ar   
    20    9   14 ar   
    21   10   11 ar   
    22   10   71 1    
    23   11   12 ar   
    24   11   61 1    
    25   12   13 ar   
    26   12   72 1    
    27   13   14 ar   
    28   13   15 1    
    29   14   73 1    
    30   15   16 1    
    31   15   74 1    
    32   15   75 1    
    33   16   17 1    
    34   17   18 1    
    35   17   76 1    
    36   17   77 1    
    37   18   19 1    
    38   18   27 1    
    39   18   78 1    
    40   19   20 am   BACKBONE|DICT|INTERRES
    41   19   79 1    
    42   20   21 2    
    43   20   22 1    
    44   22   23 1    
    45   22   24 1    
    46   22   80 1    
    47   23   81 1    
    48   23   82 1    
    49   23   83 1    
    50   24   25 am   BACKBONE|DICT|INTERRES
    51   24   84 1    
    52   25   26 2    
    53   27   28 2    
    54   27   29 am   BACKBONE|DICT|INTERRES
    55   29   30 1    
    56   29   85 1    
    57   30   31 1    
    58   30   32 1    
    59   30   86 1    
    60   31   87 1    
    61   31   88 1    
    62   31   89 1    
    63   32   33 2    
    64   32   34 am   BACKBONE|DICT|INTERRES
    65   34   35 1    
    66   34   90 1    
    67   35   36 1    
    68   35   37 1    
    69   35   91 1    
    70   36   92 1    
    71   36   93 1    
    72   36   94 1    
    73   37   38 2    
    74   37   39 am   BACKBONE|DICT|INTERRES
    75   39   40 1    
    76   39   95 1    
    77   40   41 1    
    78   40   42 1    
    79   40   96 1    
    80   41   97 1    
    81   41   98 1    
    82   41   99 1    
    83   42   43 2    
    84   42   44 am   BACKBONE|DICT|INTERRES
    85   44   45 1    
    86   44  100 1    
    87   45   46 1    
    88   45   47 1    
    89   45  101 1    
    90   46  102 1    
    91   46  103 1    
    92   46  104 1    
    93   47   48 2    
    94   47   49 am   BACKBONE|DICT|INTERRES
    95   49   50 1    
    96   49  105 1    
    97   50   51 1    
    98   50   52 1    
    99   50  106 1    
   100   51  107 1    
   101   51  108 1    
   102   51  109 1    
   103   52   53 2    
   104   52   54 am   BACKBONE|DICT|INTERRES
   105   54   55 1    
   106   54  110 1    
   107   55   56 1    
   108   55   59 1    
   109   55  111 1    
   110   56   57 am   BACKBONE|DICT|INTERRES
   111   56   58 2    
   112   57  112 1    
   113   57  113 1    
   114   59   60 1    
   115   59  114 1    
   116   59  115 1    
   117   60   61 1    
   118   61  116 1    
   119   61  117 1    
@<TRIPOS>SUBSTRUCTURE
     1 UNK         1 GROUP             0       ****    0 ROOT    
