@<TRIPOS>MOLECULE
3R8
117   119    1
SMALL
USER_CHARGES


@<TRIPOS>ATOM
      1 CA         16.7671  -23.6683  -48.0516 C.3       0 UNK        -0.2013 
      2 C          17.1985  -24.8112  -47.1444 C.2       0 UNK         0.4866 
      3 O          18.3436  -24.8334  -46.6940 O.2       0 UNK        -0.5176 
      4 N          16.2922  -25.7611  -46.8831 N.am      1 UNK        -0.4884 
      5 CA         16.5070  -26.9084  -45.9928 C.3       1 UNK         0.0853 
      6 C6         15.5586  -28.0829  -46.3511 C.3       10 UNK        -0.0849 
      7 S7         16.1754  -28.9663  -47.8195 S.3       10 UNK        -0.2776 
      8 C8         16.8436  -30.4954  -47.0750 C.3       10 UNK         0.0316 
      9 C9         17.9066  -30.2541  -46.0034 C.ar      10 UNK        -0.0863 
     10 C10        17.7857  -30.8657  -44.7499 C.ar      10 UNK        -0.1009 
     11 C11        18.7859  -30.7174  -43.7837 C.ar      10 UNK        -0.0712 
     12 C12        19.9090  -29.9379  -44.0779 C.ar      10 UNK        -0.0894 
     13 C13        20.0283  -29.2887  -45.3086 C.ar      10 UNK        -0.0745 
     14 C14        19.0324  -29.4674  -46.2742 C.ar      10 UNK        -0.0972 
     15 C15        21.2501  -28.4309  -45.6131 C.3       10 UNK         0.0209 
     16 S16        21.1052  -26.7390  -44.9502 S.3       10 UNK        -0.2568 
     17 C17        21.6258  -26.9310  -43.2066 C.3       10 UNK        -0.0983 
     18 CA         20.5884  -26.3575  -42.2068 C.3       3 UNK         0.0876 
     19 N          19.2646  -26.9545  -42.3984 N.am      3 UNK        -0.4424 
     20 C          18.1239  -26.5301  -41.8396 C.2       2 UNK         0.4918 
     21 O          18.0298  -25.5263  -41.1302 O.2       2 UNK        -0.4875 
     22 CA         16.8804  -27.3693  -42.1811 C.3       2 UNK         0.0481 
     23 CB         15.5891  -26.8806  -41.4898 C.3       2 UNK        -0.1831 
     24 N          16.7237  -27.4906  -43.6344 N.am      2 UNK        -0.4498 
     25 C          16.4083  -26.5174  -44.5041 C.2       1 UNK         0.5027 
     26 O          16.0602  -25.3794  -44.1779 O.2       1 UNK        -0.4969 
     27 C          21.0719  -26.5263  -40.7488 C.2       3 UNK         0.5005 
     28 O          20.6281  -27.4421  -40.0540 O.2       3 UNK        -0.5279 
     29 N          21.9676  -25.6354  -40.3018 N.am      4 UNK        -0.4463 
     30 CA         22.4872  -25.6270  -38.9306 C.3       4 UNK         0.0283 
     31 CB         23.1889  -24.2877  -38.6497 C.3       4 UNK        -0.1875 
     32 C          23.4288  -26.8053  -38.6289 C.2       4 UNK         0.4949 
     33 O          23.3014  -27.4292  -37.5743 O.2       4 UNK        -0.5039 
     34 N          24.3574  -27.0807  -39.5503 N.am      5 UNK        -0.4663 
     35 CA         25.3987  -28.0988  -39.4305 C.3       5 UNK         0.0242 
     36 CB         26.4993  -27.6095  -38.4640 C.3       5 UNK        -0.1982 
     37 C          25.9711  -28.4036  -40.8223 C.2       5 UNK         0.5017 
     38 O          25.5873  -27.7495  -41.7965 O.2       5 UNK        -0.5012 
     39 N          26.8965  -29.3752  -40.8746 N.am      6 UNK        -0.4439 
     40 CA         27.6119  -29.8618  -42.0647 C.3       6 UNK         0.0297 
     41 CB         28.5276  -28.7641  -42.6490 C.3       6 UNK        -0.2006 
     42 C          26.6700  -30.4851  -43.1141 C.2       6 UNK         0.4892 
     43 O          26.8480  -30.2762  -44.3157 O.2       6 UNK        -0.5089 
     44 N          25.6812  -31.2408  -42.6274 N.am      7 UNK        -0.4243 
     45 CA         24.6313  -31.9013  -43.3938 C.3       7 UNK         0.0196 
     46 CB         23.5860  -30.8588  -43.8439 C.3       7 UNK        -0.2007 
     47 C          24.0180  -33.0026  -42.5163 C.2       7 UNK         0.5020 
     48 O          24.5729  -33.3340  -41.4654 O.2       7 UNK        -0.5147 
     49 N          22.8617  -33.5307  -42.9377 N.am      8 UNK        -0.4734 
     50 CA         22.0603  -34.5114  -42.1920 C.3       8 UNK         0.0238 
     51 CB         21.0022  -35.1058  -43.1378 C.3       8 UNK        -0.1912 
     52 C          21.3950  -33.9511  -40.9156 C.2       8 UNK         0.5038 
     53 O          20.8347  -34.7283  -40.1416 O.2       8 UNK        -0.5046 
     54 N          21.4574  -32.6305  -40.7222 N.am      9 UNK        -0.4200 
     55 CA         20.9541  -31.8905  -39.5650 C.3       9 UNK         0.0839 
     56 C          21.8668  -30.6668  -39.2703 C.2       9 UNK         0.5513 
     57 N          21.7195  -30.0469  -38.1073 N.am      9 UNK        -0.7519 
     58 O          22.7161  -30.2881  -40.0766 O.2       9 UNK        -0.4960 
     59 C59        19.4420  -31.5496  -39.7073 C.3       10 UNK        -0.0876 
     60 S60        19.0522  -30.3573  -41.0356 S.3       10 UNK        -0.2414 
     61 C61        18.6829  -31.4466  -42.4480 C.3       10 UNK         0.0169 
     62 H62        15.7379  -23.7823  -48.3915 H         1 UNK         0.0903 
     63 H63        16.8459  -22.7194  -47.5215 H         1 UNK         0.0903 
     64 H64        17.4108  -23.6228  -48.9297 H         1 UNK         0.0903 
     65 H65        15.3623  -25.6754  -47.2673 H         1 UNK         0.3096 
     66 H66        17.5395  -27.2348  -46.1280 H         1 UNK         0.1121 
     67 H67        15.4531  -28.8041  -45.5390 H         1 UNK         0.0849 
     68 H68        14.5479  -27.7215  -46.5486 H         1 UNK         0.0849 
     69 H69        16.0119  -31.0750  -46.6711 H         1 UNK         0.0865 
     70 H70        17.2805  -31.1061  -47.8662 H         1 UNK         0.0865 
     71 H71        16.9266  -31.4876  -44.5364 H         1 UNK         0.1346 
     72 H72        20.6935  -29.8445  -43.3416 H         1 UNK         0.1412 
     73 H73        19.1326  -28.9947  -47.2422 H         1 UNK         0.1426 
     74 H74        21.3919  -28.3628  -46.6928 H         1 UNK         0.0716 
     75 H75        22.1530  -28.8998  -45.2261 H         1 UNK         0.0716 
     76 H76        22.5807  -26.4138  -43.0964 H         1 UNK         0.0695 
     77 H77        21.8359  -27.9780  -42.9882 H         1 UNK         0.0695 
     78 H78        20.4841  -25.2871  -42.3975 H         1 UNK         0.0983 
     79 H79        19.2441  -27.7917  -42.9604 H         1 UNK         0.3095 
     80 H80        17.0720  -28.3773  -41.8145 H         1 UNK         0.0454 
     81 H81        15.6898  -26.9385  -40.4055 H         1 UNK         0.0851 
     82 H82        15.3552  -25.8441  -41.7327 H         1 UNK         0.0851 
     83 H83        14.7324  -27.4935  -41.7690 H         1 UNK         0.0851 
     84 H84        16.9929  -28.3883  -44.0146 H         1 UNK         0.2976 
     85 H85        22.2954  -24.9078  -40.9214 H         1 UNK         0.3116 
     86 H86        21.6370  -25.7047  -38.2488 H         1 UNK         0.0646 
     87 H87        23.5698  -24.2555  -37.6278 H         1 UNK         0.0847 
     88 H88        22.5032  -23.4479  -38.7633 H         1 UNK         0.0847 
     89 H89        24.0362  -24.1235  -39.3166 H         1 UNK         0.0847 
     90 H90        24.3591  -26.5873  -40.4345 H         1 UNK         0.3040 
     91 H91        24.9492  -29.0169  -39.0454 H         1 UNK         0.1015 
     92 H92        26.0976  -27.3973  -37.4732 H         1 UNK         0.0786 
     93 H93        26.9771  -26.7000  -38.8304 H         1 UNK         0.0786 
     94 H94        27.2806  -28.3583  -38.3313 H         1 UNK         0.0786 
     95 H95        27.1323  -29.8449  -40.0110 H         1 UNK         0.3172 
     96 H96        28.2561  -30.6726  -41.7214 H         1 UNK         0.0595 
     97 H97        29.1922  -28.3542  -41.8886 H         1 UNK         0.0839 
     98 H98        27.9538  -27.9397  -43.0734 H         1 UNK         0.0839 
     99 H99        29.1562  -29.1638  -43.4457 H         1 UNK         0.0839 
    100 H100       25.6394  -31.4243  -41.6325 H         1 UNK         0.2998 
    101 H101       25.0758  -32.3798  -44.2688 H         1 UNK         0.0822 
    102 H102       24.0527  -30.0619  -44.4229 H         1 UNK         0.0787 
    103 H103       22.8179  -31.2997  -44.4797 H         1 UNK         0.0787 
    104 H104       23.0908  -30.3956  -42.9893 H         1 UNK         0.0787 
    105 H105       22.4758  -33.2099  -43.8145 H         1 UNK         0.3055 
    106 H106       22.7245  -35.3170  -41.8707 H         1 UNK         0.1106 
    107 H107       20.3172  -34.3438  -43.5109 H         1 UNK         0.0828 
    108 H108       21.4656  -35.5909  -43.9970 H         1 UNK         0.0828 
    109 H109       20.4017  -35.8619  -42.6297 H         1 UNK         0.0828 
    110 H110       21.9889  -32.0663  -41.3697 H         1 UNK         0.2931 
    111 H111       21.0641  -32.5443  -38.6974 H         1 UNK         0.0412 
    112 H112       22.2867  -29.2295  -37.9170 H         1 UNK         0.3472 
    113 H113       21.0283  -30.3439  -37.4376 H         1 UNK         0.3472 
    114 H114       19.0707  -31.1316  -38.7706 H         1 UNK         0.0970 
    115 H115       18.8653  -32.4626  -39.8633 H         1 UNK         0.0970 
    116 H116       17.6875  -31.8711  -42.3091 H         1 UNK         0.0612 
    117 H117       19.3798  -32.2829  -42.4636 H         1 UNK         0.0612 
@<TRIPOS>BOND
     1    1    2 1    
     2    1   62 1    
     3    1   63 1    
     4    1   64 1    
     5    2    3 2    
     6    2    4 am   BACKBONE|DICT|INTERRES
     7    4    5 1    
     8    4   65 1    
     9    5    6 1    
    10    5   25 1    
    11    5   66 1    
    12    6    7 1    
    13    6   67 1    
    14    6   68 1    
    15    7    8 1    
    16    8    9 1    
    17    8   69 1    
    18    8   70 1    
    19    9   10 ar   
    20    9   14 ar   
    21   10   11 ar   
    22   10   71 1    
    23   11   12 ar   
    24   11   61 1    
    25   12   13 ar   
    26   12   72 1    
    27   13   14 ar   
    28   13   15 1    
    29   14   73 1    
    30   15   16 1    
    31   15   74 1    
    32   15   75 1    
    33   16   17 1    
    34   17   18 1    
    35   17   76 1    
    36   17   77 1    
    37   18   19 1    
    38   18   27 1    
    39   18   78 1    
    40   19   20 am   BACKBONE|DICT|INTERRES
    41   19   79 1    
    42   20   21 2    
    43   20   22 1    
    44   22   23 1    
    45   22   24 1    
    46   22   80 1    
    47   23   81 1    
    48   23   82 1    
    49   23   83 1    
    50   24   25 am   BACKBONE|DICT|INTERRES
    51   24   84 1    
    52   25   26 2    
    53   27   28 2    
    54   27   29 am   BACKBONE|DICT|INTERRES
    55   29   30 1    
    56   29   85 1    
    57   30   31 1    
    58   30   32 1    
    59   30   86 1    
    60   31   87 1    
    61   31   88 1    
    62   31   89 1    
    63   32   33 2    
    64   32   34 am   BACKBONE|DICT|INTERRES
    65   34   35 1    
    66   34   90 1    
    67   35   36 1    
    68   35   37 1    
    69   35   91 1    
    70   36   92 1    
    71   36   93 1    
    72   36   94 1    
    73   37   38 2    
    74   37   39 am   BACKBONE|DICT|INTERRES
    75   39   40 1    
    76   39   95 1    
    77   40   41 1    
    78   40   42 1    
    79   40   96 1    
    80   41   97 1    
    81   41   98 1    
    82   41   99 1    
    83   42   43 2    
    84   42   44 am   BACKBONE|DICT|INTERRES
    85   44   45 1    
    86   44  100 1    
    87   45   46 1    
    88   45   47 1    
    89   45  101 1    
    90   46  102 1    
    91   46  103 1    
    92   46  104 1    
    93   47   48 2    
    94   47   49 am   BACKBONE|DICT|INTERRES
    95   49   50 1    
    96   49  105 1    
    97   50   51 1    
    98   50   52 1    
    99   50  106 1    
   100   51  107 1    
   101   51  108 1    
   102   51  109 1    
   103   52   53 2    
   104   52   54 am   BACKBONE|DICT|INTERRES
   105   54   55 1    
   106   54  110 1    
   107   55   56 1    
   108   55   59 1    
   109   55  111 1    
   110   56   57 am   BACKBONE|DICT|INTERRES
   111   56   58 2    
   112   57  112 1    
   113   57  113 1    
   114   59   60 1    
   115   59  114 1    
   116   59  115 1    
   117   60   61 1    
   118   61  116 1    
   119   61  117 1    
@<TRIPOS>SUBSTRUCTURE
     1 UNK         1 GROUP             0       ****    0 ROOT    
