@<TRIPOS>MOLECULE
3R8
117   119    1
SMALL
USER_CHARGES


@<TRIPOS>ATOM
      1 CA         23.0215  -24.9614  -42.9665 C.3       0 UNK        -0.2013 
      2 C          22.4239  -25.2965  -44.3236 C.2       0 UNK         0.4866 
      3 O          22.8210  -24.7033  -45.3261 O.2       0 UNK        -0.5176 
      4 N          21.4598  -26.2273  -44.3538 N.am      1 UNK        -0.4884 
      5 CA         20.7444  -26.7084  -45.5480 C.3       1 UNK         0.0853 
      6 C6         21.6428  -27.4410  -46.5837 C.3       10 UNK        -0.0849 
      7 S7         22.5698  -28.8474  -45.8838 S.3       10 UNK        -0.2776 
      8 C8         21.3958  -30.2198  -46.1316 C.3       10 UNK         0.0316 
      9 C9         20.3435  -30.2571  -45.0329 C.ar      10 UNK        -0.0863 
     10 C10        20.7106  -30.6701  -43.7508 C.ar      10 UNK        -0.1009 
     11 C11        19.7703  -30.7201  -42.7219 C.ar      10 UNK        -0.0712 
     12 C12        18.4475  -30.3528  -42.9822 C.ar      10 UNK        -0.0894 
     13 C13        18.0610  -29.9336  -44.2615 C.ar      10 UNK        -0.0745 
     14 C14        19.0147  -29.8959  -45.2865 C.ar      10 UNK        -0.0972 
     15 C15        16.6064  -29.5717  -44.5458 C.3       10 UNK         0.0209 
     16 S16        15.9517  -28.3387  -43.3696 S.3       10 UNK        -0.2568 
     17 C17        15.5611  -26.9080  -44.4364 C.3       10 UNK        -0.0983 
     18 CA         16.7266  -25.8992  -44.5952 C.3       3 UNK         0.0876 
     19 N          16.3998  -24.9102  -45.6285 N.am      3 UNK        -0.4424 
     20 C          17.0793  -23.8745  -46.1582 C.2       2 UNK         0.4918 
     21 O          16.5157  -23.1384  -46.9663 O.2       2 UNK        -0.4875 
     22 CA         18.5584  -23.5367  -45.8362 C.3       2 UNK         0.0481 
     23 CB         18.6597  -22.3786  -44.8297 C.3       2 UNK        -0.1831 
     24 N          19.4239  -24.6372  -45.4159 N.am      2 UNK        -0.4498 
     25 C          19.8525  -25.6294  -46.2078 C.2       1 UNK         0.5027 
     26 O          19.5397  -25.7270  -47.3954 O.2       1 UNK        -0.4969 
     27 C          17.0986  -25.2402  -43.2506 C.2       3 UNK         0.5005 
     28 O          16.4375  -24.2938  -42.8180 O.2       3 UNK        -0.5279 
     29 N          18.1529  -25.7738  -42.6288 N.am      4 UNK        -0.4463 
     30 CA         18.7256  -25.3989  -41.3433 C.3       4 UNK         0.0283 
     31 CB         19.4369  -24.0350  -41.4262 C.3       4 UNK        -0.1875 
     32 C          19.7118  -26.5109  -40.9719 C.2       4 UNK         0.4949 
     33 O          20.1974  -27.2051  -41.8718 O.2       4 UNK        -0.5039 
     34 N          19.9865  -26.6533  -39.6692 N.am      5 UNK        -0.4663 
     35 CA         20.8668  -27.6774  -39.0986 C.3       5 UNK         0.0242 
     36 CB         20.8878  -27.5344  -37.5681 C.3       5 UNK        -0.1982 
     37 C          22.2960  -27.6255  -39.6659 C.2       5 UNK         0.5017 
     38 O          22.8709  -26.5408  -39.7803 O.2       5 UNK        -0.5012 
     39 N          22.8363  -28.8014  -39.9914 N.am      6 UNK        -0.4439 
     40 CA         24.1448  -29.0110  -40.5962 C.3       6 UNK         0.0297 
     41 CB         24.0528  -28.8012  -42.1200 C.3       6 UNK        -0.2006 
     42 C          24.5980  -30.4353  -40.2597 C.2       6 UNK         0.4892 
     43 O          23.7718  -31.2598  -39.8543 O.2       6 UNK        -0.5089 
     44 N          25.8950  -30.7036  -40.4652 N.am      7 UNK        -0.4243 
     45 CA         26.5734  -31.9705  -40.1578 C.3       7 UNK         0.0196 
     46 CB         28.0646  -31.8418  -40.5081 C.3       7 UNK        -0.2007 
     47 C          25.9723  -33.2170  -40.8331 C.2       7 UNK         0.5020 
     48 O          26.1131  -34.3154  -40.2955 O.2       7 UNK        -0.5147 
     49 N          25.2769  -33.0307  -41.9642 N.am      8 UNK        -0.4734 
     50 CA         24.5168  -34.0699  -42.6676 C.3       8 UNK         0.0238 
     51 CB         23.9772  -33.4944  -43.9872 C.3       8 UNK        -0.1912 
     52 C          23.3703  -34.6814  -41.8364 C.2       8 UNK         0.5038 
     53 O          23.0001  -35.8279  -42.0930 O.2       8 UNK        -0.5046 
     54 N          22.8516  -33.9275  -40.8572 N.am      9 UNK        -0.4200 
     55 CA         21.8639  -34.3908  -39.8700 C.3       9 UNK         0.0839 
     56 C          22.5102  -34.9128  -38.5527 C.2       9 UNK         0.5513 
     57 N          23.8306  -34.9952  -38.4312 N.am      9 UNK        -0.7519 
     58 O          21.7961  -35.2718  -37.6198 O.2       9 UNK        -0.4960 
     59 C59        20.7777  -33.3162  -39.5954 C.3       10 UNK        -0.0876 
     60 S60        19.8054  -32.9360  -41.0924 S.3       10 UNK        -0.2414 
     61 C61        20.1907  -31.1783  -41.3364 C.3       10 UNK         0.0169 
     62 H62        24.0668  -25.2664  -42.9293 H         1 UNK         0.0903 
     63 H63        22.9719  -23.8880  -42.7863 H         1 UNK         0.0903 
     64 H64        22.4920  -25.4628  -42.1577 H         1 UNK         0.0903 
     65 H65        21.1873  -26.6815  -43.4843 H         1 UNK         0.3096 
     66 H66        20.0366  -27.4396  -45.1638 H         1 UNK         0.1121 
     67 H67        21.0498  -27.8103  -47.4223 H         1 UNK         0.0849 
     68 H68        22.3627  -26.7456  -47.0180 H         1 UNK         0.0849 
     69 H69        20.9361  -30.1538  -47.1188 H         1 UNK         0.0865 
     70 H70        21.9510  -31.1591  -46.1217 H         1 UNK         0.0865 
     71 H71        21.7345  -30.9520  -43.5542 H         1 UNK         0.1346 
     72 H72        17.7156  -30.4009  -42.1876 H         1 UNK         0.1412 
     73 H73        18.7244  -29.5874  -46.2817 H         1 UNK         0.1426 
     74 H74        16.0028  -30.4771  -44.4704 H         1 UNK         0.0716 
     75 H75        16.4914  -29.2151  -45.5702 H         1 UNK         0.0716 
     76 H76        14.6839  -26.4091  -44.0191 H         1 UNK         0.0695 
     77 H77        15.2465  -27.2806  -45.4126 H         1 UNK         0.0695 
     78 H78        17.5739  -26.4778  -44.9570 H         1 UNK         0.0983 
     79 H79        15.4448  -24.9855  -45.9439 H         1 UNK         0.3095 
     80 H80        18.9838  -23.1620  -46.7699 H         1 UNK         0.0454 
     81 H81        18.2709  -22.6467  -43.8498 H         1 UNK         0.0851 
     82 H82        18.0892  -21.5147  -45.1736 H         1 UNK         0.0851 
     83 H83        19.6914  -22.0500  -44.7036 H         1 UNK         0.0851 
     84 H84        19.7499  -24.6227  -44.4611 H         1 UNK         0.2976 
     85 H85        18.5859  -26.6121  -43.0008 H         1 UNK         0.3116 
     86 H86        17.9302  -25.3631  -40.5961 H         1 UNK         0.0646 
     87 H87        20.1766  -24.0091  -42.2260 H         1 UNK         0.0847 
     88 H88        19.9579  -23.8071  -40.4955 H         1 UNK         0.0847 
     89 H89        18.7264  -23.2265  -41.5951 H         1 UNK         0.0847 
     90 H90        19.5645  -26.0114  -39.0138 H         1 UNK         0.3040 
     91 H91        20.4292  -28.6462  -39.3460 H         1 UNK         0.1015 
     92 H92        19.8893  -27.6417  -37.1437 H         1 UNK         0.0786 
     93 H93        21.2828  -26.5653  -37.2601 H         1 UNK         0.0786 
     94 H94        21.5156  -28.3014  -37.1122 H         1 UNK         0.0786 
     95 H95        22.3538  -29.6646  -39.7748 H         1 UNK         0.3172 
     96 H96        24.8611  -28.3083  -40.1653 H         1 UNK         0.0595 
     97 H97        23.3593  -29.5035  -42.5825 H         1 UNK         0.0839 
     98 H98        25.0224  -28.9334  -42.6009 H         1 UNK         0.0839 
     99 H99        23.7096  -27.7963  -42.3632 H         1 UNK         0.0839 
    100 H100       26.4837  -29.9616  -40.8164 H         1 UNK         0.2998 
    101 H101       26.4881  -32.1251  -39.0801 H         1 UNK         0.0822 
    102 H102       28.6040  -32.7588  -40.2657 H         1 UNK         0.0787 
    103 H103       28.2140  -31.6475  -41.5711 H         1 UNK         0.0787 
    104 H104       28.5373  -31.0347  -39.9480 H         1 UNK         0.0787 
    105 H105       25.2184  -32.0932  -42.3336 H         1 UNK         0.3055 
    106 H106       25.2083  -34.8821  -42.9031 H         1 UNK         0.1106 
    107 H107       23.2980  -32.6601  -43.8149 H         1 UNK         0.0828 
    108 H108       24.7853  -33.1443  -44.6297 H         1 UNK         0.0828 
    109 H109       23.4261  -34.2515  -44.5470 H         1 UNK         0.0828 
    110 H110       23.2401  -33.0061  -40.6846 H         1 UNK         0.2931 
    111 H111       21.3435  -35.2577  -40.2813 H         1 UNK         0.0412 
    112 H112       24.4493  -34.7354  -39.1902 H         1 UNK         0.3472 
    113 H113       24.2199  -35.3441  -37.5696 H         1 UNK         0.3472 
    114 H114       20.0734  -33.6644  -38.8377 H         1 UNK         0.0970 
    115 H115       21.2303  -32.4091  -39.1910 H         1 UNK         0.0970 
    116 H116       21.2612  -31.0185  -41.2012 H         1 UNK         0.0612 
    117 H117       19.6820  -30.5866  -40.5747 H         1 UNK         0.0612 
@<TRIPOS>BOND
     1    1    2 1    
     2    1   62 1    
     3    1   63 1    
     4    1   64 1    
     5    2    3 2    
     6    2    4 am   BACKBONE|DICT|INTERRES
     7    4    5 1    
     8    4   65 1    
     9    5    6 1    
    10    5   25 1    
    11    5   66 1    
    12    6    7 1    
    13    6   67 1    
    14    6   68 1    
    15    7    8 1    
    16    8    9 1    
    17    8   69 1    
    18    8   70 1    
    19    9   10 ar   
    20    9   14 ar   
    21   10   11 ar   
    22   10   71 1    
    23   11   12 ar   
    24   11   61 1    
    25   12   13 ar   
    26   12   72 1    
    27   13   14 ar   
    28   13   15 1    
    29   14   73 1    
    30   15   16 1    
    31   15   74 1    
    32   15   75 1    
    33   16   17 1    
    34   17   18 1    
    35   17   76 1    
    36   17   77 1    
    37   18   19 1    
    38   18   27 1    
    39   18   78 1    
    40   19   20 am   BACKBONE|DICT|INTERRES
    41   19   79 1    
    42   20   21 2    
    43   20   22 1    
    44   22   23 1    
    45   22   24 1    
    46   22   80 1    
    47   23   81 1    
    48   23   82 1    
    49   23   83 1    
    50   24   25 am   BACKBONE|DICT|INTERRES
    51   24   84 1    
    52   25   26 2    
    53   27   28 2    
    54   27   29 am   BACKBONE|DICT|INTERRES
    55   29   30 1    
    56   29   85 1    
    57   30   31 1    
    58   30   32 1    
    59   30   86 1    
    60   31   87 1    
    61   31   88 1    
    62   31   89 1    
    63   32   33 2    
    64   32   34 am   BACKBONE|DICT|INTERRES
    65   34   35 1    
    66   34   90 1    
    67   35   36 1    
    68   35   37 1    
    69   35   91 1    
    70   36   92 1    
    71   36   93 1    
    72   36   94 1    
    73   37   38 2    
    74   37   39 am   BACKBONE|DICT|INTERRES
    75   39   40 1    
    76   39   95 1    
    77   40   41 1    
    78   40   42 1    
    79   40   96 1    
    80   41   97 1    
    81   41   98 1    
    82   41   99 1    
    83   42   43 2    
    84   42   44 am   BACKBONE|DICT|INTERRES
    85   44   45 1    
    86   44  100 1    
    87   45   46 1    
    88   45   47 1    
    89   45  101 1    
    90   46  102 1    
    91   46  103 1    
    92   46  104 1    
    93   47   48 2    
    94   47   49 am   BACKBONE|DICT|INTERRES
    95   49   50 1    
    96   49  105 1    
    97   50   51 1    
    98   50   52 1    
    99   50  106 1    
   100   51  107 1    
   101   51  108 1    
   102   51  109 1    
   103   52   53 2    
   104   52   54 am   BACKBONE|DICT|INTERRES
   105   54   55 1    
   106   54  110 1    
   107   55   56 1    
   108   55   59 1    
   109   55  111 1    
   110   56   57 am   BACKBONE|DICT|INTERRES
   111   56   58 2    
   112   57  112 1    
   113   57  113 1    
   114   59   60 1    
   115   59  114 1    
   116   59  115 1    
   117   60   61 1    
   118   61  116 1    
   119   61  117 1    
@<TRIPOS>SUBSTRUCTURE
     1 UNK         1 GROUP             0       ****    0 ROOT    
