@<TRIPOS>MOLECULE
3R8
117   119    1
SMALL
USER_CHARGES


@<TRIPOS>ATOM
      1 CA         14.5952  -23.2887  -43.0670 C.3       0 UNK        -0.2013 
      2 C          15.7657  -24.2053  -43.3907 C.2       0 UNK         0.4866 
      3 O          16.5059  -23.9412  -44.3389 O.2       0 UNK        -0.5176 
      4 N          15.9331  -25.2848  -42.6167 N.am      1 UNK        -0.4884 
      5 CA         17.0292  -26.2498  -42.7509 C.3       1 UNK         0.0853 
      6 C6         16.7681  -27.5311  -41.9237 C.3       10 UNK        -0.0849 
      7 S7         15.3938  -28.5030  -42.6229 S.3       10 UNK        -0.2776 
      8 C8         16.0970  -30.1880  -42.6528 C.3       10 UNK         0.0316 
      9 C9         17.3680  -30.3271  -43.4894 C.ar      10 UNK        -0.0863 
     10 C10        18.4568  -31.0400  -42.9752 C.ar      10 UNK        -0.1009 
     11 C11        19.6085  -31.2354  -43.7438 C.ar      10 UNK        -0.0712 
     12 C12        19.6732  -30.6974  -45.0296 C.ar      10 UNK        -0.0894 
     13 C13        18.6168  -29.9386  -45.5384 C.ar      10 UNK        -0.0745 
     14 C14        17.4576  -29.7745  -44.7730 C.ar      10 UNK        -0.0972 
     15 C15        18.7342  -29.2926  -46.9113 C.3       10 UNK         0.0209 
     16 S16        19.4748  -27.6293  -46.8119 S.3       10 UNK        -0.2568 
     17 C17        21.2434  -28.0251  -46.5723 C.3       10 UNK        -0.0983 
     18 CA         22.1182  -26.7734  -46.2869 C.3       3 UNK         0.0876 
     19 N          21.6219  -26.0018  -45.1373 N.am      3 UNK        -0.4424 
     20 C          21.6378  -26.3767  -43.8492 C.2       2 UNK         0.4918 
     21 O          22.2104  -27.3750  -43.4113 O.2       2 UNK        -0.4875 
     22 CA         20.7998  -25.5241  -42.8977 C.3       2 UNK         0.0481 
     23 CB         21.0291  -24.0088  -43.0774 C.3       2 UNK        -0.1831 
     24 N          19.4111  -25.8971  -43.1341 N.am      2 UNK        -0.4498 
     25 C          18.3731  -25.6187  -42.3412 C.2       1 UNK         0.5027 
     26 O          18.4467  -24.9439  -41.3112 O.2       1 UNK        -0.4969 
     27 C          23.6208  -27.1237  -46.1684 C.2       3 UNK         0.5005 
     28 O          24.0206  -28.2422  -46.4962 O.2       3 UNK        -0.5279 
     29 N          24.4191  -26.1823  -45.6379 N.am      4 UNK        -0.4463 
     30 CA         25.8553  -26.2628  -45.3099 C.3       4 UNK         0.0283 
     31 CB         26.7071  -26.5587  -46.5601 C.3       4 UNK        -0.1875 
     32 C          26.2122  -27.2275  -44.1584 C.2       4 UNK         0.4949 
     33 O          27.1953  -26.9850  -43.4591 O.2       4 UNK        -0.5039 
     34 N          25.4061  -28.2757  -43.9537 N.am      5 UNK        -0.4663 
     35 CA         25.5171  -29.2589  -42.8724 C.3       5 UNK         0.0242 
     36 CB         24.6561  -30.4788  -43.2403 C.3       5 UNK        -0.1982 
     37 C          25.0941  -28.7195  -41.4936 C.2       5 UNK         0.5017 
     38 O          25.3441  -29.3887  -40.4922 O.2       5 UNK        -0.5012 
     39 N          24.4275  -27.5561  -41.4702 N.am      6 UNK        -0.4439 
     40 CA         23.8072  -26.9016  -40.3121 C.3       6 UNK         0.0297 
     41 CB         24.8631  -26.4929  -39.2628 C.3       6 UNK        -0.2006 
     42 C          22.6551  -27.7407  -39.7257 C.2       6 UNK         0.4892 
     43 O          22.5264  -27.8482  -38.5054 O.2       6 UNK        -0.5089 
     44 N          21.8477  -28.3247  -40.6259 N.am      7 UNK        -0.4243 
     45 CA         20.6721  -29.1660  -40.3653 C.3       7 UNK         0.0196 
     46 CB         19.5768  -28.3704  -39.6249 C.3       7 UNK        -0.2007 
     47 C          20.9816  -30.5089  -39.6697 C.2       7 UNK         0.5020 
     48 O          20.0604  -31.1518  -39.1635 O.2       7 UNK        -0.5147 
     49 N          22.2468  -30.9525  -39.6912 N.am      8 UNK        -0.4734 
     50 CA         22.7312  -32.1938  -39.0730 C.3       8 UNK         0.0238 
     51 CB         24.2460  -32.0629  -38.8281 C.3       8 UNK        -0.1912 
     52 C          22.3711  -33.4671  -39.8723 C.2       8 UNK         0.5038 
     53 O          23.2550  -34.2695  -40.1789 O.2       8 UNK        -0.5046 
     54 N          21.0819  -33.6279  -40.1882 N.am      9 UNK        -0.4200 
     55 CA         20.4935  -34.7942  -40.8704 C.3       9 UNK         0.0839 
     56 C          19.6411  -35.6814  -39.9166 C.2       9 UNK         0.5513 
     57 N          19.5244  -35.3669  -38.6312 N.am      9 UNK        -0.7519 
     58 O          19.0872  -36.6904  -40.3458 O.2       9 UNK        -0.4960 
     59 C59        19.6858  -34.3727  -42.1301 C.3       10 UNK        -0.0876 
     60 S60        20.7501  -33.7693  -43.4857 S.3       10 UNK        -0.2414 
     61 C61        20.8102  -31.9784  -43.1813 C.3       10 UNK         0.0169 
     62 H62        14.9566  -22.2879  -42.8324 H         1 UNK         0.0903 
     63 H63        13.9261  -23.2175  -43.9241 H         1 UNK         0.0903 
     64 H64        14.0179  -23.6489  -42.2156 H         1 UNK         0.0903 
     65 H65        15.2996  -25.4499  -41.8476 H         1 UNK         0.3096 
     66 H66        17.0945  -26.5290  -43.8059 H         1 UNK         0.1121 
     67 H67        17.6623  -28.1560  -41.8956 H         1 UNK         0.0849 
     68 H68        16.5400  -27.2876  -40.8842 H         1 UNK         0.0849 
     69 H69        16.2781  -30.5003  -41.6229 H         1 UNK         0.0865 
     70 H70        15.3459  -30.8717  -43.0502 H         1 UNK         0.0865 
     71 H71        18.4065  -31.4443  -41.9740 H         1 UNK         0.1346 
     72 H72        20.5629  -30.8479  -45.6253 H         1 UNK         0.1412 
     73 H73        16.6275  -29.2089  -45.1738 H         1 UNK         0.1426 
     74 H74        17.7460  -29.2097  -47.3662 H         1 UNK         0.0716 
     75 H75        19.3251  -29.9198  -47.5808 H         1 UNK         0.0716 
     76 H76        21.5909  -28.5451  -47.4670 H         1 UNK         0.0695 
     77 H77        21.3444  -28.7262  -45.7452 H         1 UNK         0.0695 
     78 H78        22.0414  -26.1164  -47.1549 H         1 UNK         0.0983 
     79 H79        21.1146  -25.1620  -45.3768 H         1 UNK         0.3095 
     80 H80        21.0679  -25.7988  -41.8760 H         1 UNK         0.0454 
     81 H81        22.0917  -23.7652  -43.0409 H         1 UNK         0.0851 
     82 H82        20.5468  -23.4422  -42.2809 H         1 UNK         0.0851 
     83 H83        20.6349  -23.6380  -44.0238 H         1 UNK         0.0851 
     84 H84        19.2626  -26.4840  -43.9457 H         1 UNK         0.2976 
     85 H85        23.9752  -25.3125  -45.3762 H         1 UNK         0.3116 
     86 H86        26.1278  -25.2649  -44.9624 H         1 UNK         0.0646 
     87 H87        26.5270  -27.5602  -46.9516 H         1 UNK         0.0847 
     88 H88        26.5045  -25.8442  -47.3577 H         1 UNK         0.0847 
     89 H89        27.7710  -26.4919  -46.3285 H         1 UNK         0.0847 
     90 H90        24.6610  -28.4181  -44.6286 H         1 UNK         0.3040 
     91 H91        26.5600  -29.5737  -42.7941 H         1 UNK         0.1015 
     92 H92        24.7155  -31.2530  -42.4736 H         1 UNK         0.0786 
     93 H93        24.9829  -30.9276  -44.1785 H         1 UNK         0.0786 
     94 H94        23.6067  -30.2029  -43.3483 H         1 UNK         0.0786 
     95 H95        24.2135  -27.1495  -42.3717 H         1 UNK         0.3172 
     96 H96        23.3524  -25.9849  -40.6900 H         1 UNK         0.0595 
     97 H97        25.3155  -27.3597  -38.7802 H         1 UNK         0.0839 
     98 H98        24.4147  -25.8843  -38.4766 H         1 UNK         0.0839 
     99 H99        25.6623  -25.9036  -39.7122 H         1 UNK         0.0839 
    100 H100       22.0546  -28.1619  -41.6079 H         1 UNK         0.2998 
    101 H101       20.2766  -29.4213  -41.3487 H         1 UNK         0.0822 
    102 H102       18.6353  -28.9208  -39.6093 H         1 UNK         0.0787 
    103 H103       19.3857  -27.4120  -40.1061 H         1 UNK         0.0787 
    104 H104       19.8517  -28.1729  -38.5884 H         1 UNK         0.0787 
    105 H105       22.9480  -30.3696  -40.1273 H         1 UNK         0.3055 
    106 H106       22.2522  -32.2951  -38.0964 H         1 UNK         0.1106 
    107 H107       24.4790  -31.1777  -38.2356 H         1 UNK         0.0828 
    108 H108       24.6324  -32.9256  -38.2838 H         1 UNK         0.0828 
    109 H109       24.8005  -31.9929  -39.7647 H         1 UNK         0.0828 
    110 H110       20.4335  -32.9109  -39.8764 H         1 UNK         0.2931 
    111 H111       21.2959  -35.4523  -41.2085 H         1 UNK         0.0412 
    112 H112       18.9742  -35.9586  -38.0280 H         1 UNK         0.3472 
    113 H113       19.9832  -34.5529  -38.2552 H         1 UNK         0.3472 
    114 H114       19.1372  -35.2247  -42.5359 H         1 UNK         0.0970 
    115 H115       18.9279  -33.6331  -41.8765 H         1 UNK         0.0970 
    116 H116       20.9039  -31.7890  -42.1171 H         1 UNK         0.0612 
    117 H117       21.7230  -31.5904  -43.6336 H         1 UNK         0.0612 
@<TRIPOS>BOND
     1    1    2 1    
     2    1   62 1    
     3    1   63 1    
     4    1   64 1    
     5    2    3 2    
     6    2    4 am   BACKBONE|DICT|INTERRES
     7    4    5 1    
     8    4   65 1    
     9    5    6 1    
    10    5   25 1    
    11    5   66 1    
    12    6    7 1    
    13    6   67 1    
    14    6   68 1    
    15    7    8 1    
    16    8    9 1    
    17    8   69 1    
    18    8   70 1    
    19    9   10 ar   
    20    9   14 ar   
    21   10   11 ar   
    22   10   71 1    
    23   11   12 ar   
    24   11   61 1    
    25   12   13 ar   
    26   12   72 1    
    27   13   14 ar   
    28   13   15 1    
    29   14   73 1    
    30   15   16 1    
    31   15   74 1    
    32   15   75 1    
    33   16   17 1    
    34   17   18 1    
    35   17   76 1    
    36   17   77 1    
    37   18   19 1    
    38   18   27 1    
    39   18   78 1    
    40   19   20 am   BACKBONE|DICT|INTERRES
    41   19   79 1    
    42   20   21 2    
    43   20   22 1    
    44   22   23 1    
    45   22   24 1    
    46   22   80 1    
    47   23   81 1    
    48   23   82 1    
    49   23   83 1    
    50   24   25 am   BACKBONE|DICT|INTERRES
    51   24   84 1    
    52   25   26 2    
    53   27   28 2    
    54   27   29 am   BACKBONE|DICT|INTERRES
    55   29   30 1    
    56   29   85 1    
    57   30   31 1    
    58   30   32 1    
    59   30   86 1    
    60   31   87 1    
    61   31   88 1    
    62   31   89 1    
    63   32   33 2    
    64   32   34 am   BACKBONE|DICT|INTERRES
    65   34   35 1    
    66   34   90 1    
    67   35   36 1    
    68   35   37 1    
    69   35   91 1    
    70   36   92 1    
    71   36   93 1    
    72   36   94 1    
    73   37   38 2    
    74   37   39 am   BACKBONE|DICT|INTERRES
    75   39   40 1    
    76   39   95 1    
    77   40   41 1    
    78   40   42 1    
    79   40   96 1    
    80   41   97 1    
    81   41   98 1    
    82   41   99 1    
    83   42   43 2    
    84   42   44 am   BACKBONE|DICT|INTERRES
    85   44   45 1    
    86   44  100 1    
    87   45   46 1    
    88   45   47 1    
    89   45  101 1    
    90   46  102 1    
    91   46  103 1    
    92   46  104 1    
    93   47   48 2    
    94   47   49 am   BACKBONE|DICT|INTERRES
    95   49   50 1    
    96   49  105 1    
    97   50   51 1    
    98   50   52 1    
    99   50  106 1    
   100   51  107 1    
   101   51  108 1    
   102   51  109 1    
   103   52   53 2    
   104   52   54 am   BACKBONE|DICT|INTERRES
   105   54   55 1    
   106   54  110 1    
   107   55   56 1    
   108   55   59 1    
   109   55  111 1    
   110   56   57 am   BACKBONE|DICT|INTERRES
   111   56   58 2    
   112   57  112 1    
   113   57  113 1    
   114   59   60 1    
   115   59  114 1    
   116   59  115 1    
   117   60   61 1    
   118   61  116 1    
   119   61  117 1    
@<TRIPOS>SUBSTRUCTURE
     1 UNK         1 GROUP             0       ****    0 ROOT    
