@<TRIPOS>MOLECULE
3R8
117   119    1
SMALL
USER_CHARGES


@<TRIPOS>ATOM
      1 CA         17.5931  -22.5375  -45.4932 C.3       0 UNK        -0.2013 
      2 C          16.1978  -23.0531  -45.1506 C.2       0 UNK         0.4866 
      3 O          15.4211  -22.3275  -44.5334 O.2       0 UNK        -0.5176 
      4 N          15.8261  -24.2862  -45.5241 N.am      1 UNK        -0.4884 
      5 CA         16.6407  -25.2927  -46.2220 C.3       1 UNK         0.0853 
      6 C6         15.7525  -26.3851  -46.8743 C.3       10 UNK        -0.0849 
      7 S7         14.6764  -27.2829  -45.6942 S.3       10 UNK        -0.2776 
      8 C8         15.0738  -29.0279  -46.0447 C.3       10 UNK         0.0316 
      9 C9         16.3737  -29.4893  -45.3950 C.ar      10 UNK        -0.0863 
     10 C10        16.4050  -29.8009  -44.0319 C.ar      10 UNK        -0.1009 
     11 C11        17.5743  -30.2862  -43.4349 C.ar      10 UNK        -0.0712 
     12 C12        18.7153  -30.4746  -44.2214 C.ar      10 UNK        -0.0894 
     13 C13        18.7047  -30.1490  -45.5813 C.ar      10 UNK        -0.0745 
     14 C14        17.5314  -29.6553  -46.1614 C.ar      10 UNK        -0.0972 
     15 C15        19.9495  -30.3557  -46.4343 C.3       10 UNK         0.0209 
     16 S16        21.0671  -28.9154  -46.3877 S.3       10 UNK        -0.2568 
     17 C17        21.9368  -29.1730  -44.8046 C.3       10 UNK        -0.0983 
     18 CA         21.6697  -28.0987  -43.7196 C.3       3 UNK         0.0876 
     19 N          20.2469  -27.7581  -43.5904 N.am      3 UNK        -0.4424 
     20 C          19.7608  -26.6258  -43.0675 C.2       2 UNK         0.4918 
     21 O          20.4621  -25.7014  -42.6539 O.2       2 UNK        -0.4875 
     22 CA         18.2293  -26.5592  -42.9254 C.3       2 UNK         0.0481 
     23 CB         17.8246  -25.9333  -41.5793 C.3       2 UNK        -0.1831 
     24 N          17.5162  -25.8677  -44.0019 N.am      2 UNK        -0.4498 
     25 C          17.7212  -25.9341  -45.3274 C.2       1 UNK         0.5027 
     26 O          18.6819  -26.4755  -45.8686 O.2       1 UNK        -0.4969 
     27 C          22.2966  -28.5381  -42.3734 C.2       3 UNK         0.5005 
     28 O          23.4935  -28.8300  -42.3241 O.2       3 UNK        -0.5279 
     29 N          21.4919  -28.5749  -41.2982 N.am      4 UNK        -0.4463 
     30 CA         21.8729  -28.9161  -39.9236 C.3       4 UNK         0.0283 
     31 CB         20.6278  -28.8494  -39.0252 C.3       4 UNK        -0.1875 
     32 C          22.9930  -28.0350  -39.3409 C.2       4 UNK         0.4949 
     33 O          23.7234  -28.4992  -38.4675 O.2       4 UNK        -0.5039 
     34 N          23.1587  -26.8141  -39.8709 N.am      5 UNK        -0.4663 
     35 CA         24.2839  -25.9170  -39.5832 C.3       5 UNK         0.0242 
     36 CB         24.0306  -24.5624  -40.2637 C.3       5 UNK        -0.1982 
     37 C          25.6542  -26.4851  -40.0079 C.2       5 UNK         0.5017 
     38 O          26.6655  -26.1160  -39.4110 O.2       5 UNK        -0.5012 
     39 N          25.6591  -27.3846  -41.0022 N.am      6 UNK        -0.4439 
     40 CA         26.8208  -28.1534  -41.4546 C.3       6 UNK         0.0297 
     41 CB         26.8820  -28.0840  -42.9916 C.3       6 UNK        -0.2006 
     42 C          26.7583  -29.6167  -40.9694 C.2       6 UNK         0.4892 
     43 O          27.5387  -30.4382  -41.4511 O.2       6 UNK        -0.5089 
     44 N          25.8215  -29.9247  -40.0558 N.am      7 UNK        -0.4243 
     45 CA         25.4815  -31.2429  -39.5015 C.3       7 UNK         0.0196 
     46 CB         26.6763  -31.8537  -38.7395 C.3       7 UNK        -0.2007 
     47 C          24.8773  -32.2302  -40.5207 C.2       7 UNK         0.5020 
     48 O          24.6964  -33.4028  -40.1894 O.2       7 UNK        -0.5147 
     49 N          24.5265  -31.7615  -41.7255 N.am      8 UNK        -0.4734 
     50 CA         24.0249  -32.5794  -42.8341 C.3       8 UNK         0.0238 
     51 CB         24.4961  -31.9569  -44.1599 C.3       8 UNK        -0.1912 
     52 C          22.5002  -32.7934  -42.7649 C.2       8 UNK         0.5038 
     53 O          21.8085  -32.6641  -43.7754 O.2       8 UNK        -0.5046 
     54 N          22.0061  -33.1184  -41.5673 N.am      9 UNK        -0.4200 
     55 CA         20.6024  -33.4307  -41.2685 C.3       9 UNK         0.0839 
     56 C          20.4551  -34.5076  -40.1516 C.2       9 UNK         0.5513 
     57 N          21.5195  -35.1857  -39.7336 N.am      9 UNK        -0.7519 
     58 O          19.3582  -34.7498  -39.6564 O.2       9 UNK        -0.4960 
     59 C59        19.7712  -32.1414  -41.0082 C.3       10 UNK        -0.0876 
     60 S60        18.0308  -32.2935  -41.5449 S.3       10 UNK        -0.2414 
     61 C61        17.6040  -30.5662  -41.9363 C.3       10 UNK         0.0169 
     62 H62        18.3598  -23.0948  -44.9561 H         1 UNK         0.0903 
     63 H63        17.7883  -22.6048  -46.5627 H         1 UNK         0.0903 
     64 H64        17.6899  -21.4895  -45.2099 H         1 UNK         0.0903 
     65 H65        14.8922  -24.5967  -45.2919 H         1 UNK         0.3096 
     66 H66        17.1724  -24.7942  -47.0346 H         1 UNK         0.1121 
     67 H67        15.1074  -25.9249  -47.6243 H         1 UNK         0.0849 
     68 H68        16.3713  -27.0949  -47.4268 H         1 UNK         0.0849 
     69 H69        14.2562  -29.6478  -45.6736 H         1 UNK         0.0865 
     70 H70        15.0990  -29.1892  -47.1236 H         1 UNK         0.0865 
     71 H71        15.5128  -29.6621  -43.4363 H         1 UNK         0.1346 
     72 H72        19.6140  -30.8748  -43.7742 H         1 UNK         0.1412 
     73 H73        17.5178  -29.4141  -47.2155 H         1 UNK         0.1426 
     74 H74        20.4826  -31.2542  -46.1186 H         1 UNK         0.0716 
     75 H75        19.6592  -30.5317  -47.4712 H         1 UNK         0.0716 
     76 H76        21.7051  -30.1684  -44.4293 H         1 UNK         0.0695 
     77 H77        23.0016  -29.1836  -45.0395 H         1 UNK         0.0695 
     78 H78        22.1956  -27.1909  -44.0230 H         1 UNK         0.0983 
     79 H79        19.5986  -28.4175  -44.0018 H         1 UNK         0.3095 
     80 H80        17.8550  -27.5820  -42.9216 H         1 UNK         0.0454 
     81 H81        16.7534  -26.0288  -41.4012 H         1 UNK         0.0851 
     82 H82        18.3322  -26.4240  -40.7477 H         1 UNK         0.0851 
     83 H83        18.0788  -24.8734  -41.5355 H         1 UNK         0.0851 
     84 H84        16.6841  -25.3722  -43.7163 H         1 UNK         0.2976 
     85 H85        20.5303  -28.3073  -41.4405 H         1 UNK         0.3116 
     86 H86        22.2385  -29.9451  -39.9343 H         1 UNK         0.0646 
     87 H87        20.8676  -29.1537  -38.0052 H         1 UNK         0.0847 
     88 H88        19.8372  -29.5100  -39.3786 H         1 UNK         0.0847 
     89 H89        20.2206  -27.8387  -38.9739 H         1 UNK         0.0847 
     90 H90        22.5028  -26.5073  -40.5756 H         1 UNK         0.3040 
     91 H91        24.3191  -25.7610  -38.5026 H         1 UNK         0.1015 
     92 H92        23.1060  -24.1063  -39.9090 H         1 UNK         0.0786 
     93 H93        23.9623  -24.6613  -41.3480 H         1 UNK         0.0786 
     94 H94        24.8383  -23.8607  -40.0502 H         1 UNK         0.0786 
     95 H95        24.7741  -27.6528  -41.4255 H         1 UNK         0.3172 
     96 H96        27.7411  -27.7215  -41.0569 H         1 UNK         0.0595 
     97 H97        26.0143  -28.5583  -43.4522 H         1 UNK         0.0839 
     98 H98        27.7703  -28.5887  -43.3738 H         1 UNK         0.0839 
     99 H99        26.9243  -27.0522  -43.3404 H         1 UNK         0.0839 
    100 H100       25.2467  -29.1678  -39.7030 H         1 UNK         0.2998 
    101 H101       24.6924  -31.0601  -38.7709 H         1 UNK         0.0822 
    102 H102       27.0806  -31.1532  -38.0088 H         1 UNK         0.0787 
    103 H103       26.3763  -32.7497  -38.1947 H         1 UNK         0.0787 
    104 H104       27.4841  -32.1418  -39.4127 H         1 UNK         0.0787 
    105 H105       24.6087  -30.7673  -41.9014 H         1 UNK         0.3055 
    106 H106       24.4715  -33.5746  -42.7728 H         1 UNK         0.1106 
    107 H107       24.1240  -32.5150  -45.0202 H         1 UNK         0.0828 
    108 H108       24.1583  -30.9283  -44.2594 H         1 UNK         0.0828 
    109 H109       25.5843  -31.9532  -44.2256 H         1 UNK         0.0828 
    110 H110       22.6572  -33.2136  -40.7974 H         1 UNK         0.2931 
    111 H111       20.2003  -33.9176  -42.1591 H         1 UNK         0.0412 
    112 H112       21.3976  -35.8797  -39.0123 H         1 UNK         0.3472 
    113 H113       22.4310  -35.0490  -40.1411 H         1 UNK         0.3472 
    114 H114       20.2137  -31.3005  -41.5427 H         1 UNK         0.0970 
    115 H115       19.7989  -31.8657  -39.9529 H         1 UNK         0.0970 
    116 H116       16.6287  -30.3577  -41.4941 H         1 UNK         0.0612 
    117 H117       18.3021  -29.8821  -41.4530 H         1 UNK         0.0612 
@<TRIPOS>BOND
     1    1    2 1    
     2    1   62 1    
     3    1   63 1    
     4    1   64 1    
     5    2    3 2    
     6    2    4 am   BACKBONE|DICT|INTERRES
     7    4    5 1    
     8    4   65 1    
     9    5    6 1    
    10    5   25 1    
    11    5   66 1    
    12    6    7 1    
    13    6   67 1    
    14    6   68 1    
    15    7    8 1    
    16    8    9 1    
    17    8   69 1    
    18    8   70 1    
    19    9   10 ar   
    20    9   14 ar   
    21   10   11 ar   
    22   10   71 1    
    23   11   12 ar   
    24   11   61 1    
    25   12   13 ar   
    26   12   72 1    
    27   13   14 ar   
    28   13   15 1    
    29   14   73 1    
    30   15   16 1    
    31   15   74 1    
    32   15   75 1    
    33   16   17 1    
    34   17   18 1    
    35   17   76 1    
    36   17   77 1    
    37   18   19 1    
    38   18   27 1    
    39   18   78 1    
    40   19   20 am   BACKBONE|DICT|INTERRES
    41   19   79 1    
    42   20   21 2    
    43   20   22 1    
    44   22   23 1    
    45   22   24 1    
    46   22   80 1    
    47   23   81 1    
    48   23   82 1    
    49   23   83 1    
    50   24   25 am   BACKBONE|DICT|INTERRES
    51   24   84 1    
    52   25   26 2    
    53   27   28 2    
    54   27   29 am   BACKBONE|DICT|INTERRES
    55   29   30 1    
    56   29   85 1    
    57   30   31 1    
    58   30   32 1    
    59   30   86 1    
    60   31   87 1    
    61   31   88 1    
    62   31   89 1    
    63   32   33 2    
    64   32   34 am   BACKBONE|DICT|INTERRES
    65   34   35 1    
    66   34   90 1    
    67   35   36 1    
    68   35   37 1    
    69   35   91 1    
    70   36   92 1    
    71   36   93 1    
    72   36   94 1    
    73   37   38 2    
    74   37   39 am   BACKBONE|DICT|INTERRES
    75   39   40 1    
    76   39   95 1    
    77   40   41 1    
    78   40   42 1    
    79   40   96 1    
    80   41   97 1    
    81   41   98 1    
    82   41   99 1    
    83   42   43 2    
    84   42   44 am   BACKBONE|DICT|INTERRES
    85   44   45 1    
    86   44  100 1    
    87   45   46 1    
    88   45   47 1    
    89   45  101 1    
    90   46  102 1    
    91   46  103 1    
    92   46  104 1    
    93   47   48 2    
    94   47   49 am   BACKBONE|DICT|INTERRES
    95   49   50 1    
    96   49  105 1    
    97   50   51 1    
    98   50   52 1    
    99   50  106 1    
   100   51  107 1    
   101   51  108 1    
   102   51  109 1    
   103   52   53 2    
   104   52   54 am   BACKBONE|DICT|INTERRES
   105   54   55 1    
   106   54  110 1    
   107   55   56 1    
   108   55   59 1    
   109   55  111 1    
   110   56   57 am   BACKBONE|DICT|INTERRES
   111   56   58 2    
   112   57  112 1    
   113   57  113 1    
   114   59   60 1    
   115   59  114 1    
   116   59  115 1    
   117   60   61 1    
   118   61  116 1    
   119   61  117 1    
@<TRIPOS>SUBSTRUCTURE
     1 UNK         1 GROUP             0       ****    0 ROOT    
