@<TRIPOS>MOLECULE
3R8
117   119    1
SMALL
USER_CHARGES


@<TRIPOS>ATOM
      1 CA         17.3035  -28.8285  -48.3884 C.3       0 UNK        -0.2013 
      2 C          17.0947  -28.6345  -46.8942 C.2       0 UNK         0.4866 
      3 O          16.1234  -29.1488  -46.3429 O.2       0 UNK        -0.5176 
      4 N          18.0005  -27.9000  -46.2394 N.am      1 UNK        -0.4884 
      5 CA         17.9977  -27.6284  -44.8012 C.3       1 UNK         0.0853 
      6 C6         16.8519  -26.6666  -44.3741 C.3       10 UNK        -0.0849 
      7 S7         16.6305  -26.5230  -42.5654 S.3       10 UNK        -0.2776 
      8 C8         15.4218  -27.8395  -42.2098 C.3       10 UNK         0.0316 
      9 C9         16.0856  -29.2069  -42.1366 C.ar      10 UNK        -0.0863 
     10 C10        15.8267  -30.1783  -43.1081 C.ar      10 UNK        -0.1009 
     11 C11        16.4345  -31.4354  -43.0331 C.ar      10 UNK        -0.0712 
     12 C12        17.3130  -31.7137  -41.9827 C.ar      10 UNK        -0.0894 
     13 C13        17.5926  -30.7452  -41.0157 C.ar      10 UNK        -0.0745 
     14 C14        16.9593  -29.5016  -41.0860 C.ar      10 UNK        -0.0972 
     15 C15        18.5830  -31.0492  -39.9033 C.3       10 UNK         0.0209 
     16 S16        20.2770  -30.5955  -40.3900 S.3       10 UNK        -0.2568 
     17 C17        20.3284  -28.8427  -39.8879 C.3       10 UNK        -0.0983 
     18 CA         21.4631  -28.0524  -40.5803 C.3       3 UNK         0.0876 
     19 N          21.3315  -28.0859  -42.0446 N.am      3 UNK        -0.4424 
     20 C          22.1854  -27.5661  -42.9385 C.2       2 UNK         0.4918 
     21 O          23.2094  -26.9616  -42.6277 O.2       2 UNK        -0.4875 
     22 CA         21.8348  -27.6990  -44.4294 C.3       2 UNK         0.0481 
     23 CB         22.7351  -28.7596  -45.0766 C.3       2 UNK        -0.1831 
     24 N          20.4198  -27.9978  -44.6905 N.am      2 UNK        -0.4498 
     25 C          19.4121  -27.1499  -44.4228 C.2       1 UNK         0.5027 
     26 O          19.5892  -26.0305  -43.9381 O.2       1 UNK        -0.4969 
     27 C          21.5773  -26.6330  -39.9750 C.2       3 UNK         0.5005 
     28 O          21.9965  -26.5033  -38.8243 O.2       3 UNK        -0.5279 
     29 N          21.2324  -25.5945  -40.7505 N.am      4 UNK        -0.4463 
     30 CA         21.4633  -24.1872  -40.4214 C.3       4 UNK         0.0283 
     31 CB         20.7135  -23.3118  -41.4385 C.3       4 UNK        -0.1875 
     32 C          22.9554  -23.7934  -40.3722 C.2       4 UNK         0.4949 
     33 O          23.2795  -22.8024  -39.7168 O.2       4 UNK        -0.5039 
     34 N          23.8280  -24.5475  -41.0582 N.am      5 UNK        -0.4663 
     35 CA         25.2735  -24.2993  -41.1229 C.3       5 UNK         0.0242 
     36 CB         25.6156  -23.6415  -42.4706 C.3       5 UNK        -0.1982 
     37 C          26.1129  -25.5711  -40.9147 C.2       5 UNK         0.5017 
     38 O          27.1830  -25.4851  -40.3107 O.2       5 UNK        -0.5012 
     39 N          25.6327  -26.7131  -41.4194 N.am      6 UNK        -0.4439 
     40 CA         26.2571  -28.0309  -41.3329 C.3       6 UNK         0.0297 
     41 CB         26.5801  -28.5223  -42.7598 C.3       6 UNK        -0.2006 
     42 C          25.3241  -28.9637  -40.5402 C.2       6 UNK         0.4892 
     43 O          24.9171  -28.5988  -39.4362 O.2       6 UNK        -0.5089 
     44 N          25.0003  -30.1404  -41.0901 N.am      7 UNK        -0.4243 
     45 CA         24.1501  -31.1643  -40.4865 C.3       7 UNK         0.0196 
     46 CB         24.9287  -31.9107  -39.3830 C.3       7 UNK        -0.2007 
     47 C          23.6767  -32.1383  -41.5747 C.2       7 UNK         0.5020 
     48 O          24.1954  -32.1038  -42.6929 O.2       7 UNK        -0.5147 
     49 N          22.7344  -33.0145  -41.1983 N.am      8 UNK        -0.4734 
     50 CA         22.2329  -34.1716  -41.9550 C.3       8 UNK         0.0238 
     51 CB         23.3610  -35.2028  -42.1820 C.3       8 UNK        -0.1912 
     52 C          21.4716  -33.8246  -43.2511 C.2       8 UNK         0.5038 
     53 O          21.5138  -34.6066  -44.2031 O.2       8 UNK        -0.5046 
     54 N          20.7467  -32.6964  -43.2423 N.am      9 UNK        -0.4200 
     55 CA         19.9051  -32.1893  -44.3416 C.3       9 UNK         0.0839 
     56 C          20.7050  -31.6530  -45.5642 C.2       9 UNK         0.5513 
     57 N          20.0570  -30.8712  -46.4177 N.am      9 UNK        -0.7519 
     58 O          21.8899  -31.9149  -45.7504 O.2       9 UNK        -0.4960 
     59 C59        18.8000  -33.2061  -44.7589 C.3       10 UNK        -0.0876 
     60 S60        17.3103  -32.4223  -45.4688 S.3       10 UNK        -0.2414 
     61 C61        16.1343  -32.4938  -44.0830 C.3       10 UNK         0.0169 
     62 H62        16.4575  -28.4203  -48.9407 H         1 UNK         0.0903 
     63 H63        18.2095  -28.3373  -48.7428 H         1 UNK         0.0903 
     64 H64        17.3808  -29.8906  -48.6201 H         1 UNK         0.0903 
     65 H65        18.7742  -27.4909  -46.7475 H         1 UNK         0.3096 
     66 H66        17.8482  -28.5804  -44.2882 H         1 UNK         0.1121 
     67 H67        17.0252  -25.6685  -44.7805 H         1 UNK         0.0849 
     68 H68        15.9033  -26.9913  -44.8025 H         1 UNK         0.0849 
     69 H69        14.9455  -27.6277  -41.2514 H         1 UNK         0.0865 
     70 H70        14.6234  -27.8252  -42.9534 H         1 UNK         0.0865 
     71 H71        15.1556  -29.9571  -43.9273 H         1 UNK         0.1346 
     72 H72        17.7906  -32.6815  -41.9227 H         1 UNK         0.1412 
     73 H73        17.1536  -28.7517  -40.3320 H         1 UNK         0.1426 
     74 H74        18.5597  -32.1143  -39.6680 H         1 UNK         0.0716 
     75 H75        18.3039  -30.5301  -38.9849 H         1 UNK         0.0716 
     76 H76        20.4479  -28.8201  -38.8027 H         1 UNK         0.0695 
     77 H77        19.3690  -28.3717  -40.1006 H         1 UNK         0.0695 
     78 H78        22.4049  -28.5448  -40.3425 H         1 UNK         0.0983 
     79 H79        20.5162  -28.5669  -42.3926 H         1 UNK         0.3095 
     80 H80        22.0573  -26.7401  -44.9022 H         1 UNK         0.0454 
     81 H81        23.7781  -28.4412  -45.0592 H         1 UNK         0.0851 
     82 H82        22.6857  -29.7094  -44.5437 H         1 UNK         0.0851 
     83 H83        22.4719  -28.9359  -46.1193 H         1 UNK         0.0851 
     84 H84        20.2148  -28.8837  -45.1332 H         1 UNK         0.2976 
     85 H85        20.8691  -25.7889  -41.6744 H         1 UNK         0.3116 
     86 H86        21.0418  -23.9998  -39.4316 H         1 UNK         0.0646 
     87 H87        20.8361  -22.2524  -41.2084 H         1 UNK         0.0847 
     88 H88        19.6437  -23.5218  -41.4322 H         1 UNK         0.0847 
     89 H89        21.0794  -23.4697  -42.4541 H         1 UNK         0.0847 
     90 H90        23.4757  -25.3501  -41.5693 H         1 UNK         0.3040 
     91 H91        25.5661  -23.6107  -40.3267 H         1 UNK         0.1015 
     92 H92        25.1049  -22.6851  -42.5842 H         1 UNK         0.0786 
     93 H93        25.3312  -24.2753  -43.3117 H         1 UNK         0.0786 
     94 H94        26.6863  -23.4486  -42.5522 H         1 UNK         0.0786 
     95 H95        24.7258  -26.7076  -41.8843 H         1 UNK         0.3172 
     96 H96        27.1927  -27.9753  -40.7731 H         1 UNK         0.0595 
     97 H97        27.1003  -29.4809  -42.7440 H         1 UNK         0.0839 
     98 H98        27.2347  -27.8183  -43.2741 H         1 UNK         0.0839 
     99 H99        25.6807  -28.6350  -43.3668 H         1 UNK         0.0839 
    100 H100       25.3221  -30.3730  -42.0221 H         1 UNK         0.2998 
    101 H101       23.2717  -30.6879  -40.0497 H         1 UNK         0.0822 
    102 H102       25.8183  -32.3995  -39.7823 H         1 UNK         0.0787 
    103 H103       25.2479  -31.2344  -38.5900 H         1 UNK         0.0787 
    104 H104       24.3162  -32.6811  -38.9133 H         1 UNK         0.0787 
    105 H105       22.3599  -32.9228  -40.2631 H         1 UNK         0.3055 
    106 H106       21.4919  -34.6484  -41.3110 H         1 UNK         0.1106 
    107 H107       24.1138  -34.8314  -42.8780 H         1 UNK         0.0828 
    108 H108       23.8627  -35.4560  -41.2481 H         1 UNK         0.0828 
    109 H109       22.9675  -36.1319  -42.5963 H         1 UNK         0.0828 
    110 H110       20.7951  -32.1112  -42.4199 H         1 UNK         0.2931 
    111 H111       19.4161  -31.3178  -43.9040 H         1 UNK         0.0412 
    112 H112       20.5416  -30.5401  -47.2373 H         1 UNK         0.3472 
    113 H113       19.0565  -30.7669  -46.3384 H         1 UNK         0.3472 
    114 H114       19.1906  -33.9234  -45.4833 H         1 UNK         0.0970 
    115 H115       18.4951  -33.8084  -43.9029 H         1 UNK         0.0970 
    116 H116       15.1279  -32.3447  -44.4769 H         1 UNK         0.0612 
    117 H117       16.1395  -33.4899  -43.6382 H         1 UNK         0.0612 
@<TRIPOS>BOND
     1    1    2 1    
     2    1   62 1    
     3    1   63 1    
     4    1   64 1    
     5    2    3 2    
     6    2    4 am   BACKBONE|DICT|INTERRES
     7    4    5 1    
     8    4   65 1    
     9    5    6 1    
    10    5   25 1    
    11    5   66 1    
    12    6    7 1    
    13    6   67 1    
    14    6   68 1    
    15    7    8 1    
    16    8    9 1    
    17    8   69 1    
    18    8   70 1    
    19    9   10 ar   
    20    9   14 ar   
    21   10   11 ar   
    22   10   71 1    
    23   11   12 ar   
    24   11   61 1    
    25   12   13 ar   
    26   12   72 1    
    27   13   14 ar   
    28   13   15 1    
    29   14   73 1    
    30   15   16 1    
    31   15   74 1    
    32   15   75 1    
    33   16   17 1    
    34   17   18 1    
    35   17   76 1    
    36   17   77 1    
    37   18   19 1    
    38   18   27 1    
    39   18   78 1    
    40   19   20 am   BACKBONE|DICT|INTERRES
    41   19   79 1    
    42   20   21 2    
    43   20   22 1    
    44   22   23 1    
    45   22   24 1    
    46   22   80 1    
    47   23   81 1    
    48   23   82 1    
    49   23   83 1    
    50   24   25 am   BACKBONE|DICT|INTERRES
    51   24   84 1    
    52   25   26 2    
    53   27   28 2    
    54   27   29 am   BACKBONE|DICT|INTERRES
    55   29   30 1    
    56   29   85 1    
    57   30   31 1    
    58   30   32 1    
    59   30   86 1    
    60   31   87 1    
    61   31   88 1    
    62   31   89 1    
    63   32   33 2    
    64   32   34 am   BACKBONE|DICT|INTERRES
    65   34   35 1    
    66   34   90 1    
    67   35   36 1    
    68   35   37 1    
    69   35   91 1    
    70   36   92 1    
    71   36   93 1    
    72   36   94 1    
    73   37   38 2    
    74   37   39 am   BACKBONE|DICT|INTERRES
    75   39   40 1    
    76   39   95 1    
    77   40   41 1    
    78   40   42 1    
    79   40   96 1    
    80   41   97 1    
    81   41   98 1    
    82   41   99 1    
    83   42   43 2    
    84   42   44 am   BACKBONE|DICT|INTERRES
    85   44   45 1    
    86   44  100 1    
    87   45   46 1    
    88   45   47 1    
    89   45  101 1    
    90   46  102 1    
    91   46  103 1    
    92   46  104 1    
    93   47   48 2    
    94   47   49 am   BACKBONE|DICT|INTERRES
    95   49   50 1    
    96   49  105 1    
    97   50   51 1    
    98   50   52 1    
    99   50  106 1    
   100   51  107 1    
   101   51  108 1    
   102   51  109 1    
   103   52   53 2    
   104   52   54 am   BACKBONE|DICT|INTERRES
   105   54   55 1    
   106   54  110 1    
   107   55   56 1    
   108   55   59 1    
   109   55  111 1    
   110   56   57 am   BACKBONE|DICT|INTERRES
   111   56   58 2    
   112   57  112 1    
   113   57  113 1    
   114   59   60 1    
   115   59  114 1    
   116   59  115 1    
   117   60   61 1    
   118   61  116 1    
   119   61  117 1    
@<TRIPOS>SUBSTRUCTURE
     1 UNK         1 GROUP             0       ****    0 ROOT    
