@<TRIPOS>MOLECULE
3R8
117   119    1
SMALL
USER_CHARGES


@<TRIPOS>ATOM
      1 CA         17.5827  -24.4861  -48.9153 C.3       0 UNK        -0.2013 
      2 C          18.5463  -25.2339  -48.0059 C.2       0 UNK         0.4866 
      3 O          19.7561  -25.0175  -48.0853 O.2       0 UNK        -0.5176 
      4 N          18.0216  -26.1184  -47.1492 N.am      1 UNK        -0.4884 
      5 CA         18.7880  -26.8931  -46.1690 C.3       1 UNK         0.0853 
      6 C6         17.9417  -28.0309  -45.5555 C.3       10 UNK        -0.0849 
      7 S7         17.4267  -29.3043  -46.7618 S.3       10 UNK        -0.2776 
      8 C8         16.1286  -30.2020  -45.8360 C.3       10 UNK         0.0316 
      9 C9         16.6368  -30.6720  -44.4803 C.ar      10 UNK        -0.0863 
     10 C10        17.3115  -31.8876  -44.3481 C.ar      10 UNK        -0.1009 
     11 C11        17.8871  -32.2477  -43.1246 C.ar      10 UNK        -0.0712 
     12 C12        17.7983  -31.3713  -42.0362 C.ar      10 UNK        -0.0894 
     13 C13        17.1107  -30.1577  -42.1530 C.ar      10 UNK        -0.0745 
     14 C14        16.4890  -29.8458  -43.3655 C.ar      10 UNK        -0.0972 
     15 C15        17.0703  -29.1779  -40.9817 C.3       10 UNK         0.0209 
     16 S16        17.2447  -27.4364  -41.5182 S.3       10 UNK        -0.2568 
     17 C17        18.2598  -26.7163  -40.1918 C.3       10 UNK        -0.0983 
     18 CA         19.7648  -26.7271  -40.5498 C.3       3 UNK         0.0876 
     19 N          20.0568  -26.0182  -41.8083 N.am      3 UNK        -0.4424 
     20 C          21.2589  -25.9411  -42.3952 C.2       2 UNK         0.4918 
     21 O          22.2850  -26.4075  -41.8969 O.2       2 UNK        -0.4875 
     22 CA         21.3228  -25.2431  -43.7644 C.3       2 UNK         0.0481 
     23 CB         22.7726  -24.9890  -44.2188 C.3       2 UNK        -0.1831 
     24 N          20.6359  -26.0329  -44.7889 N.am      2 UNK        -0.4498 
     25 C          19.3236  -25.9732  -45.0503 C.2       1 UNK         0.5027 
     26 O          18.5397  -25.2481  -44.4321 O.2       1 UNK        -0.4969 
     27 C          20.6004  -26.2418  -39.3464 C.2       3 UNK         0.5005 
     28 O          20.9150  -27.0502  -38.4728 O.2       3 UNK        -0.5279 
     29 N          21.0068  -24.9629  -39.3476 N.am      4 UNK        -0.4463 
     30 CA         21.9255  -24.3690  -38.3677 C.3       4 UNK         0.0283 
     31 CB         22.0291  -22.8571  -38.6245 C.3       4 UNK        -0.1875 
     32 C          23.3305  -25.0070  -38.3580 C.2       4 UNK         0.4949 
     33 O          24.0014  -24.9649  -37.3271 O.2       4 UNK        -0.5039 
     34 N          23.7368  -25.5995  -39.4886 N.am      5 UNK        -0.4663 
     35 CA         24.9734  -26.3656  -39.6573 C.3       5 UNK         0.0242 
     36 CB         25.6913  -25.8486  -40.9177 C.3       5 UNK        -0.1982 
     37 C          24.6955  -27.8794  -39.7602 C.2       5 UNK         0.5017 
     38 O          25.5997  -28.6264  -40.1346 O.2       5 UNK        -0.5012 
     39 N          23.4569  -28.3035  -39.4551 N.am      6 UNK        -0.4439 
     40 CA         22.9091  -29.6601  -39.5925 C.3       6 UNK         0.0297 
     41 CB         23.6407  -30.6555  -38.6671 C.3       6 UNK        -0.2006 
     42 C          22.8266  -30.1551  -41.0519 C.2       6 UNK         0.4892 
     43 O          22.8042  -31.3684  -41.2767 O.2       6 UNK        -0.5089 
     44 N          22.7618  -29.2165  -42.0115 N.am      7 UNK        -0.4243 
     45 CA         22.7025  -29.4200  -43.4621 C.3       7 UNK         0.0196 
     46 CB         21.2881  -29.8925  -43.8682 C.3       7 UNK        -0.2007 
     47 C          23.8505  -30.3300  -43.9384 C.2       7 UNK         0.5020 
     48 O          25.0039  -29.8988  -43.9305 O.2       7 UNK        -0.5147 
     49 N          23.5239  -31.5767  -44.2869 N.am      8 UNK        -0.4734 
     50 CA         24.4733  -32.6733  -44.4712 C.3       8 UNK         0.0238 
     51 CB         24.9163  -32.7402  -45.9462 C.3       8 UNK        -0.1912 
     52 C          23.8400  -33.9825  -43.9689 C.2       8 UNK         0.5038 
     53 O          24.0559  -35.0347  -44.5738 O.2       8 UNK        -0.5046 
     54 N          23.0204  -33.8907  -42.9121 N.am      9 UNK        -0.4200 
     55 CA         22.0958  -34.9564  -42.4911 C.3       9 UNK         0.0839 
     56 C          21.6029  -34.8601  -41.0209 C.2       9 UNK         0.5513 
     57 N          21.8629  -33.7908  -40.2810 N.am      9 UNK        -0.7519 
     58 O          20.9841  -35.7990  -40.5265 O.2       9 UNK        -0.4960 
     59 C59        20.9198  -35.1508  -43.4958 C.3       10 UNK        -0.0876 
     60 S60        20.1286  -33.5849  -44.0111 S.3       10 UNK        -0.2414 
     61 C61        18.6256  -33.5716  -42.9912 C.3       10 UNK         0.0169 
     62 H62        17.6569  -23.4133  -48.7389 H         1 UNK         0.0903 
     63 H63        17.8272  -24.6776  -49.9597 H         1 UNK         0.0903 
     64 H64        16.5482  -24.7863  -48.7490 H         1 UNK         0.0903 
     65 H65        17.0209  -26.2528  -47.1219 H         1 UNK         0.3096 
     66 H66        19.6380  -27.3420  -46.6881 H         1 UNK         0.1121 
     67 H67        18.5080  -28.5354  -44.7703 H         1 UNK         0.0849 
     68 H68        17.0525  -27.6157  -45.0776 H         1 UNK         0.0849 
     69 H69        15.7929  -31.0560  -46.4262 H         1 UNK         0.0865 
     70 H70        15.2585  -29.5552  -45.7132 H         1 UNK         0.0865 
     71 H71        17.4223  -32.5383  -45.2049 H         1 UNK         0.1346 
     72 H72        18.2739  -31.6312  -41.1002 H         1 UNK         0.1412 
     73 H73        15.9493  -28.9148  -43.4668 H         1 UNK         0.1426 
     74 H74        17.8673  -29.4181  -40.2765 H         1 UNK         0.0716 
     75 H75        16.1287  -29.2954  -40.4441 H         1 UNK         0.0716 
     76 H76        18.0695  -27.2600  -39.2640 H         1 UNK         0.0695 
     77 H77        17.9159  -25.6944  -40.0208 H         1 UNK         0.0695 
     78 H78        20.0555  -27.7673  -40.7149 H         1 UNK         0.0983 
     79 H79        19.2573  -25.6474  -42.3079 H         1 UNK         0.3095 
     80 H80        20.8356  -24.2711  -43.6627 H         1 UNK         0.0454 
     81 H81        22.8021  -24.4434  -45.1619 H         1 UNK         0.0851 
     82 H82        23.3285  -25.9180  -44.3516 H         1 UNK         0.0851 
     83 H83        23.3128  -24.3907  -43.4837 H         1 UNK         0.0851 
     84 H84        21.2134  -26.6611  -45.3289 H         1 UNK         0.2976 
     85 H85        20.7014  -24.3683  -40.1049 H         1 UNK         0.3116 
     86 H86        21.4933  -24.5195  -37.3762 H         1 UNK         0.0646 
     87 H87        22.6833  -22.3813  -37.8924 H         1 UNK         0.0847 
     88 H88        21.0559  -22.3720  -38.5477 H         1 UNK         0.0847 
     89 H89        22.4372  -22.6415  -39.6128 H         1 UNK         0.0847 
     90 H90        23.1114  -25.6101  -40.2887 H         1 UNK         0.3040 
     91 H91        25.6340  -26.2197  -38.8000 H         1 UNK         0.1015 
     92 H92        25.8884  -24.7786  -40.8505 H         1 UNK         0.0786 
     93 H93        25.1007  -26.0250  -41.8179 H         1 UNK         0.0786 
     94 H94        26.6530  -26.3445  -41.0556 H         1 UNK         0.0786 
     95 H95        22.7925  -27.6129  -39.1213 H         1 UNK         0.3172 
     96 H96        21.8765  -29.5967  -39.2467 H         1 UNK         0.0595 
     97 H97        24.6577  -30.8531  -39.0067 H         1 UNK         0.0839 
     98 H98        23.1209  -31.6134  -38.6332 H         1 UNK         0.0839 
     99 H99        23.6933  -30.2828  -37.6443 H         1 UNK         0.0839 
    100 H100       22.7953  -28.2425  -41.7257 H         1 UNK         0.2998 
    101 H101       22.8736  -28.4462  -43.9227 H         1 UNK         0.0822 
    102 H102       21.0004  -30.8160  -43.3656 H         1 UNK         0.0787 
    103 H103       20.5423  -29.1428  -43.6047 H         1 UNK         0.0787 
    104 H104       21.2129  -30.0571  -44.9439 H         1 UNK         0.0787 
    105 H105       22.5479  -31.8421  -44.2571 H         1 UNK         0.3055 
    106 H106       25.3548  -32.5018  -43.8489 H         1 UNK         0.1106 
    107 H107       25.6562  -33.5269  -46.0994 H         1 UNK         0.0828 
    108 H108       24.0746  -32.9470  -46.6081 H         1 UNK         0.0828 
    109 H109       25.3727  -31.8035  -46.2663 H         1 UNK         0.0828 
    110 H110       22.9263  -33.0023  -42.4301 H         1 UNK         0.2931 
    111 H111       22.6753  -35.8818  -42.4999 H         1 UNK         0.0412 
    112 H112       22.3146  -32.9633  -40.6623 H         1 UNK         0.3472 
    113 H113       21.5377  -33.7788  -39.3281 H         1 UNK         0.3472 
    114 H114       21.3011  -35.6268  -44.4002 H         1 UNK         0.0970 
    115 H115       20.1690  -35.8429  -43.1097 H         1 UNK         0.0970 
    116 H116       17.9707  -34.3878  -43.2993 H         1 UNK         0.0612 
    117 H117       18.8944  -33.7589  -41.9505 H         1 UNK         0.0612 
@<TRIPOS>BOND
     1    1    2 1    
     2    1   62 1    
     3    1   63 1    
     4    1   64 1    
     5    2    3 2    
     6    2    4 am   BACKBONE|DICT|INTERRES
     7    4    5 1    
     8    4   65 1    
     9    5    6 1    
    10    5   25 1    
    11    5   66 1    
    12    6    7 1    
    13    6   67 1    
    14    6   68 1    
    15    7    8 1    
    16    8    9 1    
    17    8   69 1    
    18    8   70 1    
    19    9   10 ar   
    20    9   14 ar   
    21   10   11 ar   
    22   10   71 1    
    23   11   12 ar   
    24   11   61 1    
    25   12   13 ar   
    26   12   72 1    
    27   13   14 ar   
    28   13   15 1    
    29   14   73 1    
    30   15   16 1    
    31   15   74 1    
    32   15   75 1    
    33   16   17 1    
    34   17   18 1    
    35   17   76 1    
    36   17   77 1    
    37   18   19 1    
    38   18   27 1    
    39   18   78 1    
    40   19   20 am   BACKBONE|DICT|INTERRES
    41   19   79 1    
    42   20   21 2    
    43   20   22 1    
    44   22   23 1    
    45   22   24 1    
    46   22   80 1    
    47   23   81 1    
    48   23   82 1    
    49   23   83 1    
    50   24   25 am   BACKBONE|DICT|INTERRES
    51   24   84 1    
    52   25   26 2    
    53   27   28 2    
    54   27   29 am   BACKBONE|DICT|INTERRES
    55   29   30 1    
    56   29   85 1    
    57   30   31 1    
    58   30   32 1    
    59   30   86 1    
    60   31   87 1    
    61   31   88 1    
    62   31   89 1    
    63   32   33 2    
    64   32   34 am   BACKBONE|DICT|INTERRES
    65   34   35 1    
    66   34   90 1    
    67   35   36 1    
    68   35   37 1    
    69   35   91 1    
    70   36   92 1    
    71   36   93 1    
    72   36   94 1    
    73   37   38 2    
    74   37   39 am   BACKBONE|DICT|INTERRES
    75   39   40 1    
    76   39   95 1    
    77   40   41 1    
    78   40   42 1    
    79   40   96 1    
    80   41   97 1    
    81   41   98 1    
    82   41   99 1    
    83   42   43 2    
    84   42   44 am   BACKBONE|DICT|INTERRES
    85   44   45 1    
    86   44  100 1    
    87   45   46 1    
    88   45   47 1    
    89   45  101 1    
    90   46  102 1    
    91   46  103 1    
    92   46  104 1    
    93   47   48 2    
    94   47   49 am   BACKBONE|DICT|INTERRES
    95   49   50 1    
    96   49  105 1    
    97   50   51 1    
    98   50   52 1    
    99   50  106 1    
   100   51  107 1    
   101   51  108 1    
   102   51  109 1    
   103   52   53 2    
   104   52   54 am   BACKBONE|DICT|INTERRES
   105   54   55 1    
   106   54  110 1    
   107   55   56 1    
   108   55   59 1    
   109   55  111 1    
   110   56   57 am   BACKBONE|DICT|INTERRES
   111   56   58 2    
   112   57  112 1    
   113   57  113 1    
   114   59   60 1    
   115   59  114 1    
   116   59  115 1    
   117   60   61 1    
   118   61  116 1    
   119   61  117 1    
@<TRIPOS>SUBSTRUCTURE
     1 UNK         1 GROUP             0       ****    0 ROOT    
