@<TRIPOS>MOLECULE
3R8
117   119    1
SMALL
USER_CHARGES


@<TRIPOS>ATOM
      1 CA         14.8384  -24.0006  -41.9305 C.3       0 UNK        -0.2013 
      2 C          15.3965  -24.3498  -43.3021 C.2       0 UNK         0.4866 
      3 O          15.1650  -23.6147  -44.2630 O.2       0 UNK        -0.5176 
      4 N          16.1209  -25.4708  -43.4028 N.am      1 UNK        -0.4884 
      5 CA         16.7761  -25.9380  -44.6299 C.3       1 UNK         0.0853 
      6 C6         17.2216  -27.4161  -44.5177 C.3       10 UNK        -0.0849 
      7 S7         15.8464  -28.5594  -44.1481 S.3       10 UNK        -0.2776 
      8 C8         16.5935  -30.1757  -44.5529 C.3       10 UNK         0.0316 
      9 C9         17.9603  -30.3490  -43.9044 C.ar      10 UNK        -0.0863 
     10 C10        18.0733  -30.4519  -42.5161 C.ar      10 UNK        -0.1009 
     11 C11        19.3296  -30.5318  -41.9078 C.ar      10 UNK        -0.0712 
     12 C12        20.4813  -30.5141  -42.7025 C.ar      10 UNK        -0.0894 
     13 C13        20.3788  -30.4317  -44.0966 C.ar      10 UNK        -0.0745 
     14 C14        19.1154  -30.3594  -44.6900 C.ar      10 UNK        -0.0972 
     15 C15        21.6262  -30.4061  -44.9704 C.3       10 UNK         0.0209 
     16 S16        21.7973  -28.8415  -45.8893 S.3       10 UNK        -0.2568 
     17 C17        22.0583  -27.6806  -44.5137 C.3       10 UNK        -0.0983 
     18 CA         22.1880  -26.2083  -44.9704 C.3       3 UNK         0.0876 
     19 N          20.9915  -25.7526  -45.6828 N.am      3 UNK        -0.4424 
     20 C          20.8448  -24.5654  -46.2862 C.2       2 UNK         0.4918 
     21 O          21.7504  -23.7389  -46.3982 O.2       2 UNK        -0.4875 
     22 CA         19.4471  -24.2263  -46.8437 C.3       2 UNK         0.0481 
     23 CB         19.4346  -24.3787  -48.3733 C.3       2 UNK        -0.1831 
     24 N          18.3369  -25.0054  -46.2750 N.am      2 UNK        -0.4498 
     25 C          17.9918  -25.0543  -44.9789 C.2       1 UNK         0.5027 
     26 O          18.6275  -24.4953  -44.0795 O.2       1 UNK        -0.4969 
     27 C          22.5202  -25.3461  -43.7356 C.2       3 UNK         0.5005 
     28 O          23.6933  -25.2668  -43.3666 O.2       3 UNK        -0.5279 
     29 N          21.4907  -24.7774  -43.0836 N.am      4 UNK        -0.4463 
     30 CA         21.4968  -24.0473  -41.8049 C.3       4 UNK         0.0283 
     31 CB         22.3656  -22.7768  -41.8775 C.3       4 UNK        -0.1875 
     32 C          21.8706  -24.9108  -40.5821 C.2       4 UNK         0.4949 
     33 O          21.1943  -24.8281  -39.5567 O.2       4 UNK        -0.5039 
     34 N          22.9174  -25.7290  -40.7153 N.am      5 UNK        -0.4663 
     35 CA         23.3841  -26.7118  -39.7468 C.3       5 UNK         0.0242 
     36 CB         24.5086  -26.1014  -38.8844 C.3       5 UNK        -0.1982 
     37 C          23.7886  -27.9704  -40.5266 C.2       5 UNK         0.5017 
     38 O          22.9073  -28.7248  -40.9379 O.2       5 UNK        -0.5012 
     39 N          25.0994  -28.1849  -40.7148 N.am      6 UNK        -0.4439 
     40 CA         25.7711  -29.2778  -41.4425 C.3       6 UNK         0.0297 
     41 CB         25.3436  -29.3150  -42.9221 C.3       6 UNK        -0.2006 
     42 C          25.6411  -30.6780  -40.8103 C.2       6 UNK         0.4892 
     43 O          26.5803  -31.4660  -40.9206 O.2       6 UNK        -0.5089 
     44 N          24.4999  -30.9603  -40.1677 N.am      7 UNK        -0.4243 
     45 CA         24.1420  -32.1907  -39.4501 C.3       7 UNK         0.0196 
     46 CB         25.1016  -32.4500  -38.2690 C.3       7 UNK        -0.2007 
     47 C          23.9645  -33.4304  -40.3495 C.2       7 UNK         0.5020 
     48 O          23.9323  -34.5488  -39.8345 O.2       7 UNK        -0.5147 
     49 N          23.7831  -33.2294  -41.6646 N.am      8 UNK        -0.4734 
     50 CA         23.4712  -34.2888  -42.6392 C.3       8 UNK         0.0238 
     51 CB         23.5419  -33.7106  -44.0608 C.3       8 UNK        -0.1912 
     52 C          22.1022  -34.9565  -42.3955 C.2       8 UNK         0.5038 
     53 O          21.8995  -36.1045  -42.7914 O.2       8 UNK        -0.5046 
     54 N          21.2135  -34.2241  -41.7171 N.am      9 UNK        -0.4200 
     55 CA         19.9605  -34.6791  -41.1044 C.3       9 UNK         0.0839 
     56 C          20.1243  -35.7184  -39.9542 C.2       9 UNK         0.5513 
     57 N          21.3117  -35.9371  -39.3996 N.am      9 UNK        -0.7519 
     58 O          19.1456  -36.3491  -39.5629 O.2       9 UNK        -0.4960 
     59 C59        19.1001  -33.4642  -40.6521 C.3       10 UNK        -0.0876 
     60 S60        20.0765  -32.1886  -39.7603 S.3       10 UNK        -0.2414 
     61 C61        19.4246  -30.6045  -40.3884 C.3       10 UNK         0.0169 
     62 H62        15.2248  -23.0355  -41.6035 H         1 UNK         0.0903 
     63 H63        15.1052  -24.7445  -41.1800 H         1 UNK         0.0903 
     64 H64        13.7514  -23.9365  -41.9725 H         1 UNK         0.0903 
     65 H65        16.2834  -26.0367  -42.5823 H         1 UNK         0.3096 
     66 H66        16.0530  -25.8550  -45.4448 H         1 UNK         0.1121 
     67 H67        17.9786  -27.5282  -43.7380 H         1 UNK         0.0849 
     68 H68        17.6894  -27.7442  -45.4483 H         1 UNK         0.0849 
     69 H69        15.9281  -30.9724  -44.2174 H         1 UNK         0.0865 
     70 H70        16.6639  -30.2724  -45.6375 H         1 UNK         0.0865 
     71 H71        17.1783  -30.4409  -41.9089 H         1 UNK         0.1346 
     72 H72        21.4535  -30.5560  -42.2314 H         1 UNK         0.1412 
     73 H73        19.0382  -30.2777  -45.7657 H         1 UNK         0.1426 
     74 H74        22.5243  -30.5662  -44.3735 H         1 UNK         0.0716 
     75 H75        21.5774  -31.2295  -45.6841 H         1 UNK         0.0716 
     76 H76        22.9574  -27.9949  -43.9827 H         1 UNK         0.0695 
     77 H77        21.2338  -27.7873  -43.8054 H         1 UNK         0.0695 
     78 H78        23.0332  -26.1281  -45.6575 H         1 UNK         0.0983 
     79 H79        20.2085  -26.3878  -45.6811 H         1 UNK         0.3095 
     80 H80        19.2574  -23.1776  -46.6062 H         1 UNK         0.0454 
     81 H81        18.4916  -24.0374  -48.8006 H         1 UNK         0.0851 
     82 H82        19.5878  -25.4149  -48.6773 H         1 UNK         0.0851 
     83 H83        20.2266  -23.7852  -48.8324 H         1 UNK         0.0851 
     84 H84        17.7714  -25.5127  -46.9413 H         1 UNK         0.2976 
     85 H85        20.5651  -24.8941  -43.4856 H         1 UNK         0.3116 
     86 H86        20.4647  -23.7258  -41.6547 H         1 UNK         0.0646 
     87 H87        22.0625  -22.1370  -42.7062 H         1 UNK         0.0847 
     88 H88        22.2704  -22.1902  -40.9628 H         1 UNK         0.0847 
     89 H89        23.4236  -23.0083  -42.0021 H         1 UNK         0.0847 
     90 H90        23.3933  -25.7212  -41.6164 H         1 UNK         0.3040 
     91 H91        22.5616  -27.0038  -39.0898 H         1 UNK         0.1015 
     92 H92        24.1262  -25.2799  -38.2781 H         1 UNK         0.0786 
     93 H93        25.3254  -25.7048  -39.4887 H         1 UNK         0.0786 
     94 H94        24.9233  -26.8382  -38.1948 H         1 UNK         0.0786 
     95 H95        25.7277  -27.5105  -40.2995 H         1 UNK         0.3172 
     96 H96        26.8330  -29.0275  -41.4181 H         1 UNK         0.0595 
     97 H97        25.4470  -28.3372  -43.3928 H         1 UNK         0.0839 
     98 H98        24.3094  -29.6378  -43.0344 H         1 UNK         0.0839 
     99 H99        25.9610  -30.0145  -43.4873 H         1 UNK         0.0839 
    100 H100       23.7768  -30.2464  -40.2116 H         1 UNK         0.2998 
    101 H101       23.1555  -32.0006  -39.0245 H         1 UNK         0.0822 
    102 H102       25.1974  -31.5690  -37.6344 H         1 UNK         0.0787 
    103 H103       24.7365  -33.2619  -37.6387 H         1 UNK         0.0787 
    104 H104       26.0989  -32.7299  -38.6096 H         1 UNK         0.0787 
    105 H105       23.8416  -32.2842  -42.0132 H         1 UNK         0.3055 
    106 H106       24.2328  -35.0660  -42.5427 H         1 UNK         0.1106 
    107 H107       24.5087  -33.2472  -44.2584 H         1 UNK         0.0828 
    108 H108       23.4015  -34.4952  -44.8056 H         1 UNK         0.0828 
    109 H109       22.7658  -32.9650  -44.2285 H         1 UNK         0.0828 
    110 H110       21.4907  -33.2933  -41.4443 H         1 UNK         0.2931 
    111 H111       19.4048  -35.1986  -41.8873 H         1 UNK         0.0412 
    112 H112       22.1366  -35.4256  -39.6929 H         1 UNK         0.3472 
    113 H113       21.3871  -36.6186  -38.6613 H         1 UNK         0.3472 
    114 H114       18.6391  -33.0265  -41.5360 H         1 UNK         0.0970 
    115 H115       18.2626  -33.7744  -40.0241 H         1 UNK         0.0970 
    116 H116       20.0708  -29.7989  -40.0364 H         1 UNK         0.0612 
    117 H117       18.4482  -30.4309  -39.9335 H         1 UNK         0.0612 
@<TRIPOS>BOND
     1    1    2 1    
     2    1   62 1    
     3    1   63 1    
     4    1   64 1    
     5    2    3 2    
     6    2    4 am   BACKBONE|DICT|INTERRES
     7    4    5 1    
     8    4   65 1    
     9    5    6 1    
    10    5   25 1    
    11    5   66 1    
    12    6    7 1    
    13    6   67 1    
    14    6   68 1    
    15    7    8 1    
    16    8    9 1    
    17    8   69 1    
    18    8   70 1    
    19    9   10 ar   
    20    9   14 ar   
    21   10   11 ar   
    22   10   71 1    
    23   11   12 ar   
    24   11   61 1    
    25   12   13 ar   
    26   12   72 1    
    27   13   14 ar   
    28   13   15 1    
    29   14   73 1    
    30   15   16 1    
    31   15   74 1    
    32   15   75 1    
    33   16   17 1    
    34   17   18 1    
    35   17   76 1    
    36   17   77 1    
    37   18   19 1    
    38   18   27 1    
    39   18   78 1    
    40   19   20 am   BACKBONE|DICT|INTERRES
    41   19   79 1    
    42   20   21 2    
    43   20   22 1    
    44   22   23 1    
    45   22   24 1    
    46   22   80 1    
    47   23   81 1    
    48   23   82 1    
    49   23   83 1    
    50   24   25 am   BACKBONE|DICT|INTERRES
    51   24   84 1    
    52   25   26 2    
    53   27   28 2    
    54   27   29 am   BACKBONE|DICT|INTERRES
    55   29   30 1    
    56   29   85 1    
    57   30   31 1    
    58   30   32 1    
    59   30   86 1    
    60   31   87 1    
    61   31   88 1    
    62   31   89 1    
    63   32   33 2    
    64   32   34 am   BACKBONE|DICT|INTERRES
    65   34   35 1    
    66   34   90 1    
    67   35   36 1    
    68   35   37 1    
    69   35   91 1    
    70   36   92 1    
    71   36   93 1    
    72   36   94 1    
    73   37   38 2    
    74   37   39 am   BACKBONE|DICT|INTERRES
    75   39   40 1    
    76   39   95 1    
    77   40   41 1    
    78   40   42 1    
    79   40   96 1    
    80   41   97 1    
    81   41   98 1    
    82   41   99 1    
    83   42   43 2    
    84   42   44 am   BACKBONE|DICT|INTERRES
    85   44   45 1    
    86   44  100 1    
    87   45   46 1    
    88   45   47 1    
    89   45  101 1    
    90   46  102 1    
    91   46  103 1    
    92   46  104 1    
    93   47   48 2    
    94   47   49 am   BACKBONE|DICT|INTERRES
    95   49   50 1    
    96   49  105 1    
    97   50   51 1    
    98   50   52 1    
    99   50  106 1    
   100   51  107 1    
   101   51  108 1    
   102   51  109 1    
   103   52   53 2    
   104   52   54 am   BACKBONE|DICT|INTERRES
   105   54   55 1    
   106   54  110 1    
   107   55   56 1    
   108   55   59 1    
   109   55  111 1    
   110   56   57 am   BACKBONE|DICT|INTERRES
   111   56   58 2    
   112   57  112 1    
   113   57  113 1    
   114   59   60 1    
   115   59  114 1    
   116   59  115 1    
   117   60   61 1    
   118   61  116 1    
   119   61  117 1    
@<TRIPOS>SUBSTRUCTURE
     1 UNK         1 GROUP             0       ****    0 ROOT    
