@<TRIPOS>MOLECULE
3R8
117   119    1
SMALL
USER_CHARGES


@<TRIPOS>ATOM
      1 CA         17.6069  -22.8519  -42.7009 C.3       0 UNK        -0.2013 
      2 C          16.9103  -24.1206  -42.2133 C.2       0 UNK         0.4866 
      3 O          16.2645  -24.0850  -41.1676 O.2       0 UNK        -0.5176 
      4 N          16.9867  -25.2540  -42.9259 N.am      1 UNK        -0.4884 
      5 CA         17.7591  -25.4988  -44.1510 C.3       1 UNK         0.0853 
      6 C6         17.4354  -26.8926  -44.7431 C.3       10 UNK        -0.0849 
      7 S7         15.7909  -26.9559  -45.5307 S.3       10 UNK        -0.2776 
      8 C8         15.1828  -28.6218  -45.0790 C.3       10 UNK         0.0316 
      9 C9         16.2179  -29.7368  -45.2291 C.ar      10 UNK        -0.0863 
     10 C10        16.3480  -30.6905  -44.2130 C.ar      10 UNK        -0.1009 
     11 C11        17.3201  -31.6905  -44.2972 C.ar      10 UNK        -0.0712 
     12 C12        18.1569  -31.7462  -45.4119 C.ar      10 UNK        -0.0894 
     13 C13        18.0636  -30.7805  -46.4163 C.ar      10 UNK        -0.0745 
     14 C14        17.0681  -29.8015  -46.3417 C.ar      10 UNK        -0.0972 
     15 C15        19.1157  -30.7411  -47.5152 C.3       10 UNK         0.0209 
     16 S16        20.4357  -29.5234  -47.1569 S.3       10 UNK        -0.2568 
     17 C17        20.8430  -29.8598  -45.4026 C.3       10 UNK        -0.0983 
     18 CA         21.8249  -28.8500  -44.7574 C.3       3 UNK         0.0876 
     19 N          21.4604  -27.4642  -45.0637 N.am      3 UNK        -0.4424 
     20 C          22.1419  -26.3704  -44.6991 C.2       2 UNK         0.4918 
     21 O          23.2147  -26.3992  -44.1013 O.2       2 UNK        -0.4875 
     22 CA         21.4852  -25.0120  -45.0062 C.3       2 UNK         0.0481 
     23 CB         21.9635  -24.4825  -46.3667 C.3       2 UNK        -0.1831 
     24 N          20.0180  -25.0554  -44.9818 N.am      2 UNK        -0.4498 
     25 C          19.2793  -25.3935  -43.9142 C.2       1 UNK         0.5027 
     26 O          19.7590  -25.6808  -42.8144 O.2       1 UNK        -0.4969 
     27 C          21.8871  -29.0956  -43.2330 C.2       3 UNK         0.5005 
     28 O          22.8430  -29.6964  -42.7412 O.2       3 UNK        -0.5279 
     29 N          20.8712  -28.5998  -42.5099 N.am      4 UNK        -0.4463 
     30 CA         20.7695  -28.6851  -41.0535 C.3       4 UNK         0.0283 
     31 CB         19.3356  -28.3605  -40.6071 C.3       4 UNK        -0.1875 
     32 C          21.7886  -27.7733  -40.3560 C.2       4 UNK         0.4949 
     33 O          22.3798  -28.1896  -39.3612 O.2       4 UNK        -0.5039 
     34 N          22.0262  -26.5773  -40.9168 N.am      5 UNK        -0.4663 
     35 CA         23.0702  -25.6463  -40.4683 C.3       5 UNK         0.0242 
     36 CB         22.9217  -24.3060  -41.2047 C.3       5 UNK        -0.1982 
     37 C          24.4929  -26.2144  -40.6395 C.2       5 UNK         0.5017 
     38 O          25.3420  -25.9932  -39.7764 O.2       5 UNK        -0.5012 
     39 N          24.7075  -26.9787  -41.7197 N.am      6 UNK        -0.4439 
     40 CA         25.9186  -27.7579  -41.9964 C.3       6 UNK         0.0297 
     41 CB         25.9826  -28.0591  -43.5038 C.3       6 UNK        -0.2006 
     42 C          26.0250  -29.0614  -41.1754 C.2       6 UNK         0.4892 
     43 O          27.0253  -29.7666  -41.3145 O.2       6 UNK        -0.5089 
     44 N          25.0144  -29.3575  -40.3438 N.am      7 UNK        -0.4243 
     45 CA         24.8972  -30.5058  -39.4410 C.3       7 UNK         0.0196 
     46 CB         26.0263  -30.5095  -38.3874 C.3       7 UNK        -0.2007 
     47 C          24.7349  -31.8584  -40.1602 C.2       7 UNK         0.5020 
     48 O          25.1270  -32.8868  -39.6067 O.2       7 UNK        -0.5147 
     49 N          24.1181  -31.8610  -41.3521 N.am      8 UNK        -0.4734 
     50 CA         23.7468  -33.0898  -42.0674 C.3       8 UNK         0.0238 
     51 CB         23.5004  -32.7738  -43.5516 C.3       8 UNK        -0.1912 
     52 C          22.5113  -33.7758  -41.4547 C.2       8 UNK         0.5038 
     53 O          22.3673  -34.9916  -41.5891 O.2       8 UNK        -0.5046 
     54 N          21.6534  -32.9883  -40.7965 N.am      9 UNK        -0.4200 
     55 CA         20.4148  -33.4215  -40.1337 C.3       9 UNK         0.0839 
     56 C          20.0579  -32.5714  -38.8798 C.2       9 UNK         0.5513 
     57 N          20.9706  -31.7698  -38.3418 N.am      9 UNK        -0.7519 
     58 O          18.9447  -32.6536  -38.3674 O.2       9 UNK        -0.4960 
     59 C59        19.2375  -33.5893  -41.1342 C.3       10 UNK        -0.0876 
     60 S60        18.8656  -32.0716  -42.0742 S.3       10 UNK        -0.2414 
     61 C61        17.5320  -32.6681  -43.1559 C.3       10 UNK         0.0169 
     62 H62        18.6688  -22.8820  -42.4584 H         1 UNK         0.0903 
     63 H63        17.4924  -22.7097  -43.7744 H         1 UNK         0.0903 
     64 H64        17.1805  -21.9761  -42.2119 H         1 UNK         0.0903 
     65 H65        16.5023  -26.0638  -42.5679 H         1 UNK         0.3096 
     66 H66        17.4808  -24.7394  -44.8843 H         1 UNK         0.1121 
     67 H67        18.1522  -27.1746  -45.5173 H         1 UNK         0.0849 
     68 H68        17.5130  -27.6597  -43.9697 H         1 UNK         0.0849 
     69 H69        14.3173  -28.8604  -45.6983 H         1 UNK         0.0865 
     70 H70        14.8196  -28.5778  -44.0510 H         1 UNK         0.0865 
     71 H71        15.7142  -30.6389  -43.3381 H         1 UNK         0.1346 
     72 H72        18.9369  -32.4943  -45.4550 H         1 UNK         0.1412 
     73 H73        16.9996  -29.0517  -47.1180 H         1 UNK         0.1426 
     74 H74        18.6473  -30.4911  -48.4682 H         1 UNK         0.0716 
     75 H75        19.5676  -31.7257  -47.6453 H         1 UNK         0.0716 
     76 H76        21.2325  -30.8764  -45.3254 H         1 UNK         0.0695 
     77 H77        19.9109  -29.8418  -44.8377 H         1 UNK         0.0695 
     78 H78        22.8230  -29.0251  -45.1644 H         1 UNK         0.0983 
     79 H79        20.6171  -27.3460  -45.6041 H         1 UNK         0.3095 
     80 H80        21.8050  -24.3073  -44.2369 H         1 UNK         0.0454 
     81 H81        21.6521  -25.1302  -47.1872 H         1 UNK         0.0851 
     82 H82        23.0522  -24.4186  -46.3983 H         1 UNK         0.0851 
     83 H83        21.5780  -23.4818  -46.5621 H         1 UNK         0.0851 
     84 H84        19.5515  -24.8369  -45.8514 H         1 UNK         0.2976 
     85 H85        20.1557  -28.0654  -42.9804 H         1 UNK         0.3116 
     86 H86        20.9858  -29.7146  -40.7602 H         1 UNK         0.0646 
     87 H87        18.6139  -29.0316  -41.0732 H         1 UNK         0.0847 
     88 H88        19.0512  -27.3369  -40.8527 H         1 UNK         0.0847 
     89 H89        19.2322  -28.4764  -39.5275 H         1 UNK         0.0847 
     90 H90        21.4577  -26.2940  -41.7077 H         1 UNK         0.3040 
     91 H91        22.9147  -25.4680  -39.4019 H         1 UNK         0.1015 
     92 H92        23.6159  -23.5660  -40.8044 H         1 UNK         0.0786 
     93 H93        21.9156  -23.8999  -41.0971 H         1 UNK         0.0786 
     94 H94        23.1336  -24.4036  -42.2689 H         1 UNK         0.0786 
     95 H95        23.9742  -27.0279  -42.4217 H         1 UNK         0.3172 
     96 H96        26.7845  -27.1454  -41.7377 H         1 UNK         0.0595 
     97 H97        25.1485  -28.6835  -43.8249 H         1 UNK         0.0839 
     98 H98        26.9021  -28.5860  -43.7619 H         1 UNK         0.0839 
     99 H99        25.9607  -27.1423  -44.0933 H         1 UNK         0.0839 
    100 H100       24.2284  -28.7189  -40.3170 H         1 UNK         0.2998 
    101 H101       23.9627  -30.3531  -38.9002 H         1 UNK         0.0822 
    102 H102       26.1063  -29.5435  -37.8887 H         1 UNK         0.0787 
    103 H103       25.8383  -31.2557  -37.6145 H         1 UNK         0.0787 
    104 H104       26.9953  -30.7409  -38.8305 H         1 UNK         0.0787 
    105 H105       23.8144  -30.9810  -41.7674 H         1 UNK         0.3055 
    106 H106       24.5805  -33.7931  -42.0046 H         1 UNK         0.1106 
    107 H107       23.3532  -33.6910  -44.1232 H         1 UNK         0.0828 
    108 H108       24.3454  -32.2461  -43.9942 H         1 UNK         0.0828 
    109 H109       22.6095  -32.1619  -43.6914 H         1 UNK         0.0828 
    110 H110       21.8349  -31.9963  -40.7749 H         1 UNK         0.2931 
    111 H111       20.6103  -34.4108  -39.7157 H         1 UNK         0.0412 
    112 H112       20.7218  -31.2312  -37.5267 H         1 UNK         0.3472 
    113 H113       21.9165  -31.7544  -38.6806 H         1 UNK         0.3472 
    114 H114       19.4809  -34.3799  -41.8456 H         1 UNK         0.0970 
    115 H115       18.3339  -33.9235  -40.6211 H         1 UNK         0.0970 
    116 H116       16.6173  -32.7928  -42.5744 H         1 UNK         0.0612 
    117 H117       17.7887  -33.6505  -43.5553 H         1 UNK         0.0612 
@<TRIPOS>BOND
     1    1    2 1    
     2    1   62 1    
     3    1   63 1    
     4    1   64 1    
     5    2    3 2    
     6    2    4 am   BACKBONE|DICT|INTERRES
     7    4    5 1    
     8    4   65 1    
     9    5    6 1    
    10    5   25 1    
    11    5   66 1    
    12    6    7 1    
    13    6   67 1    
    14    6   68 1    
    15    7    8 1    
    16    8    9 1    
    17    8   69 1    
    18    8   70 1    
    19    9   10 ar   
    20    9   14 ar   
    21   10   11 ar   
    22   10   71 1    
    23   11   12 ar   
    24   11   61 1    
    25   12   13 ar   
    26   12   72 1    
    27   13   14 ar   
    28   13   15 1    
    29   14   73 1    
    30   15   16 1    
    31   15   74 1    
    32   15   75 1    
    33   16   17 1    
    34   17   18 1    
    35   17   76 1    
    36   17   77 1    
    37   18   19 1    
    38   18   27 1    
    39   18   78 1    
    40   19   20 am   BACKBONE|DICT|INTERRES
    41   19   79 1    
    42   20   21 2    
    43   20   22 1    
    44   22   23 1    
    45   22   24 1    
    46   22   80 1    
    47   23   81 1    
    48   23   82 1    
    49   23   83 1    
    50   24   25 am   BACKBONE|DICT|INTERRES
    51   24   84 1    
    52   25   26 2    
    53   27   28 2    
    54   27   29 am   BACKBONE|DICT|INTERRES
    55   29   30 1    
    56   29   85 1    
    57   30   31 1    
    58   30   32 1    
    59   30   86 1    
    60   31   87 1    
    61   31   88 1    
    62   31   89 1    
    63   32   33 2    
    64   32   34 am   BACKBONE|DICT|INTERRES
    65   34   35 1    
    66   34   90 1    
    67   35   36 1    
    68   35   37 1    
    69   35   91 1    
    70   36   92 1    
    71   36   93 1    
    72   36   94 1    
    73   37   38 2    
    74   37   39 am   BACKBONE|DICT|INTERRES
    75   39   40 1    
    76   39   95 1    
    77   40   41 1    
    78   40   42 1    
    79   40   96 1    
    80   41   97 1    
    81   41   98 1    
    82   41   99 1    
    83   42   43 2    
    84   42   44 am   BACKBONE|DICT|INTERRES
    85   44   45 1    
    86   44  100 1    
    87   45   46 1    
    88   45   47 1    
    89   45  101 1    
    90   46  102 1    
    91   46  103 1    
    92   46  104 1    
    93   47   48 2    
    94   47   49 am   BACKBONE|DICT|INTERRES
    95   49   50 1    
    96   49  105 1    
    97   50   51 1    
    98   50   52 1    
    99   50  106 1    
   100   51  107 1    
   101   51  108 1    
   102   51  109 1    
   103   52   53 2    
   104   52   54 am   BACKBONE|DICT|INTERRES
   105   54   55 1    
   106   54  110 1    
   107   55   56 1    
   108   55   59 1    
   109   55  111 1    
   110   56   57 am   BACKBONE|DICT|INTERRES
   111   56   58 2    
   112   57  112 1    
   113   57  113 1    
   114   59   60 1    
   115   59  114 1    
   116   59  115 1    
   117   60   61 1    
   118   61  116 1    
   119   61  117 1    
@<TRIPOS>SUBSTRUCTURE
     1 UNK         1 GROUP             0       ****    0 ROOT    
