@<TRIPOS>MOLECULE
3R8
117   119    1
SMALL
USER_CHARGES


@<TRIPOS>ATOM
      1 CA         13.1529  -26.0308  -45.5892 C.3       0 UNK        -0.2013 
      2 C          14.5717  -26.4785  -45.2728 C.2       0 UNK         0.4866 
      3 O          15.2814  -25.7935  -44.5343 O.2       0 UNK        -0.5176 
      4 N          14.9948  -27.6243  -45.8221 N.am      1 UNK        -0.4884 
      5 CA         16.3196  -28.2165  -45.6107 C.3       1 UNK         0.0853 
      6 C6         16.7525  -29.1155  -46.7985 C.3       10 UNK        -0.0849 
      7 S7         17.2684  -28.0871  -48.2183 S.3       10 UNK        -0.2776 
      8 C8         19.0937  -28.2232  -48.1837 C.3       10 UNK         0.0316 
      9 C9         19.6845  -28.0706  -46.7852 C.ar      10 UNK        -0.0863 
     10 C10        20.3692  -29.1381  -46.1970 C.ar      10 UNK        -0.1009 
     11 C11        20.8641  -29.0334  -44.8952 C.ar      10 UNK        -0.0712 
     12 C12        20.6643  -27.8514  -44.1800 C.ar      10 UNK        -0.0894 
     13 C13        19.9938  -26.7646  -44.7553 C.ar      10 UNK        -0.0745 
     14 C14        19.5282  -26.8789  -46.0697 C.ar      10 UNK        -0.0972 
     15 C15        19.7203  -25.4701  -43.9871 C.3       10 UNK         0.0209 
     16 S16        20.8802  -25.1308  -42.6170 S.3       10 UNK        -0.2568 
     17 C17        19.8102  -25.2855  -41.1395 C.3       10 UNK        -0.0983 
     18 CA         19.6867  -26.6993  -40.4935 C.3       3 UNK         0.0876 
     19 N          18.7249  -27.5605  -41.1747 N.am      3 UNK        -0.4424 
     20 C          17.3976  -27.4967  -41.0464 C.2       2 UNK         0.4918 
     21 O          16.8099  -26.6216  -40.4088 O.2       2 UNK        -0.4875 
     22 CA         16.5970  -28.5669  -41.7970 C.3       2 UNK         0.0481 
     23 CB         15.2052  -28.8178  -41.1873 C.3       2 UNK        -0.1831 
     24 N          16.4663  -28.1363  -43.1813 N.am      2 UNK        -0.4498 
     25 C          16.3830  -28.9349  -44.2499 C.2       1 UNK         0.5027 
     26 O          16.3349  -30.1646  -44.1906 O.2       1 UNK        -0.4969 
     27 C          21.0093  -27.4771  -40.3455 C.2       3 UNK         0.5005 
     28 O          21.0786  -28.6445  -40.7464 O.2       3 UNK        -0.5279 
     29 N          22.0300  -26.8203  -39.7769 N.am      4 UNK        -0.4463 
     30 CA         23.3784  -27.3562  -39.5894 C.3       4 UNK         0.0283 
     31 CB         24.2169  -26.3800  -38.7438 C.3       4 UNK        -0.1875 
     32 C          24.0581  -27.7100  -40.9234 C.2       4 UNK         0.4949 
     33 O          24.1327  -28.8902  -41.2618 O.2       4 UNK        -0.5039 
     34 N          24.5704  -26.6982  -41.6412 N.am      5 UNK        -0.4663 
     35 CA         25.2345  -26.7940  -42.9558 C.3       5 UNK         0.0242 
     36 CB         24.1845  -27.0877  -44.0481 C.3       5 UNK        -0.1982 
     37 C          26.4199  -27.7879  -43.0177 C.2       5 UNK         0.5017 
     38 O          26.7392  -28.2890  -44.0967 O.2       5 UNK        -0.5012 
     39 N          27.0251  -28.0755  -41.8538 N.am      6 UNK        -0.4439 
     40 CA         28.0366  -29.1094  -41.5944 C.3       6 UNK         0.0297 
     41 CB         29.3578  -28.7835  -42.3240 C.3       6 UNK        -0.2006 
     42 C          27.5499  -30.5540  -41.8616 C.2       6 UNK         0.4892 
     43 O          28.3832  -31.4358  -42.0791 O.2       6 UNK        -0.5089 
     44 N          26.2282  -30.7798  -41.8313 N.am      7 UNK        -0.4243 
     45 CA         25.5856  -32.0709  -42.0976 C.3       7 UNK         0.0196 
     46 CB         24.9185  -32.0181  -43.4805 C.3       7 UNK        -0.2007 
     47 C          24.5606  -32.4647  -41.0205 C.2       7 UNK         0.5020 
     48 O          24.3635  -33.6614  -40.8097 O.2       7 UNK        -0.5147 
     49 N          23.9414  -31.4741  -40.3591 N.am      8 UNK        -0.4734 
     50 CA         22.9026  -31.5898  -39.3277 C.3       8 UNK         0.0238 
     51 CB         23.4467  -32.2859  -38.0614 C.3       8 UNK        -0.1912 
     52 C          21.6205  -32.2382  -39.8781 C.2       8 UNK         0.5038 
     53 O          21.2363  -33.3264  -39.4430 O.2       8 UNK        -0.5046 
     54 N          20.9951  -31.5554  -40.8437 N.am      9 UNK        -0.4200 
     55 CA         19.7119  -31.9467  -41.4404 C.3       9 UNK         0.0839 
     56 C          18.5309  -31.7288  -40.4567 C.2       9 UNK         0.5513 
     57 N          17.5175  -32.5817  -40.5085 N.am      9 UNK        -0.7519 
     58 O          18.5012  -30.7719  -39.6860 O.2       9 UNK        -0.4960 
     59 C59        19.4561  -31.2091  -42.7789 C.3       10 UNK        -0.0876 
     60 S60        20.6412  -31.6926  -44.0778 S.3       10 UNK        -0.2414 
     61 C61        21.6410  -30.1837  -44.2693 C.3       10 UNK         0.0169 
     62 H62        12.5707  -25.9544  -44.6713 H         1 UNK         0.0903 
     63 H63        13.1671  -25.0513  -46.0665 H         1 UNK         0.0903 
     64 H64        12.6446  -26.7261  -46.2571 H         1 UNK         0.0903 
     65 H65        14.3674  -28.1553  -46.4098 H         1 UNK         0.3096 
     66 H66        17.0364  -27.3994  -45.5393 H         1 UNK         0.1121 
     67 H67        17.5752  -29.7779  -46.5233 H         1 UNK         0.0849 
     68 H68        15.9379  -29.7732  -47.1061 H         1 UNK         0.0849 
     69 H69        19.3763  -29.1840  -48.6167 H         1 UNK         0.0865 
     70 H70        19.5188  -27.4601  -48.8371 H         1 UNK         0.0865 
     71 H71        20.5100  -30.0600  -46.7448 H         1 UNK         0.1346 
     72 H72        21.0512  -27.7828  -43.1762 H         1 UNK         0.1412 
     73 H73        18.9994  -26.0528  -46.5264 H         1 UNK         0.1426 
     74 H74        18.6957  -25.4992  -43.6149 H         1 UNK         0.0716 
     75 H75        19.7711  -24.6246  -44.6750 H         1 UNK         0.0716 
     76 H76        20.2181  -24.5984  -40.3967 H         1 UNK         0.0695 
     77 H77        18.8225  -24.8822  -41.3667 H         1 UNK         0.0695 
     78 H78        19.3198  -26.5643  -39.4733 H         1 UNK         0.0983 
     79 H79        19.1538  -28.3400  -41.6539 H         1 UNK         0.3095 
     80 H80        17.1614  -29.4987  -41.7585 H         1 UNK         0.0454 
     81 H81        15.2873  -29.0987  -40.1366 H         1 UNK         0.0851 
     82 H82        14.5725  -27.9312  -41.2428 H         1 UNK         0.0851 
     83 H83        14.6893  -29.6295  -41.7002 H         1 UNK         0.0851 
     84 H84        16.4205  -27.1333  -43.3329 H         1 UNK         0.2976 
     85 H85        21.8862  -25.8602  -39.4992 H         1 UNK         0.3116 
     86 H86        23.2876  -28.2828  -39.0202 H         1 UNK         0.0646 
     87 H87        23.8023  -26.2761  -37.7408 H         1 UNK         0.0847 
     88 H88        24.2662  -25.3835  -39.1836 H         1 UNK         0.0847 
     89 H89        25.2403  -26.7398  -38.6281 H         1 UNK         0.0847 
     90 H90        24.4677  -25.7619  -41.2748 H         1 UNK         0.3040 
     91 H91        25.6600  -25.8103  -43.1608 H         1 UNK         0.1015 
     92 H92        23.7614  -28.0861  -43.9375 H         1 UNK         0.0786 
     93 H93        24.6212  -27.0281  -45.0457 H         1 UNK         0.0786 
     94 H94        23.3643  -26.3709  -44.0152 H         1 UNK         0.0786 
     95 H95        26.6783  -27.5949  -41.0356 H         1 UNK         0.3172 
     96 H96        28.2381  -29.0626  -40.5233 H         1 UNK         0.0595 
     97 H97        30.1574  -29.4534  -42.0056 H         1 UNK         0.0839 
     98 H98        29.2604  -28.8882  -43.4049 H         1 UNK         0.0839 
     99 H99        29.6884  -27.7666  -42.1133 H         1 UNK         0.0839 
    100 H100       25.6066  -29.9960  -41.6525 H         1 UNK         0.2998 
    101 H101       26.3342  -32.8659  -42.1126 H         1 UNK         0.0822 
    102 H102       24.3798  -32.9415  -43.6983 H         1 UNK         0.0787 
    103 H103       24.2056  -31.1973  -43.5388 H         1 UNK         0.0787 
    104 H104       25.6567  -31.8752  -44.2699 H         1 UNK         0.0787 
    105 H105       24.1060  -30.5196  -40.6767 H         1 UNK         0.3055 
    106 H106       22.6291  -30.5722  -39.0452 H         1 UNK         0.1106 
    107 H107       24.3267  -31.7723  -37.6745 H         1 UNK         0.0828 
    108 H108       22.6974  -32.2879  -37.2689 H         1 UNK         0.0828 
    109 H109       23.7200  -33.3246  -38.2486 H         1 UNK         0.0828 
    110 H110       21.3143  -30.6165  -41.0592 H         1 UNK         0.2931 
    111 H111       19.7664  -33.0161  -41.6564 H         1 UNK         0.0412 
    112 H112       17.5250  -33.3638  -41.1450 H         1 UNK         0.3472 
    113 H113       16.7340  -32.4496  -39.8883 H         1 UNK         0.3472 
    114 H114       18.4604  -31.4459  -43.1581 H         1 UNK         0.0970 
    115 H115       19.4747  -30.1287  -42.6375 H         1 UNK         0.0970 
    116 H116       22.4912  -30.4107  -44.9129 H         1 UNK         0.0612 
    117 H117       22.0525  -29.9016  -43.2983 H         1 UNK         0.0612 
@<TRIPOS>BOND
     1    1    2 1    
     2    1   62 1    
     3    1   63 1    
     4    1   64 1    
     5    2    3 2    
     6    2    4 am   BACKBONE|DICT|INTERRES
     7    4    5 1    
     8    4   65 1    
     9    5    6 1    
    10    5   25 1    
    11    5   66 1    
    12    6    7 1    
    13    6   67 1    
    14    6   68 1    
    15    7    8 1    
    16    8    9 1    
    17    8   69 1    
    18    8   70 1    
    19    9   10 ar   
    20    9   14 ar   
    21   10   11 ar   
    22   10   71 1    
    23   11   12 ar   
    24   11   61 1    
    25   12   13 ar   
    26   12   72 1    
    27   13   14 ar   
    28   13   15 1    
    29   14   73 1    
    30   15   16 1    
    31   15   74 1    
    32   15   75 1    
    33   16   17 1    
    34   17   18 1    
    35   17   76 1    
    36   17   77 1    
    37   18   19 1    
    38   18   27 1    
    39   18   78 1    
    40   19   20 am   BACKBONE|DICT|INTERRES
    41   19   79 1    
    42   20   21 2    
    43   20   22 1    
    44   22   23 1    
    45   22   24 1    
    46   22   80 1    
    47   23   81 1    
    48   23   82 1    
    49   23   83 1    
    50   24   25 am   BACKBONE|DICT|INTERRES
    51   24   84 1    
    52   25   26 2    
    53   27   28 2    
    54   27   29 am   BACKBONE|DICT|INTERRES
    55   29   30 1    
    56   29   85 1    
    57   30   31 1    
    58   30   32 1    
    59   30   86 1    
    60   31   87 1    
    61   31   88 1    
    62   31   89 1    
    63   32   33 2    
    64   32   34 am   BACKBONE|DICT|INTERRES
    65   34   35 1    
    66   34   90 1    
    67   35   36 1    
    68   35   37 1    
    69   35   91 1    
    70   36   92 1    
    71   36   93 1    
    72   36   94 1    
    73   37   38 2    
    74   37   39 am   BACKBONE|DICT|INTERRES
    75   39   40 1    
    76   39   95 1    
    77   40   41 1    
    78   40   42 1    
    79   40   96 1    
    80   41   97 1    
    81   41   98 1    
    82   41   99 1    
    83   42   43 2    
    84   42   44 am   BACKBONE|DICT|INTERRES
    85   44   45 1    
    86   44  100 1    
    87   45   46 1    
    88   45   47 1    
    89   45  101 1    
    90   46  102 1    
    91   46  103 1    
    92   46  104 1    
    93   47   48 2    
    94   47   49 am   BACKBONE|DICT|INTERRES
    95   49   50 1    
    96   49  105 1    
    97   50   51 1    
    98   50   52 1    
    99   50  106 1    
   100   51  107 1    
   101   51  108 1    
   102   51  109 1    
   103   52   53 2    
   104   52   54 am   BACKBONE|DICT|INTERRES
   105   54   55 1    
   106   54  110 1    
   107   55   56 1    
   108   55   59 1    
   109   55  111 1    
   110   56   57 am   BACKBONE|DICT|INTERRES
   111   56   58 2    
   112   57  112 1    
   113   57  113 1    
   114   59   60 1    
   115   59  114 1    
   116   59  115 1    
   117   60   61 1    
   118   61  116 1    
   119   61  117 1    
@<TRIPOS>SUBSTRUCTURE
     1 UNK         1 GROUP             0       ****    0 ROOT    
