@<TRIPOS>MOLECULE
3R8
117   119    1
SMALL
USER_CHARGES


@<TRIPOS>ATOM
      1 CA         17.2640  -22.6781  -42.1390 C.3       0 UNK        -0.2013 
      2 C          16.7607  -23.9632  -42.7780 C.2       0 UNK         0.4866 
      3 O          15.8186  -23.9299  -43.5702 O.2       0 UNK        -0.5176 
      4 N          17.3912  -25.0989  -42.4563 N.am      1 UNK        -0.4884 
      5 CA         17.0866  -26.4504  -42.9499 C.3       1 UNK         0.0853 
      6 C6         17.6113  -27.5283  -41.9627 C.3       10 UNK        -0.0849 
      7 S7         19.3745  -27.3289  -41.5119 S.3       10 UNK        -0.2776 
      8 C8         19.8430  -29.0582  -41.1784 C.3       10 UNK         0.0316 
      9 C9         20.0464  -29.8763  -42.4483 C.ar      10 UNK        -0.0863 
     10 C10        19.3384  -31.0663  -42.6334 C.ar      10 UNK        -0.1009 
     11 C11        19.5787  -31.8676  -43.7519 C.ar      10 UNK        -0.0712 
     12 C12        20.4956  -31.4461  -44.7191 C.ar      10 UNK        -0.0894 
     13 C13        21.2159  -30.2606  -44.5483 C.ar      10 UNK        -0.0745 
     14 C14        20.9927  -29.4872  -43.4027 C.ar      10 UNK        -0.0972 
     15 C15        22.2905  -29.8788  -45.5605 C.3       10 UNK         0.0209 
     16 S16        21.7233  -28.6316  -46.7620 S.3       10 UNK        -0.2568 
     17 C17        22.2169  -27.1064  -45.8970 C.3       10 UNK        -0.0983 
     18 CA         21.4080  -25.8412  -46.2797 C.3       3 UNK         0.0876 
     19 N          19.9620  -26.0694  -46.3143 N.am      3 UNK        -0.4424 
     20 C          19.0694  -25.2545  -46.8883 C.2       2 UNK         0.4918 
     21 O          19.3730  -24.2384  -47.5138 O.2       2 UNK        -0.4875 
     22 CA         17.5831  -25.6137  -46.7144 C.3       2 UNK         0.0481 
     23 CB         17.1936  -26.8470  -47.5533 C.3       2 UNK        -0.1831 
     24 N          17.1846  -25.7500  -45.3066 N.am      2 UNK        -0.4498 
     25 C          17.5588  -26.6714  -44.4078 C.2       1 UNK         0.5027 
     26 O          18.2784  -27.6297  -44.6901 O.2       1 UNK        -0.4969 
     27 C          21.7696  -24.7192  -45.2881 C.2       3 UNK         0.5005 
     28 O          22.6688  -23.9263  -45.5705 O.2       3 UNK        -0.5279 
     29 N          21.0873  -24.7237  -44.1283 N.am      4 UNK        -0.4463 
     30 CA         21.3903  -23.9522  -42.9160 C.3       4 UNK         0.0283 
     31 CB         21.1606  -22.4435  -43.1442 C.3       4 UNK        -0.1875 
     32 C          22.7974  -24.2858  -42.3758 C.2       4 UNK         0.4949 
     33 O          23.5968  -23.3850  -42.1155 O.2       4 UNK        -0.5039 
     34 N          23.0763  -25.5888  -42.2493 N.am      5 UNK        -0.4663 
     35 CA         24.3501  -26.1565  -41.8132 C.3       5 UNK         0.0242 
     36 CB         25.1719  -26.5587  -43.0503 C.3       5 UNK        -0.1982 
     37 C          24.0671  -27.3758  -40.9291 C.2       5 UNK         0.5017 
     38 O          23.0158  -28.0003  -41.0788 O.2       5 UNK        -0.5012 
     39 N          25.0061  -27.7066  -40.0351 N.am      6 UNK        -0.4439 
     40 CA         24.8877  -28.7825  -39.0459 C.3       6 UNK         0.0297 
     41 CB         25.8377  -28.4808  -37.8708 C.3       6 UNK        -0.2006 
     42 C          25.1208  -30.1841  -39.6477 C.2       6 UNK         0.4892 
     43 O          26.0900  -30.8562  -39.2876 O.2       6 UNK        -0.5089 
     44 N          24.2297  -30.6021  -40.5541 N.am      7 UNK        -0.4243 
     45 CA         24.1742  -31.9602  -41.1006 C.3       7 UNK         0.0196 
     46 CB         23.3588  -31.9455  -42.4008 C.3       7 UNK        -0.2007 
     47 C          23.5436  -32.9396  -40.0967 C.2       7 UNK         0.5020 
     48 O          22.7912  -32.5220  -39.2129 O.2       7 UNK        -0.5147 
     49 N          23.8216  -34.2376  -40.2800 N.am      8 UNK        -0.4734 
     50 CA         23.3309  -35.3294  -39.4269 C.3       8 UNK         0.0238 
     51 CB         23.9933  -36.6485  -39.8567 C.3       8 UNK        -0.1912 
     52 C          21.7980  -35.4796  -39.4047 C.2       8 UNK         0.5038 
     53 O          21.2508  -35.8894  -38.3801 O.2       8 UNK        -0.5046 
     54 N          21.1411  -35.1330  -40.5184 N.am      9 UNK        -0.4200 
     55 CA         19.6785  -35.0469  -40.6470 C.3       9 UNK         0.0839 
     56 C          19.0605  -33.7210  -40.1127 C.2       9 UNK         0.5513 
     57 N          19.8306  -32.7817  -39.5747 N.am      9 UNK        -0.7519 
     58 O          17.8458  -33.5479  -40.1669 O.2       9 UNK        -0.4960 
     59 C59        19.1939  -35.4143  -42.0781 C.3       10 UNK        -0.0876 
     60 S60        20.0630  -34.5473  -43.4319 S.3       10 UNK        -0.2414 
     61 C61        18.9002  -33.2198  -43.8878 C.3       10 UNK         0.0169 
     62 H62        18.1322  -22.8507  -41.5032 H         1 UNK         0.0903 
     63 H63        17.5460  -21.9614  -42.9098 H         1 UNK         0.0903 
     64 H64        16.4795  -22.2310  -41.5290 H         1 UNK         0.0903 
     65 H65        18.1639  -25.0667  -41.8055 H         1 UNK         0.3096 
     66 H66        15.9995  -26.5542  -42.9811 H         1 UNK         0.1121 
     67 H67        17.0317  -27.4826  -41.0395 H         1 UNK         0.0849 
     68 H68        17.4404  -28.5306  -42.3610 H         1 UNK         0.0849 
     69 H69        20.7654  -29.0750  -40.5991 H         1 UNK         0.0865 
     70 H70        19.0848  -29.5119  -40.5384 H         1 UNK         0.0865 
     71 H71        18.6292  -31.3918  -41.8855 H         1 UNK         0.1346 
     72 H72        20.6848  -32.0715  -45.5808 H         1 UNK         0.1412 
     73 H73        21.5695  -28.5932  -43.2264 H         1 UNK         0.1426 
     74 H74        22.6091  -30.7637  -46.1134 H         1 UNK         0.0716 
     75 H75        23.1811  -29.5209  -45.0414 H         1 UNK         0.0716 
     76 H76        22.1451  -27.2877  -44.8263 H         1 UNK         0.0695 
     77 H77        23.2779  -26.9412  -46.0949 H         1 UNK         0.0695 
     78 H78        21.7216  -25.5241  -47.2769 H         1 UNK         0.0983 
     79 H79        19.6090  -26.8857  -45.8201 H         1 UNK         0.3095 
     80 H80        17.0073  -24.7694  -47.0968 H         1 UNK         0.0454 
     81 H81        17.4032  -26.6767  -48.6100 H         1 UNK         0.0851 
     82 H82        17.7434  -27.7410  -47.2581 H         1 UNK         0.0851 
     83 H83        16.1294  -27.0649  -47.4657 H         1 UNK         0.0851 
     84 H84        16.6141  -24.9901  -44.9422 H         1 UNK         0.2976 
     85 H85        20.3706  -25.4280  -44.0249 H         1 UNK         0.3116 
     86 H86        20.6820  -24.2807  -42.1539 H         1 UNK         0.0646 
     87 H87        21.2711  -21.8884  -42.2120 H         1 UNK         0.0847 
     88 H88        20.1577  -22.2473  -43.5224 H         1 UNK         0.0847 
     89 H89        21.8738  -22.0256  -43.8552 H         1 UNK         0.0847 
     90 H90        22.3400  -26.2706  -42.3795 H         1 UNK         0.3040 
     91 H91        24.9043  -25.4218  -41.2244 H         1 UNK         0.1015 
     92 H92        25.3640  -25.6995  -43.6934 H         1 UNK         0.0786 
     93 H93        24.6577  -27.3135  -43.6471 H         1 UNK         0.0786 
     94 H94        26.1395  -26.9718  -42.7630 H         1 UNK         0.0786 
     95 H95        25.8644  -27.1743  -40.0144 H         1 UNK         0.3172 
     96 H96        23.8701  -28.7754  -38.6487 H         1 UNK         0.0595 
     97 H97        25.7542  -29.2440  -37.0957 H         1 UNK         0.0839 
     98 H98        25.6023  -27.5239  -37.4045 H         1 UNK         0.0839 
     99 H99        26.8807  -28.4528  -38.1889 H         1 UNK         0.0839 
    100 H100       23.4752  -29.9696  -40.7993 H         1 UNK         0.2998 
    101 H101       25.1912  -32.2888  -41.3256 H         1 UNK         0.0822 
    102 H102       23.7438  -31.2088  -43.1055 H         1 UNK         0.0787 
    103 H103       23.3868  -32.9155  -42.8984 H         1 UNK         0.0787 
    104 H104       22.3111  -31.7144  -42.2073 H         1 UNK         0.0787 
    105 H105       24.4347  -34.4995  -41.0395 H         1 UNK         0.3055 
    106 H106       23.6421  -35.1087  -38.4032 H         1 UNK         0.1106 
    107 H107       23.7445  -36.9099  -40.8860 H         1 UNK         0.0828 
    108 H108       25.0791  -36.5940  -39.7755 H         1 UNK         0.0828 
    109 H109       23.6655  -37.4743  -39.2232 H         1 UNK         0.0828 
    110 H110       21.6694  -34.7940  -41.3088 H         1 UNK         0.2931 
    111 H111       19.2562  -35.8130  -39.9938 H         1 UNK         0.0412 
    112 H112       19.3987  -31.9465  -39.2157 H         1 UNK         0.3472 
    113 H113       20.8356  -32.8934  -39.5027 H         1 UNK         0.3472 
    114 H114       18.1143  -35.2891  -42.1777 H         1 UNK         0.0970 
    115 H115       19.3633  -36.4805  -42.2348 H         1 UNK         0.0970 
    116 H116       18.0023  -33.2591  -43.2697 H         1 UNK         0.0612 
    117 H117       18.5729  -33.3685  -44.9178 H         1 UNK         0.0612 
@<TRIPOS>BOND
     1    1    2 1    
     2    1   62 1    
     3    1   63 1    
     4    1   64 1    
     5    2    3 2    
     6    2    4 am   BACKBONE|DICT|INTERRES
     7    4    5 1    
     8    4   65 1    
     9    5    6 1    
    10    5   25 1    
    11    5   66 1    
    12    6    7 1    
    13    6   67 1    
    14    6   68 1    
    15    7    8 1    
    16    8    9 1    
    17    8   69 1    
    18    8   70 1    
    19    9   10 ar   
    20    9   14 ar   
    21   10   11 ar   
    22   10   71 1    
    23   11   12 ar   
    24   11   61 1    
    25   12   13 ar   
    26   12   72 1    
    27   13   14 ar   
    28   13   15 1    
    29   14   73 1    
    30   15   16 1    
    31   15   74 1    
    32   15   75 1    
    33   16   17 1    
    34   17   18 1    
    35   17   76 1    
    36   17   77 1    
    37   18   19 1    
    38   18   27 1    
    39   18   78 1    
    40   19   20 am   BACKBONE|DICT|INTERRES
    41   19   79 1    
    42   20   21 2    
    43   20   22 1    
    44   22   23 1    
    45   22   24 1    
    46   22   80 1    
    47   23   81 1    
    48   23   82 1    
    49   23   83 1    
    50   24   25 am   BACKBONE|DICT|INTERRES
    51   24   84 1    
    52   25   26 2    
    53   27   28 2    
    54   27   29 am   BACKBONE|DICT|INTERRES
    55   29   30 1    
    56   29   85 1    
    57   30   31 1    
    58   30   32 1    
    59   30   86 1    
    60   31   87 1    
    61   31   88 1    
    62   31   89 1    
    63   32   33 2    
    64   32   34 am   BACKBONE|DICT|INTERRES
    65   34   35 1    
    66   34   90 1    
    67   35   36 1    
    68   35   37 1    
    69   35   91 1    
    70   36   92 1    
    71   36   93 1    
    72   36   94 1    
    73   37   38 2    
    74   37   39 am   BACKBONE|DICT|INTERRES
    75   39   40 1    
    76   39   95 1    
    77   40   41 1    
    78   40   42 1    
    79   40   96 1    
    80   41   97 1    
    81   41   98 1    
    82   41   99 1    
    83   42   43 2    
    84   42   44 am   BACKBONE|DICT|INTERRES
    85   44   45 1    
    86   44  100 1    
    87   45   46 1    
    88   45   47 1    
    89   45  101 1    
    90   46  102 1    
    91   46  103 1    
    92   46  104 1    
    93   47   48 2    
    94   47   49 am   BACKBONE|DICT|INTERRES
    95   49   50 1    
    96   49  105 1    
    97   50   51 1    
    98   50   52 1    
    99   50  106 1    
   100   51  107 1    
   101   51  108 1    
   102   51  109 1    
   103   52   53 2    
   104   52   54 am   BACKBONE|DICT|INTERRES
   105   54   55 1    
   106   54  110 1    
   107   55   56 1    
   108   55   59 1    
   109   55  111 1    
   110   56   57 am   BACKBONE|DICT|INTERRES
   111   56   58 2    
   112   57  112 1    
   113   57  113 1    
   114   59   60 1    
   115   59  114 1    
   116   59  115 1    
   117   60   61 1    
   118   61  116 1    
   119   61  117 1    
@<TRIPOS>SUBSTRUCTURE
     1 UNK         1 GROUP             0       ****    0 ROOT    
