@<TRIPOS>MOLECULE
3R8
117   119    1
SMALL
USER_CHARGES


@<TRIPOS>ATOM
      1 CA         23.3283  -32.1415  -46.7684 C.3       0 UNK        -0.2013 
      2 C          22.0863  -31.5921  -46.0829 C.2       0 UNK         0.4866 
      3 O          21.4216  -32.3245  -45.3513 O.2       0 UNK        -0.5176 
      4 N          21.7757  -30.3111  -46.3154 N.am      1 UNK        -0.4884 
      5 CA         20.6675  -29.5900  -45.6867 C.3       1 UNK         0.0853 
      6 C6         19.4431  -29.4060  -46.6326 C.3       10 UNK        -0.0849 
      7 S7         18.5691  -30.9844  -46.9349 S.3       10 UNK        -0.2776 
      8 C8         17.0141  -30.8069  -45.9830 C.3       10 UNK         0.0316 
      9 C9         17.2210  -30.2611  -44.5735 C.ar      10 UNK        -0.0863 
     10 C10        18.1421  -30.8541  -43.7072 C.ar      10 UNK        -0.1009 
     11 C11        18.4289  -30.2778  -42.4670 C.ar      10 UNK        -0.0712 
     12 C12        17.7242  -29.1400  -42.0587 C.ar      10 UNK        -0.0894 
     13 C13        16.7612  -28.5669  -42.8954 C.ar      10 UNK        -0.0745 
     14 C14        16.5183  -29.1297  -44.1517 C.ar      10 UNK        -0.0972 
     15 C15        15.9843  -27.3326  -42.4644 C.3       10 UNK         0.0209 
     16 S16        16.5413  -25.8557  -43.3735 S.3       10 UNK        -0.2568 
     17 C17        17.5176  -24.9616  -42.1184 C.3       10 UNK        -0.0983 
     18 CA         19.0189  -25.3445  -42.0839 C.3       3 UNK         0.0876 
     19 N          19.6223  -25.3385  -43.4282 N.am      3 UNK        -0.4424 
     20 C          20.9117  -25.5214  -43.7428 C.2       2 UNK         0.4918 
     21 O          21.8257  -25.5456  -42.9205 O.2       2 UNK        -0.4875 
     22 CA         21.2220  -25.7709  -45.2281 C.3       2 UNK         0.0481 
     23 CB         22.7040  -25.5043  -45.5675 C.3       2 UNK        -0.1831 
     24 N          20.8351  -27.1280  -45.6371 N.am      2 UNK        -0.4498 
     25 C          21.2397  -28.2909  -45.0956 C.2       1 UNK         0.5027 
     26 O          22.0409  -28.3796  -44.1614 O.2       1 UNK        -0.4969 
     27 C          19.7344  -24.4879  -41.0135 C.2       3 UNK         0.5005 
     28 O          19.7033  -24.8539  -39.8381 O.2       3 UNK        -0.5279 
     29 N          20.3605  -23.3750  -41.4257 N.am      4 UNK        -0.4463 
     30 CA         21.1552  -22.4956  -40.5613 C.3       4 UNK         0.0283 
     31 CB         21.4748  -21.1944  -41.3145 C.3       4 UNK        -0.1875 
     32 C          22.4521  -23.1495  -40.0457 C.2       4 UNK         0.4949 
     33 O          22.8778  -22.8420  -38.9321 O.2       4 UNK        -0.5039 
     34 N          23.0494  -24.0329  -40.8555 N.am      5 UNK        -0.4663 
     35 CA         24.2109  -24.8486  -40.4968 C.3       5 UNK         0.0242 
     36 CB         25.1310  -24.9885  -41.7215 C.3       5 UNK        -0.1982 
     37 C          23.7758  -26.2336  -39.9934 C.2       5 UNK         0.5017 
     38 O          24.3694  -26.7355  -39.0391 O.2       5 UNK        -0.5012 
     39 N          22.7471  -26.8030  -40.6419 N.am      6 UNK        -0.4439 
     40 CA         22.1344  -28.1141  -40.4180 C.3       6 UNK         0.0297 
     41 CB         21.4246  -28.1655  -39.0491 C.3       6 UNK        -0.2006 
     42 C          23.1515  -29.2507  -40.6111 C.2       6 UNK         0.4892 
     43 O          23.6008  -29.8562  -39.6350 O.2       6 UNK        -0.5089 
     44 N          23.5233  -29.4960  -41.8746 N.am      7 UNK        -0.4243 
     45 CA         24.5493  -30.4582  -42.2878 C.3       7 UNK         0.0196 
     46 CB         25.0057  -30.1069  -43.7161 C.3       7 UNK        -0.2007 
     47 C          24.0908  -31.9256  -42.1560 C.2       7 UNK         0.5020 
     48 O          23.9467  -32.6197  -43.1613 O.2       7 UNK        -0.5147 
     49 N          23.8520  -32.3661  -40.9134 N.am      8 UNK        -0.4734 
     50 CA         23.4688  -33.7126  -40.4496 C.3       8 UNK         0.0238 
     51 CB         24.5260  -34.7612  -40.8494 C.3       8 UNK        -0.1912 
     52 C          22.0532  -34.1829  -40.8410 C.2       8 UNK         0.5038 
     53 O          21.4981  -35.0284  -40.1373 O.2       8 UNK        -0.5046 
     54 N          21.4922  -33.6238  -41.9174 N.am      9 UNK        -0.4200 
     55 CA         20.1698  -33.9157  -42.4893 C.3       9 UNK         0.0839 
     56 C          20.0982  -35.3057  -43.1907 C.2       9 UNK         0.5513 
     57 N          18.9321  -35.6997  -43.6872 N.am      9 UNK        -0.7519 
     58 O          21.0853  -36.0279  -43.3196 O.2       9 UNK        -0.4960 
     59 C59        18.9761  -33.6674  -41.5102 C.3       10 UNK        -0.0876 
     60 S60        19.0169  -32.1505  -40.4833 S.3       10 UNK        -0.2414 
     61 C61        19.5574  -30.8288  -41.6087 C.3       10 UNK         0.0169 
     62 H62        23.0604  -32.9742  -47.4181 H         1 UNK         0.0903 
     63 H63        23.8320  -31.3865  -47.3715 H         1 UNK         0.0903 
     64 H64        24.0338  -32.5053  -46.0213 H         1 UNK         0.0903 
     65 H65        22.3794  -29.7501  -46.9006 H         1 UNK         0.3096 
     66 H66        20.3444  -30.1450  -44.8090 H         1 UNK         0.1121 
     67 H67        18.7267  -28.6929  -46.2213 H         1 UNK         0.0849 
     68 H68        19.7588  -29.0012  -47.5957 H         1 UNK         0.0849 
     69 H69        16.3388  -30.1630  -46.5487 H         1 UNK         0.0865 
     70 H70        16.5257  -31.7800  -45.9185 H         1 UNK         0.0865 
     71 H71        18.6898  -31.7216  -44.0426 H         1 UNK         0.1346 
     72 H72        17.9373  -28.6924  -41.0975 H         1 UNK         0.1412 
     73 H73        15.7951  -28.6661  -44.8093 H         1 UNK         0.1426 
     74 H74        16.0617  -27.1789  -41.3874 H         1 UNK         0.0716 
     75 H75        14.9245  -27.4893  -42.6704 H         1 UNK         0.0716 
     76 H76        17.0585  -25.1079  -41.1387 H         1 UNK         0.0695 
     77 H77        17.4097  -23.8973  -42.3379 H         1 UNK         0.0695 
     78 H78        19.0894  -26.3775  -41.7377 H         1 UNK         0.0983 
     79 H79        18.9488  -25.3409  -44.1812 H         1 UNK         0.3095 
     80 H80        20.6168  -25.0743  -45.8102 H         1 UNK         0.0454 
     81 H81        23.3755  -26.1748  -45.0297 H         1 UNK         0.0851 
     82 H82        22.9866  -24.4849  -45.3022 H         1 UNK         0.0851 
     83 H83        22.8944  -25.6268  -46.6334 H         1 UNK         0.0851 
     84 H84        20.1731  -27.1712  -46.3988 H         1 UNK         0.2976 
     85 H85        20.3295  -23.1470  -42.4090 H         1 UNK         0.3116 
     86 H86        20.5463  -22.2430  -39.6905 H         1 UNK         0.0646 
     87 H87        22.0686  -21.3801  -42.2104 H         1 UNK         0.0847 
     88 H88        22.0438  -20.5095  -40.6840 H         1 UNK         0.0847 
     89 H89        20.5650  -20.6741  -41.6145 H         1 UNK         0.0847 
     90 H90        22.5931  -24.2687  -41.7315 H         1 UNK         0.3040 
     91 H91        24.7768  -24.3624  -39.6988 H         1 UNK         0.1015 
     92 H92        24.6249  -25.4718  -42.5586 H         1 UNK         0.0786 
     93 H93        26.0101  -25.5883  -41.4817 H         1 UNK         0.0786 
     94 H94        25.4854  -24.0156  -42.0621 H         1 UNK         0.0786 
     95 H95        22.3911  -26.3047  -41.4572 H         1 UNK         0.3172 
     96 H96        21.3746  -28.2234  -41.1928 H         1 UNK         0.0595 
     97 H97        22.1225  -28.0320  -38.2221 H         1 UNK         0.0839 
     98 H98        20.9301  -29.1260  -38.9009 H         1 UNK         0.0839 
     99 H99        20.6621  -27.3905  -38.9706 H         1 UNK         0.0839 
    100 H100       23.0692  -28.9807  -42.6257 H         1 UNK         0.2998 
    101 H101       25.4133  -30.3365  -41.6310 H         1 UNK         0.0822 
    102 H102       25.4122  -29.0965  -43.7648 H         1 UNK         0.0787 
    103 H103       25.7862  -30.7877  -44.0583 H         1 UNK         0.0787 
    104 H104       24.1821  -30.1684  -44.4271 H         1 UNK         0.0787 
    105 H105       23.9057  -31.6581  -40.1833 H         1 UNK         0.3055 
    106 H106       23.4676  -33.6514  -39.3599 H         1 UNK         0.1106 
    107 H107       24.2997  -35.7305  -40.4030 H         1 UNK         0.0828 
    108 H108       24.5669  -34.9073  -41.9292 H         1 UNK         0.0828 
    109 H109       25.5209  -34.4731  -40.5101 H         1 UNK         0.0828 
    110 H110       22.0917  -33.0378  -42.4873 H         1 UNK         0.2931 
    111 H111       20.0798  -33.2055  -43.3056 H         1 UNK         0.0412 
    112 H112       18.1090  -35.1224  -43.6233 H         1 UNK         0.3472 
    113 H113       18.8792  -36.5929  -44.1519 H         1 UNK         0.3472 
    114 H114       18.8861  -34.5098  -40.8221 H         1 UNK         0.0970 
    115 H115       18.0386  -33.6435  -42.0672 H         1 UNK         0.0970 
    116 H116       19.9555  -30.0269  -40.9898 H         1 UNK         0.0612 
    117 H117       20.3901  -31.1518  -42.2327 H         1 UNK         0.0612 
@<TRIPOS>BOND
     1    1    2 1    
     2    1   62 1    
     3    1   63 1    
     4    1   64 1    
     5    2    3 2    
     6    2    4 am   BACKBONE|DICT|INTERRES
     7    4    5 1    
     8    4   65 1    
     9    5    6 1    
    10    5   25 1    
    11    5   66 1    
    12    6    7 1    
    13    6   67 1    
    14    6   68 1    
    15    7    8 1    
    16    8    9 1    
    17    8   69 1    
    18    8   70 1    
    19    9   10 ar   
    20    9   14 ar   
    21   10   11 ar   
    22   10   71 1    
    23   11   12 ar   
    24   11   61 1    
    25   12   13 ar   
    26   12   72 1    
    27   13   14 ar   
    28   13   15 1    
    29   14   73 1    
    30   15   16 1    
    31   15   74 1    
    32   15   75 1    
    33   16   17 1    
    34   17   18 1    
    35   17   76 1    
    36   17   77 1    
    37   18   19 1    
    38   18   27 1    
    39   18   78 1    
    40   19   20 am   BACKBONE|DICT|INTERRES
    41   19   79 1    
    42   20   21 2    
    43   20   22 1    
    44   22   23 1    
    45   22   24 1    
    46   22   80 1    
    47   23   81 1    
    48   23   82 1    
    49   23   83 1    
    50   24   25 am   BACKBONE|DICT|INTERRES
    51   24   84 1    
    52   25   26 2    
    53   27   28 2    
    54   27   29 am   BACKBONE|DICT|INTERRES
    55   29   30 1    
    56   29   85 1    
    57   30   31 1    
    58   30   32 1    
    59   30   86 1    
    60   31   87 1    
    61   31   88 1    
    62   31   89 1    
    63   32   33 2    
    64   32   34 am   BACKBONE|DICT|INTERRES
    65   34   35 1    
    66   34   90 1    
    67   35   36 1    
    68   35   37 1    
    69   35   91 1    
    70   36   92 1    
    71   36   93 1    
    72   36   94 1    
    73   37   38 2    
    74   37   39 am   BACKBONE|DICT|INTERRES
    75   39   40 1    
    76   39   95 1    
    77   40   41 1    
    78   40   42 1    
    79   40   96 1    
    80   41   97 1    
    81   41   98 1    
    82   41   99 1    
    83   42   43 2    
    84   42   44 am   BACKBONE|DICT|INTERRES
    85   44   45 1    
    86   44  100 1    
    87   45   46 1    
    88   45   47 1    
    89   45  101 1    
    90   46  102 1    
    91   46  103 1    
    92   46  104 1    
    93   47   48 2    
    94   47   49 am   BACKBONE|DICT|INTERRES
    95   49   50 1    
    96   49  105 1    
    97   50   51 1    
    98   50   52 1    
    99   50  106 1    
   100   51  107 1    
   101   51  108 1    
   102   51  109 1    
   103   52   53 2    
   104   52   54 am   BACKBONE|DICT|INTERRES
   105   54   55 1    
   106   54  110 1    
   107   55   56 1    
   108   55   59 1    
   109   55  111 1    
   110   56   57 am   BACKBONE|DICT|INTERRES
   111   56   58 2    
   112   57  112 1    
   113   57  113 1    
   114   59   60 1    
   115   59  114 1    
   116   59  115 1    
   117   60   61 1    
   118   61  116 1    
   119   61  117 1    
@<TRIPOS>SUBSTRUCTURE
     1 UNK         1 GROUP             0       ****    0 ROOT    
