@<TRIPOS>MOLECULE
3R8
117   119    1
SMALL
USER_CHARGES


@<TRIPOS>ATOM
      1 CA         16.4139  -23.7359  -40.8407 C.3       0 UNK        -0.2013 
      2 C          17.0647  -23.9185  -42.2037 C.2       0 UNK         0.4866 
      3 O          17.4994  -22.9393  -42.8113 O.2       0 UNK        -0.5176 
      4 N          17.1253  -25.1635  -42.6919 N.am      1 UNK        -0.4884 
      5 CA         17.7690  -25.5397  -43.9557 C.3       1 UNK         0.0853 
      6 C6         17.4031  -26.9844  -44.3774 C.3       10 UNK        -0.0849 
      7 S7         15.6068  -27.2536  -44.5605 S.3       10 UNK        -0.2776 
      8 C8         15.5379  -28.4204  -45.9646 C.3       10 UNK         0.0316 
      9 C9         16.4648  -29.6173  -45.7800 C.ar      10 UNK        -0.0863 
     10 C10        16.3214  -30.4605  -44.6728 C.ar      10 UNK        -0.1009 
     11 C11        17.2040  -31.5259  -44.4716 C.ar      10 UNK        -0.0712 
     12 C12        18.2077  -31.7725  -45.4108 C.ar      10 UNK        -0.0894 
     13 C13        18.3820  -30.9182  -46.5034 C.ar      10 UNK        -0.0745 
     14 C14        17.4968  -29.8537  -46.6946 C.ar      10 UNK        -0.0972 
     15 C15        19.5862  -31.0951  -47.4180 C.3       10 UNK         0.0209 
     16 S16        20.9043  -29.8794  -47.0568 S.3       10 UNK        -0.2568 
     17 C17        21.1311  -30.0723  -45.2523 C.3       10 UNK        -0.0983 
     18 CA         21.9409  -28.9377  -44.5800 C.3       3 UNK         0.0876 
     19 N          21.5000  -27.6018  -44.9947 N.am      3 UNK        -0.4424 
     20 C          22.1121  -26.4549  -44.6682 C.2       2 UNK         0.4918 
     21 O          23.1378  -26.3931  -43.9928 O.2       2 UNK        -0.4875 
     22 CA         21.4275  -25.1526  -45.1192 C.3       2 UNK         0.0481 
     23 CB         21.8269  -24.8056  -46.5615 C.3       2 UNK        -0.1831 
     24 N          19.9647  -25.1999  -45.0042 N.am      2 UNK        -0.4498 
     25 C          19.3030  -25.4103  -43.8564 C.2       1 UNK         0.5027 
     26 O          19.8648  -25.5777  -42.7702 O.2       1 UNK        -0.4969 
     27 C          21.8681  -29.1059  -43.0487 C.2       3 UNK         0.5005 
     28 O          22.7953  -29.6462  -42.4481 O.2       3 UNK        -0.5279 
     29 N          20.7731  -28.6241  -42.4416 N.am      4 UNK        -0.4463 
     30 CA         20.5390  -28.6545  -40.9966 C.3       4 UNK         0.0283 
     31 CB         19.0874  -28.2512  -40.6911 C.3       4 UNK        -0.1875 
     32 C          21.5302  -27.7709  -40.2235 C.2       4 UNK         0.4949 
     33 O          21.9582  -28.1557  -39.1365 O.2       4 UNK        -0.5039 
     34 N          21.8959  -26.6235  -40.8084 N.am      5 UNK        -0.4663 
     35 CA         22.9150  -25.7208  -40.2781 C.3       5 UNK         0.0242 
     36 CB         22.7947  -24.3526  -40.9699 C.3       5 UNK        -0.1982 
     37 C          24.3386  -26.2884  -40.4183 C.2       5 UNK         0.5017 
     38 O          25.0906  -26.2714  -39.4432 O.2       5 UNK        -0.5012 
     39 N          24.6922  -26.7482  -41.6268 N.am      6 UNK        -0.4439 
     40 CA         26.0523  -27.1587  -41.9800 C.3       6 UNK         0.0297 
     41 CB         26.2556  -27.0171  -43.4980 C.3       6 UNK        -0.2006 
     42 C          26.4148  -28.5809  -41.5266 C.2       6 UNK         0.4892 
     43 O          27.4951  -28.7694  -40.9656 O.2       6 UNK        -0.5089 
     44 N          25.5451  -29.5561  -41.8196 N.am      7 UNK        -0.4243 
     45 CA         25.8247  -30.9871  -41.6633 C.3       7 UNK         0.0196 
     46 CB         25.4981  -31.7015  -42.9866 C.3       7 UNK        -0.2007 
     47 C          25.0434  -31.6345  -40.5110 C.2       7 UNK         0.5020 
     48 O          25.4792  -32.6795  -40.0280 O.2       7 UNK        -0.5147 
     49 N          23.9201  -31.0231  -40.1035 N.am      8 UNK        -0.4734 
     50 CA         22.9450  -31.5104  -39.1181 C.3       8 UNK         0.0238 
     51 CB         23.5801  -31.6895  -37.7218 C.3       8 UNK        -0.1912 
     52 C          22.2377  -32.7764  -39.6324 C.2       8 UNK         0.5038 
     53 O          22.5479  -33.8853  -39.1934 O.2       8 UNK        -0.5046 
     54 N          21.3220  -32.5737  -40.5891 N.am      9 UNK        -0.4200 
     55 CA         20.5631  -33.6188  -41.2963 C.3       9 UNK         0.0839 
     56 C          19.6530  -34.5371  -40.4240 C.2       9 UNK         0.5513 
     57 N          19.3322  -34.1792  -39.1864 N.am      9 UNK        -0.7519 
     58 O          19.2360  -35.5971  -40.8839 O.2       9 UNK        -0.4960 
     59 C59        19.7952  -33.0225  -42.5072 C.3       10 UNK        -0.0876 
     60 S60        18.4282  -31.9010  -42.0286 S.3       10 UNK        -0.2414 
     61 C61        17.1162  -32.3673  -43.2078 C.3       10 UNK         0.0169 
     62 H62        15.5607  -23.0626  -40.9190 H         1 UNK         0.0903 
     63 H63        16.0634  -24.6808  -40.4259 H         1 UNK         0.0903 
     64 H64        17.1275  -23.3026  -40.1404 H         1 UNK         0.0903 
     65 H65        16.7437  -25.9287  -42.1553 H         1 UNK         0.3096 
     66 H66        17.4188  -24.8494  -44.7268 H         1 UNK         0.1121 
     67 H67        17.7752  -27.7102  -43.6514 H         1 UNK         0.0849 
     68 H68        17.8863  -27.2278  -45.3256 H         1 UNK         0.0849 
     69 H69        14.5135  -28.7766  -46.0808 H         1 UNK         0.0865 
     70 H70        15.7792  -27.8799  -46.8813 H         1 UNK         0.0865 
     71 H71        15.5460  -30.2588  -43.9462 H         1 UNK         0.1346 
     72 H72        18.9022  -32.5848  -45.2500 H         1 UNK         0.1412 
     73 H73        17.6409  -29.1874  -47.5345 H         1 UNK         0.1426 
     74 H74        19.9962  -32.1018  -47.3233 H         1 UNK         0.0716 
     75 H75        19.2762  -30.9871  -48.4583 H         1 UNK         0.0716 
     76 H76        20.1485  -30.1170  -44.7851 H         1 UNK         0.0695 
     77 H77        21.6035  -31.0391  -45.0677 H         1 UNK         0.0695 
     78 H78        22.9875  -29.0426  -44.8744 H         1 UNK         0.0983 
     79 H79        20.6834  -27.5677  -45.5862 H         1 UNK         0.3095 
     80 H80        21.7823  -24.3519  -44.4670 H         1 UNK         0.0454 
     81 H81        21.4743  -25.5532  -47.2731 H         1 UNK         0.0851 
     82 H82        21.4256  -23.8381  -46.8633 H         1 UNK         0.0851 
     83 H83        22.9119  -24.7481  -46.6614 H         1 UNK         0.0851 
     84 H84        19.4402  -25.0730  -45.8584 H         1 UNK         0.2976 
     85 H85        20.0814  -28.1512  -43.0025 H         1 UNK         0.3116 
     86 H86        20.6761  -29.6829  -40.6611 H         1 UNK         0.0646 
     87 H87        18.8824  -27.2176  -40.9694 H         1 UNK         0.0847 
     88 H88        18.3764  -28.8889  -41.2165 H         1 UNK         0.0847 
     89 H89        18.8773  -28.3451  -39.6249 H         1 UNK         0.0847 
     90 H90        21.4375  -26.3525  -41.6723 H         1 UNK         0.3040 
     91 H91        22.7208  -25.5772  -39.2126 H         1 UNK         0.1015 
     92 H92        22.9553  -24.4243  -42.0460 H         1 UNK         0.0786 
     93 H93        23.5300  -23.6499  -40.5756 H         1 UNK         0.0786 
     94 H94        21.8088  -23.9149  -40.8105 H         1 UNK         0.0786 
     95 H95        24.0191  -26.6958  -42.3890 H         1 UNK         0.3172 
     96 H96        26.7509  -26.4723  -41.4960 H         1 UNK         0.0595 
     97 H97        27.2764  -27.2767  -43.7816 H         1 UNK         0.0839 
     98 H98        26.0783  -25.9933  -43.8278 H         1 UNK         0.0839 
     99 H99        25.5857  -27.6687  -44.0605 H         1 UNK         0.0839 
    100 H100       24.6422  -29.3222  -42.2237 H         1 UNK         0.2998 
    101 H101       26.8857  -31.1439  -41.4567 H         1 UNK         0.0822 
    102 H102       25.7321  -32.7652  -42.9239 H         1 UNK         0.0787 
    103 H103       24.4419  -31.6162  -43.2448 H         1 UNK         0.0787 
    104 H104       26.0793  -31.2908  -43.8123 H         1 UNK         0.0787 
    105 H105       23.6270  -30.2145  -40.6409 H         1 UNK         0.3055 
    106 H106       22.1817  -30.7394  -39.0170 H         1 UNK         0.1106 
    107 H107       24.0492  -30.7666  -37.3811 H         1 UNK         0.0828 
    108 H108       22.8216  -31.9587  -36.9860 H         1 UNK         0.0828 
    109 H109       24.3349  -32.4757  -37.7044 H         1 UNK         0.0828 
    110 H110       21.1411  -31.6307  -40.8965 H         1 UNK         0.2931 
    111 H111       21.3204  -34.2869  -41.7112 H         1 UNK         0.0412 
    112 H112       18.7459  -34.7837  -38.6328 H         1 UNK         0.3472 
    113 H113       19.6678  -33.3108  -38.8033 H         1 UNK         0.3472 
    114 H114       20.4828  -32.4693  -43.1485 H         1 UNK         0.0970 
    115 H115       19.4095  -33.8335  -43.1270 H         1 UNK         0.0970 
    116 H116       17.1703  -33.4290  -43.4512 H         1 UNK         0.0612 
    117 H117       16.1503  -32.2175  -42.7232 H         1 UNK         0.0612 
@<TRIPOS>BOND
     1    1    2 1    
     2    1   62 1    
     3    1   63 1    
     4    1   64 1    
     5    2    3 2    
     6    2    4 am   BACKBONE|DICT|INTERRES
     7    4    5 1    
     8    4   65 1    
     9    5    6 1    
    10    5   25 1    
    11    5   66 1    
    12    6    7 1    
    13    6   67 1    
    14    6   68 1    
    15    7    8 1    
    16    8    9 1    
    17    8   69 1    
    18    8   70 1    
    19    9   10 ar   
    20    9   14 ar   
    21   10   11 ar   
    22   10   71 1    
    23   11   12 ar   
    24   11   61 1    
    25   12   13 ar   
    26   12   72 1    
    27   13   14 ar   
    28   13   15 1    
    29   14   73 1    
    30   15   16 1    
    31   15   74 1    
    32   15   75 1    
    33   16   17 1    
    34   17   18 1    
    35   17   76 1    
    36   17   77 1    
    37   18   19 1    
    38   18   27 1    
    39   18   78 1    
    40   19   20 am   BACKBONE|DICT|INTERRES
    41   19   79 1    
    42   20   21 2    
    43   20   22 1    
    44   22   23 1    
    45   22   24 1    
    46   22   80 1    
    47   23   81 1    
    48   23   82 1    
    49   23   83 1    
    50   24   25 am   BACKBONE|DICT|INTERRES
    51   24   84 1    
    52   25   26 2    
    53   27   28 2    
    54   27   29 am   BACKBONE|DICT|INTERRES
    55   29   30 1    
    56   29   85 1    
    57   30   31 1    
    58   30   32 1    
    59   30   86 1    
    60   31   87 1    
    61   31   88 1    
    62   31   89 1    
    63   32   33 2    
    64   32   34 am   BACKBONE|DICT|INTERRES
    65   34   35 1    
    66   34   90 1    
    67   35   36 1    
    68   35   37 1    
    69   35   91 1    
    70   36   92 1    
    71   36   93 1    
    72   36   94 1    
    73   37   38 2    
    74   37   39 am   BACKBONE|DICT|INTERRES
    75   39   40 1    
    76   39   95 1    
    77   40   41 1    
    78   40   42 1    
    79   40   96 1    
    80   41   97 1    
    81   41   98 1    
    82   41   99 1    
    83   42   43 2    
    84   42   44 am   BACKBONE|DICT|INTERRES
    85   44   45 1    
    86   44  100 1    
    87   45   46 1    
    88   45   47 1    
    89   45  101 1    
    90   46  102 1    
    91   46  103 1    
    92   46  104 1    
    93   47   48 2    
    94   47   49 am   BACKBONE|DICT|INTERRES
    95   49   50 1    
    96   49  105 1    
    97   50   51 1    
    98   50   52 1    
    99   50  106 1    
   100   51  107 1    
   101   51  108 1    
   102   51  109 1    
   103   52   53 2    
   104   52   54 am   BACKBONE|DICT|INTERRES
   105   54   55 1    
   106   54  110 1    
   107   55   56 1    
   108   55   59 1    
   109   55  111 1    
   110   56   57 am   BACKBONE|DICT|INTERRES
   111   56   58 2    
   112   57  112 1    
   113   57  113 1    
   114   59   60 1    
   115   59  114 1    
   116   59  115 1    
   117   60   61 1    
   118   61  116 1    
   119   61  117 1    
@<TRIPOS>SUBSTRUCTURE
     1 UNK         1 GROUP             0       ****    0 ROOT    
