@<TRIPOS>MOLECULE
3R8
117   119    1
SMALL
USER_CHARGES


@<TRIPOS>ATOM
      1 CA         18.7297  -23.9010  -48.9776 C.3       0 UNK        -0.2013 
      2 C          19.3505  -25.1724  -48.4190 C.2       0 UNK         0.4866 
      3 O          20.5735  -25.3122  -48.4282 O.2       0 UNK        -0.5176 
      4 N          18.5170  -26.1015  -47.9332 N.am      1 UNK        -0.4884 
      5 CA         18.9339  -27.3768  -47.3336 C.3       1 UNK         0.0853 
      6 C6         17.7807  -28.4092  -47.3094 C.3       10 UNK        -0.0849 
      7 S7         16.2513  -27.7917  -46.5236 S.3       10 UNK        -0.2776 
      8 C8         15.3921  -29.3540  -46.1709 C.3       10 UNK         0.0316 
      9 C9         15.7809  -29.9193  -44.8131 C.ar      10 UNK        -0.0863 
     10 C10        16.7704  -30.9010  -44.7015 C.ar      10 UNK        -0.1009 
     11 C11        17.0778  -31.4615  -43.4570 C.ar      10 UNK        -0.0712 
     12 C12        16.3819  -31.0338  -42.3208 C.ar      10 UNK        -0.0894 
     13 C13        15.4051  -30.0372  -42.4178 C.ar      10 UNK        -0.0745 
     14 C14        15.1121  -29.4836  -43.6666 C.ar      10 UNK        -0.0972 
     15 C15        14.6354  -29.5796  -41.1856 C.3       10 UNK         0.0209 
     16 S16        15.7039  -28.8243  -39.9193 S.3       10 UNK        -0.2568 
     17 C17        16.4533  -27.4149  -40.8085 C.3       10 UNK        -0.0983 
     18 CA         17.9468  -27.6458  -41.1620 C.3       3 UNK         0.0876 
     19 N          18.3726  -26.7505  -42.2531 N.am      3 UNK        -0.4424 
     20 C          19.5807  -26.7343  -42.8354 C.2       2 UNK         0.4918 
     21 O          20.5086  -27.4718  -42.5044 O.2       2 UNK        -0.4875 
     22 CA         19.7917  -25.6883  -43.9441 C.3       2 UNK         0.0481 
     23 CB         21.2743  -25.2820  -44.0791 C.3       2 UNK        -0.1831 
     24 N          19.2604  -26.1188  -45.2409 N.am      2 UNK        -0.4498 
     25 C          19.5840  -27.2182  -45.9425 C.2       1 UNK         0.5027 
     26 O          20.3698  -28.0851  -45.5589 O.2       1 UNK        -0.4969 
     27 C          18.8517  -27.5894  -39.9018 C.2       3 UNK         0.5005 
     28 O          18.9211  -28.5699  -39.1595 O.2       3 UNK        -0.5279 
     29 N          19.5710  -26.4713  -39.7052 N.am      4 UNK        -0.4463 
     30 CA         20.6255  -26.3031  -38.6959 C.3       4 UNK         0.0283 
     31 CB         21.1161  -24.8466  -38.7181 C.3       4 UNK        -0.1875 
     32 C          21.8181  -27.2694  -38.8629 C.2       4 UNK         0.4949 
     33 O          22.5287  -27.5156  -37.8872 O.2       4 UNK        -0.5039 
     34 N          22.0032  -27.8062  -40.0785 N.am      5 UNK        -0.4663 
     35 CA         22.9325  -28.8572  -40.4996 C.3       5 UNK         0.0242 
     36 CB         22.6780  -30.1704  -39.7307 C.3       5 UNK        -0.1982 
     37 C          24.4160  -28.4710  -40.4648 C.2       5 UNK         0.5017 
     38 O          25.0885  -28.5964  -41.4888 O.2       5 UNK        -0.5012 
     39 N          24.9128  -28.0693  -39.2876 N.am      6 UNK        -0.4439 
     40 CA         26.3147  -27.8310  -38.9090 C.3       6 UNK         0.0297 
     41 CB         26.9419  -26.6819  -39.7227 C.3       6 UNK        -0.2006 
     42 C          27.1858  -29.1030  -38.9562 C.2       6 UNK         0.4892 
     43 O          27.7977  -29.4527  -37.9464 O.2       6 UNK        -0.5089 
     44 N          27.1965  -29.7777  -40.1104 N.am      7 UNK        -0.4243 
     45 CA         27.7782  -31.0984  -40.3358 C.3       7 UNK         0.0196 
     46 CB         28.8324  -31.0199  -41.4537 C.3       7 UNK        -0.2007 
     47 C          26.6610  -32.0903  -40.6887 C.2       7 UNK         0.5020 
     48 O          26.5153  -33.1035  -40.0053 O.2       7 UNK        -0.5147 
     49 N          25.8715  -31.7708  -41.7226 N.am      8 UNK        -0.4734 
     50 CA         24.7139  -32.5375  -42.1799 C.3       8 UNK         0.0238 
     51 CB         25.1624  -33.7843  -42.9660 C.3       8 UNK        -0.1912 
     52 C          23.8523  -31.6232  -43.0579 C.2       8 UNK         0.5038 
     53 O          24.4062  -30.9008  -43.8900 O.2       8 UNK        -0.5046 
     54 N          22.5300  -31.6688  -42.8619 N.am      9 UNK        -0.4200 
     55 CA         21.5446  -30.9404  -43.6737 C.3       9 UNK         0.0839 
     56 C          21.3005  -31.6056  -45.0559 C.2       9 UNK         0.5513 
     57 N          20.8229  -30.8431  -46.0281 N.am      9 UNK        -0.7519 
     58 O          21.5131  -32.8014  -45.2493 O.2       9 UNK        -0.4960 
     59 C59        20.2247  -30.6894  -42.8960 C.3       10 UNK        -0.0876 
     60 S60        19.4596  -32.1777  -42.1639 S.3       10 UNK        -0.2414 
     61 C61        18.1327  -32.5578  -43.3550 C.3       10 UNK         0.0169 
     62 H62        19.0017  -23.7802  -50.0259 H         1 UNK         0.0903 
     63 H63        17.6420  -23.9134  -48.9092 H         1 UNK         0.0903 
     64 H64        19.0942  -23.0331  -48.4288 H         1 UNK         0.0903 
     65 H65        17.5182  -25.9436  -47.9526 H         1 UNK         0.3096 
     66 H66        19.7167  -27.7905  -47.9742 H         1 UNK         0.1121 
     67 H67        18.1031  -29.3283  -46.8169 H         1 UNK         0.0849 
     68 H68        17.5341  -28.6977  -48.3324 H         1 UNK         0.0849 
     69 H69        14.3163  -29.1727  -46.1943 H         1 UNK         0.0865 
     70 H70        15.5883  -30.0784  -46.9632 H         1 UNK         0.0865 
     71 H71        17.2882  -31.2439  -45.5868 H         1 UNK         0.1346 
     72 H72        16.6057  -31.4721  -41.3576 H         1 UNK         0.1412 
     73 H73        14.3477  -28.7231  -43.7529 H         1 UNK         0.1426 
     74 H74        13.8532  -28.8678  -41.4544 H         1 UNK         0.0716 
     75 H75        14.1271  -30.4395  -40.7474 H         1 UNK         0.0716 
     76 H76        16.3313  -26.5137  -40.2047 H         1 UNK         0.0695 
     77 H77        15.8735  -27.2408  -41.7163 H         1 UNK         0.0695 
     78 H78        18.0455  -28.6579  -41.5613 H         1 UNK         0.0983 
     79 H79        17.6713  -26.1096  -42.5949 H         1 UNK         0.3095 
     80 H80        19.2343  -24.7946  -43.6595 H         1 UNK         0.0454 
     81 H81        21.4026  -24.4909  -44.8177 H         1 UNK         0.0851 
     82 H82        21.6646  -24.9089  -43.1315 H         1 UNK         0.0851 
     83 H83        21.9026  -26.1219  -44.3786 H         1 UNK         0.0851 
     84 H84        18.5815  -25.5007  -45.6624 H         1 UNK         0.2976 
     85 H85        19.4422  -25.7093  -40.3544 H         1 UNK         0.3116 
     86 H86        20.1817  -26.5023  -37.7184 H         1 UNK         0.0646 
     87 H87        20.3039  -24.1489  -38.5138 H         1 UNK         0.0847 
     88 H88        21.8800  -24.6811  -37.9569 H         1 UNK         0.0847 
     89 H89        21.5551  -24.5821  -39.6810 H         1 UNK         0.0847 
     90 H90        21.3751  -27.5063  -40.8205 H         1 UNK         0.3040 
     91 H91        22.6971  -29.0424  -41.5486 H         1 UNK         0.1015 
     92 H92        22.8096  -30.0527  -38.6551 H         1 UNK         0.0786 
     93 H93        23.3673  -30.9519  -40.0475 H         1 UNK         0.0786 
     94 H94        21.6659  -30.5374  -39.9022 H         1 UNK         0.0786 
     95 H95        24.2316  -27.9772  -38.5357 H         1 UNK         0.3172 
     96 H96        26.2833  -27.5094  -37.8667 H         1 UNK         0.0595 
     97 H97        27.0213  -26.9198  -40.7837 H         1 UNK         0.0839 
     98 H98        27.9488  -26.4605  -39.3666 H         1 UNK         0.0839 
     99 H99        26.3571  -25.7669  -39.6290 H         1 UNK         0.0839 
    100 H100       26.5984  -29.4074  -40.8456 H         1 UNK         0.2998 
    101 H101       28.2680  -31.4588  -39.4285 H         1 UNK         0.0822 
    102 H102       29.2546  -32.0042  -41.6611 H         1 UNK         0.0787 
    103 H103       28.4150  -30.6388  -42.3864 H         1 UNK         0.0787 
    104 H104       29.6576  -30.3671  -41.1685 H         1 UNK         0.0787 
    105 H105       26.0286  -30.9129  -42.2383 H         1 UNK         0.3055 
    106 H106       24.1334  -32.8547  -41.3107 H         1 UNK         0.1106 
    107 H107       24.3016  -34.3370  -43.3448 H         1 UNK         0.0828 
    108 H108       25.7816  -33.5169  -43.8232 H         1 UNK         0.0828 
    109 H109       25.7349  -34.4690  -42.3403 H         1 UNK         0.0828 
    110 H110       22.1413  -32.3243  -42.1999 H         1 UNK         0.2931 
    111 H111       21.9683  -29.9547  -43.8799 H         1 UNK         0.0412 
    112 H112       20.6684  -29.8494  -45.8693 H         1 UNK         0.3472 
    113 H113       20.6533  -31.2463  -46.9354 H         1 UNK         0.3472 
    114 H114       19.5054  -30.1551  -43.5195 H         1 UNK         0.0970 
    115 H115       20.4299  -30.0136  -42.0663 H         1 UNK         0.0970 
    116 H116       18.5823  -32.7586  -44.3285 H         1 UNK         0.0612 
    117 H117       17.6447  -33.4832  -43.0470 H         1 UNK         0.0612 
@<TRIPOS>BOND
     1    1    2 1    
     2    1   62 1    
     3    1   63 1    
     4    1   64 1    
     5    2    3 2    
     6    2    4 am   BACKBONE|DICT|INTERRES
     7    4    5 1    
     8    4   65 1    
     9    5    6 1    
    10    5   25 1    
    11    5   66 1    
    12    6    7 1    
    13    6   67 1    
    14    6   68 1    
    15    7    8 1    
    16    8    9 1    
    17    8   69 1    
    18    8   70 1    
    19    9   10 ar   
    20    9   14 ar   
    21   10   11 ar   
    22   10   71 1    
    23   11   12 ar   
    24   11   61 1    
    25   12   13 ar   
    26   12   72 1    
    27   13   14 ar   
    28   13   15 1    
    29   14   73 1    
    30   15   16 1    
    31   15   74 1    
    32   15   75 1    
    33   16   17 1    
    34   17   18 1    
    35   17   76 1    
    36   17   77 1    
    37   18   19 1    
    38   18   27 1    
    39   18   78 1    
    40   19   20 am   BACKBONE|DICT|INTERRES
    41   19   79 1    
    42   20   21 2    
    43   20   22 1    
    44   22   23 1    
    45   22   24 1    
    46   22   80 1    
    47   23   81 1    
    48   23   82 1    
    49   23   83 1    
    50   24   25 am   BACKBONE|DICT|INTERRES
    51   24   84 1    
    52   25   26 2    
    53   27   28 2    
    54   27   29 am   BACKBONE|DICT|INTERRES
    55   29   30 1    
    56   29   85 1    
    57   30   31 1    
    58   30   32 1    
    59   30   86 1    
    60   31   87 1    
    61   31   88 1    
    62   31   89 1    
    63   32   33 2    
    64   32   34 am   BACKBONE|DICT|INTERRES
    65   34   35 1    
    66   34   90 1    
    67   35   36 1    
    68   35   37 1    
    69   35   91 1    
    70   36   92 1    
    71   36   93 1    
    72   36   94 1    
    73   37   38 2    
    74   37   39 am   BACKBONE|DICT|INTERRES
    75   39   40 1    
    76   39   95 1    
    77   40   41 1    
    78   40   42 1    
    79   40   96 1    
    80   41   97 1    
    81   41   98 1    
    82   41   99 1    
    83   42   43 2    
    84   42   44 am   BACKBONE|DICT|INTERRES
    85   44   45 1    
    86   44  100 1    
    87   45   46 1    
    88   45   47 1    
    89   45  101 1    
    90   46  102 1    
    91   46  103 1    
    92   46  104 1    
    93   47   48 2    
    94   47   49 am   BACKBONE|DICT|INTERRES
    95   49   50 1    
    96   49  105 1    
    97   50   51 1    
    98   50   52 1    
    99   50  106 1    
   100   51  107 1    
   101   51  108 1    
   102   51  109 1    
   103   52   53 2    
   104   52   54 am   BACKBONE|DICT|INTERRES
   105   54   55 1    
   106   54  110 1    
   107   55   56 1    
   108   55   59 1    
   109   55  111 1    
   110   56   57 am   BACKBONE|DICT|INTERRES
   111   56   58 2    
   112   57  112 1    
   113   57  113 1    
   114   59   60 1    
   115   59  114 1    
   116   59  115 1    
   117   60   61 1    
   118   61  116 1    
   119   61  117 1    
@<TRIPOS>SUBSTRUCTURE
     1 UNK         1 GROUP             0       ****    0 ROOT    
