@<TRIPOS>MOLECULE
3R8
117   119    1
SMALL
USER_CHARGES


@<TRIPOS>ATOM
      1 CA         15.9179  -23.2880  -45.7220 C.3       0 UNK        -0.2013 
      2 C          16.6034  -24.6415  -45.6145 C.2       0 UNK         0.4866 
      3 O          17.2540  -24.9128  -44.6043 O.2       0 UNK        -0.5176 
      4 N          16.4653  -25.4841  -46.6514 N.am      1 UNK        -0.4884 
      5 CA         17.0336  -26.8346  -46.7692 C.3       1 UNK         0.0853 
      6 C6         16.2892  -27.8543  -45.8610 C.3       10 UNK        -0.0849 
      7 S7         16.7475  -29.5925  -46.2013 S.3       10 UNK        -0.2776 
      8 C8         16.1844  -30.4497  -44.6946 C.3       10 UNK         0.0316 
      9 C9         17.0406  -30.1149  -43.4803 C.ar      10 UNK        -0.0863 
     10 C10        18.2072  -30.8368  -43.2069 C.ar      10 UNK        -0.1009 
     11 C11        18.9769  -30.5392  -42.0765 C.ar      10 UNK        -0.0712 
     12 C12        18.5871  -29.4926  -41.2333 C.ar      10 UNK        -0.0894 
     13 C13        17.4220  -28.7661  -41.4955 C.ar      10 UNK        -0.0745 
     14 C14        16.6447  -29.0992  -42.6075 C.ar      10 UNK        -0.0972 
     15 C15        16.9707  -27.6463  -40.5667 C.3       10 UNK         0.0209 
     16 S16        16.7696  -26.0691  -41.4583 S.3       10 UNK        -0.2568 
     17 C17        18.3196  -25.1798  -41.0988 C.3       10 UNK        -0.0983 
     18 CA         19.6213  -25.8968  -41.5363 C.3       3 UNK         0.0876 
     19 N          19.6348  -26.2528  -42.9655 N.am      3 UNK        -0.4424 
     20 C          20.5838  -27.0099  -43.5439 C.2       2 UNK         0.4918 
     21 O          21.5606  -27.4417  -42.9301 O.2       2 UNK        -0.4875 
     22 CA         20.4565  -27.2939  -45.0494 C.3       2 UNK         0.0481 
     23 CB         21.1208  -28.6127  -45.4784 C.3       2 UNK        -0.1831 
     24 N          19.0582  -27.3091  -45.4563 N.am      2 UNK        -0.4498 
     25 C          18.5686  -26.7906  -46.5872 C.2       1 UNK         0.5027 
     26 O          19.2611  -26.2610  -47.4593 O.2       1 UNK        -0.4969 
     27 C          20.8458  -25.0623  -41.0967 C.2       3 UNK         0.5005 
     28 O          21.2072  -25.0990  -39.9200 O.2       3 UNK        -0.5279 
     29 N          21.4717  -24.3435  -42.0413 N.am      4 UNK        -0.4463 
     30 CA         22.7250  -23.6118  -41.8419 C.3       4 UNK         0.0283 
     31 CB         22.9607  -22.6746  -43.0373 C.3       4 UNK        -0.1875 
     32 C          23.9425  -24.5335  -41.6342 C.2       4 UNK         0.4949 
     33 O          24.8941  -24.1217  -40.9703 O.2       4 UNK        -0.5039 
     34 N          23.8982  -25.7492  -42.1981 N.am      5 UNK        -0.4663 
     35 CA         24.9090  -26.7882  -41.9986 C.3       5 UNK         0.0242 
     36 CB         25.0219  -27.6587  -43.2629 C.3       5 UNK        -0.1982 
     37 C          24.5611  -27.6374  -40.7683 C.2       5 UNK         0.5017 
     38 O          25.4035  -27.7817  -39.8810 O.2       5 UNK        -0.5012 
     39 N          23.3179  -28.1441  -40.7378 N.am      6 UNK        -0.4439 
     40 CA         22.7164  -29.0008  -39.7086 C.3       6 UNK         0.0297 
     41 CB         22.6419  -28.2546  -38.3581 C.3       6 UNK        -0.2006 
     42 C          23.3863  -30.3876  -39.5782 C.2       6 UNK         0.4892 
     43 O          24.3199  -30.7111  -40.3167 O.2       6 UNK        -0.5089 
     44 N          22.8656  -31.1933  -38.6399 N.am      7 UNK        -0.4243 
     45 CA         23.2684  -32.5703  -38.3313 C.3       7 UNK         0.0196 
     46 CB         24.6991  -32.6104  -37.7436 C.3       7 UNK        -0.2007 
     47 C          23.0378  -33.5152  -39.5278 C.2       7 UNK         0.5020 
     48 O          21.9160  -33.5793  -40.0332 O.2       7 UNK        -0.5147 
     49 N          24.0732  -34.2514  -39.9491 N.am      8 UNK        -0.4734 
     50 CA         24.0351  -35.2106  -41.0551 C.3       8 UNK         0.0238 
     51 CB         25.1639  -36.2403  -40.8560 C.3       8 UNK        -0.1912 
     52 C          24.1107  -34.5067  -42.4240 C.2       8 UNK         0.5038 
     53 O          25.1193  -34.6291  -43.1228 O.2       8 UNK        -0.5046 
     54 N          23.0505  -33.7667  -42.7688 N.am      9 UNK        -0.4200 
     55 CA         22.8767  -33.0724  -44.0543 C.3       9 UNK         0.0839 
     56 C          22.8547  -34.0443  -45.2659 C.2       9 UNK         0.5513 
     57 N          23.4184  -33.6399  -46.3958 N.am      9 UNK        -0.7519 
     58 O          22.2918  -35.1357  -45.2031 O.2       9 UNK        -0.4960 
     59 C59        21.6079  -32.1815  -44.0625 C.3       10 UNK        -0.0876 
     60 S60        21.6435  -30.9158  -42.7488 S.3       10 UNK        -0.2414 
     61 C61        20.2047  -31.3711  -41.7350 C.3       10 UNK         0.0169 
     62 H62        15.2167  -23.1585  -44.8981 H         1 UNK         0.0903 
     63 H63        15.3674  -23.1806  -46.6564 H         1 UNK         0.0903 
     64 H64        16.6570  -22.4891  -45.6688 H         1 UNK         0.0903 
     65 H65        15.9462  -25.1720  -47.4610 H         1 UNK         0.3096 
     66 H66        16.8688  -27.1406  -47.8040 H         1 UNK         0.1121 
     67 H67        16.4436  -27.6087  -44.8116 H         1 UNK         0.0849 
     68 H68        15.2138  -27.7672  -46.0237 H         1 UNK         0.0849 
     69 H69        15.1380  -30.2036  -44.5064 H         1 UNK         0.0865 
     70 H70        16.2116  -31.5257  -44.8733 H         1 UNK         0.0865 
     71 H71        18.5083  -31.6391  -43.8659 H         1 UNK         0.1346 
     72 H72        19.1803  -29.2583  -40.3606 H         1 UNK         0.1412 
     73 H73        15.7306  -28.5529  -42.7969 H         1 UNK         0.1426 
     74 H74        17.6575  -27.5181  -39.7288 H         1 UNK         0.0716 
     75 H75        16.0092  -27.9239  -40.1327 H         1 UNK         0.0716 
     76 H76        18.2498  -24.2042  -41.5841 H         1 UNK         0.0695 
     77 H77        18.3373  -24.9810  -40.0251 H         1 UNK         0.0695 
     78 H78        19.6941  -26.8332  -40.9816 H         1 UNK         0.0983 
     79 H79        18.8607  -25.9022  -43.5214 H         1 UNK         0.3095 
     80 H80        20.9767  -26.4727  -45.5461 H         1 UNK         0.0454 
     81 H81        20.5847  -29.4670  -45.0668 H         1 UNK         0.0851 
     82 H82        21.1270  -28.7166  -46.5631 H         1 UNK         0.0851 
     83 H83        22.1563  -28.6738  -45.1421 H         1 UNK         0.0851 
     84 H84        18.4132  -27.7347  -44.8034 H         1 UNK         0.2976 
     85 H85        21.0886  -24.3514  -42.9755 H         1 UNK         0.3116 
     86 H86        22.6191  -22.9990  -40.9440 H         1 UNK         0.0646 
     87 H87        23.8744  -22.0939  -42.9020 H         1 UNK         0.0847 
     88 H88        22.1426  -21.9636  -43.1534 H         1 UNK         0.0847 
     89 H89        23.0630  -23.2274  -43.9720 H         1 UNK         0.0847 
     90 H90        23.0502  -26.0358  -42.6721 H         1 UNK         0.3040 
     91 H91        25.8829  -26.3244  -41.8244 H         1 UNK         0.1015 
     92 H92        25.3043  -27.0617  -44.1300 H         1 UNK         0.0786 
     93 H93        24.0873  -28.1687  -43.4980 H         1 UNK         0.0786 
     94 H94        25.7851  -28.4276  -43.1353 H         1 UNK         0.0786 
     95 H95        22.7285  -27.9774  -41.5507 H         1 UNK         0.3172 
     96 H96        21.6954  -29.1784  -40.0471 H         1 UNK         0.0595 
     97 H97        22.0040  -28.7763  -37.6446 H         1 UNK         0.0839 
     98 H98        22.2254  -27.2548  -38.4817 H         1 UNK         0.0839 
     99 H99        23.6252  -28.1501  -37.8984 H         1 UNK         0.0839 
    100 H100       22.0740  -30.8527  -38.1131 H         1 UNK         0.2998 
    101 H101       22.5892  -32.9156  -37.5503 H         1 UNK         0.0822 
    102 H102       25.4539  -32.2979  -38.4662 H         1 UNK         0.0787 
    103 H103       24.7827  -31.9511  -36.8795 H         1 UNK         0.0787 
    104 H104       24.9588  -33.6130  -37.4011 H         1 UNK         0.0787 
    105 H105       24.9698  -34.1068  -39.5074 H         1 UNK         0.3055 
    106 H106       23.0865  -35.7522  -41.0230 H         1 UNK         0.1106 
    107 H107       26.1479  -35.7697  -40.8556 H         1 UNK         0.0828 
    108 H108       25.0488  -36.7784  -39.9149 H         1 UNK         0.0828 
    109 H109       25.1585  -36.9838  -41.6542 H         1 UNK         0.0828 
    110 H110       22.3026  -33.6650  -42.0931 H         1 UNK         0.2931 
    111 H111       23.7433  -32.4177  -44.1696 H         1 UNK         0.0412 
    112 H112       23.4001  -34.2494  -47.1989 H         1 UNK         0.3472 
    113 H113       23.8748  -32.7429  -46.4589 H         1 UNK         0.3472 
    114 H114       20.7094  -32.7944  -43.9770 H         1 UNK         0.0970 
    115 H115       21.5225  -31.6606  -45.0174 H         1 UNK         0.0970 
    116 H116       19.9794  -32.4330  -41.8391 H         1 UNK         0.0612 
    117 H117       20.4695  -31.2321  -40.6864 H         1 UNK         0.0612 
@<TRIPOS>BOND
     1    1    2 1    
     2    1   62 1    
     3    1   63 1    
     4    1   64 1    
     5    2    3 2    
     6    2    4 am   BACKBONE|DICT|INTERRES
     7    4    5 1    
     8    4   65 1    
     9    5    6 1    
    10    5   25 1    
    11    5   66 1    
    12    6    7 1    
    13    6   67 1    
    14    6   68 1    
    15    7    8 1    
    16    8    9 1    
    17    8   69 1    
    18    8   70 1    
    19    9   10 ar   
    20    9   14 ar   
    21   10   11 ar   
    22   10   71 1    
    23   11   12 ar   
    24   11   61 1    
    25   12   13 ar   
    26   12   72 1    
    27   13   14 ar   
    28   13   15 1    
    29   14   73 1    
    30   15   16 1    
    31   15   74 1    
    32   15   75 1    
    33   16   17 1    
    34   17   18 1    
    35   17   76 1    
    36   17   77 1    
    37   18   19 1    
    38   18   27 1    
    39   18   78 1    
    40   19   20 am   BACKBONE|DICT|INTERRES
    41   19   79 1    
    42   20   21 2    
    43   20   22 1    
    44   22   23 1    
    45   22   24 1    
    46   22   80 1    
    47   23   81 1    
    48   23   82 1    
    49   23   83 1    
    50   24   25 am   BACKBONE|DICT|INTERRES
    51   24   84 1    
    52   25   26 2    
    53   27   28 2    
    54   27   29 am   BACKBONE|DICT|INTERRES
    55   29   30 1    
    56   29   85 1    
    57   30   31 1    
    58   30   32 1    
    59   30   86 1    
    60   31   87 1    
    61   31   88 1    
    62   31   89 1    
    63   32   33 2    
    64   32   34 am   BACKBONE|DICT|INTERRES
    65   34   35 1    
    66   34   90 1    
    67   35   36 1    
    68   35   37 1    
    69   35   91 1    
    70   36   92 1    
    71   36   93 1    
    72   36   94 1    
    73   37   38 2    
    74   37   39 am   BACKBONE|DICT|INTERRES
    75   39   40 1    
    76   39   95 1    
    77   40   41 1    
    78   40   42 1    
    79   40   96 1    
    80   41   97 1    
    81   41   98 1    
    82   41   99 1    
    83   42   43 2    
    84   42   44 am   BACKBONE|DICT|INTERRES
    85   44   45 1    
    86   44  100 1    
    87   45   46 1    
    88   45   47 1    
    89   45  101 1    
    90   46  102 1    
    91   46  103 1    
    92   46  104 1    
    93   47   48 2    
    94   47   49 am   BACKBONE|DICT|INTERRES
    95   49   50 1    
    96   49  105 1    
    97   50   51 1    
    98   50   52 1    
    99   50  106 1    
   100   51  107 1    
   101   51  108 1    
   102   51  109 1    
   103   52   53 2    
   104   52   54 am   BACKBONE|DICT|INTERRES
   105   54   55 1    
   106   54  110 1    
   107   55   56 1    
   108   55   59 1    
   109   55  111 1    
   110   56   57 am   BACKBONE|DICT|INTERRES
   111   56   58 2    
   112   57  112 1    
   113   57  113 1    
   114   59   60 1    
   115   59  114 1    
   116   59  115 1    
   117   60   61 1    
   118   61  116 1    
   119   61  117 1    
@<TRIPOS>SUBSTRUCTURE
     1 UNK         1 GROUP             0       ****    0 ROOT    
