@<TRIPOS>MOLECULE
3R8
117   119    1
SMALL
USER_CHARGES


@<TRIPOS>ATOM
      1 CA         15.6465  -21.9069  -44.0481 C.3       0 UNK        -0.2013 
      2 C          16.1525  -22.9649  -45.0168 C.2       0 UNK         0.4866 
      3 O          16.5188  -22.6378  -46.1456 O.2       0 UNK        -0.5176 
      4 N          16.1768  -24.2325  -44.5849 N.am      1 UNK        -0.4884 
      5 CA         16.6359  -25.3862  -45.3709 C.3       1 UNK         0.0853 
      6 C6         16.0586  -26.7314  -44.8440 C.3       10 UNK        -0.0849 
      7 S7         15.9787  -26.9196  -43.0235 S.3       10 UNK        -0.2776 
      8 C8         17.6690  -27.4017  -42.5499 C.3       10 UNK         0.0316 
      9 C9         18.0430  -28.8117  -42.9836 C.ar      10 UNK        -0.0863 
     10 C10        17.8884  -29.8893  -42.1065 C.ar      10 UNK        -0.1009 
     11 C11        18.3274  -31.1658  -42.4714 C.ar      10 UNK        -0.0712 
     12 C12        18.9014  -31.3656  -43.7301 C.ar      10 UNK        -0.0894 
     13 C13        19.0564  -30.3000  -44.6206 C.ar      10 UNK        -0.0745 
     14 C14        18.6178  -29.0281  -44.2379 C.ar      10 UNK        -0.0972 
     15 C15        19.7176  -30.5452  -45.9772 C.3       10 UNK         0.0209 
     16 S16        20.7469  -29.1641  -46.5886 S.3       10 UNK        -0.2568 
     17 C17        21.9134  -28.9446  -45.2041 C.3       10 UNK        -0.0983 
     18 CA         22.7304  -27.6289  -45.3075 C.3       3 UNK         0.0876 
     19 N          21.8996  -26.4162  -45.4131 N.am      3 UNK        -0.4424 
     20 C          21.1160  -25.8840  -44.4622 C.2       2 UNK         0.4918 
     21 O          20.9886  -26.3568  -43.3322 O.2       2 UNK        -0.4875 
     22 CA         20.3941  -24.5589  -44.7862 C.3       2 UNK         0.0481 
     23 CB         20.8647  -23.8734  -46.0900 C.3       2 UNK        -0.1831 
     24 N          18.9328  -24.6930  -44.7586 N.am      2 UNK        -0.4498 
     25 C          18.1682  -25.4361  -45.5754 C.2       1 UNK         0.5027 
     26 O          18.6191  -26.1320  -46.4852 O.2       1 UNK        -0.4969 
     27 C          23.7668  -27.5063  -44.1694 C.2       3 UNK         0.5005 
     28 O          23.8364  -28.3783  -43.3018 O.2       3 UNK        -0.5279 
     29 N          24.5168  -26.3914  -44.1698 N.am      4 UNK        -0.4463 
     30 CA         25.5129  -26.0041  -43.1588 C.3       4 UNK         0.0283 
     31 CB         26.7507  -26.9235  -43.2315 C.3       4 UNK        -0.1875 
     32 C          24.9148  -25.9074  -41.7391 C.2       4 UNK         0.4949 
     33 O          25.5354  -26.3562  -40.7746 O.2       4 UNK        -0.5039 
     34 N          23.7080  -25.3248  -41.6609 N.am      5 UNK        -0.4663 
     35 CA         22.8535  -25.1910  -40.4759 C.3       5 UNK         0.0242 
     36 CB         23.5066  -24.2733  -39.4190 C.3       5 UNK        -0.1982 
     37 C          22.4257  -26.5618  -39.9170 C.2       5 UNK         0.5017 
     38 O          22.6690  -26.8528  -38.7441 O.2       5 UNK        -0.5012 
     39 N          21.7850  -27.3639  -40.7812 N.am      6 UNK        -0.4439 
     40 CA         21.2340  -28.6977  -40.5176 C.3       6 UNK         0.0297 
     41 CB         20.0578  -28.6059  -39.5204 C.3       6 UNK        -0.2006 
     42 C          22.3054  -29.7169  -40.0820 C.2       6 UNK         0.4892 
     43 O          22.1602  -30.3603  -39.0395 O.2       6 UNK        -0.5089 
     44 N          23.3741  -29.8423  -40.8781 N.am      7 UNK        -0.4243 
     45 CA         24.4141  -30.8505  -40.6809 C.3       7 UNK         0.0196 
     46 CB         25.7191  -30.3636  -41.3302 C.3       7 UNK        -0.2007 
     47 C          23.9869  -32.2004  -41.2807 C.2       7 UNK         0.5020 
     48 O          23.3523  -32.2295  -42.3372 O.2       7 UNK        -0.5147 
     49 N          24.4027  -33.2904  -40.6189 N.am      8 UNK        -0.4734 
     50 CA         24.2743  -34.6934  -41.0446 C.3       8 UNK         0.0238 
     51 CB         25.1599  -34.9616  -42.2816 C.3       8 UNK        -0.1912 
     52 C          22.8221  -35.1828  -41.2361 C.2       8 UNK         0.5038 
     53 O          22.5676  -36.0062  -42.1178 O.2       8 UNK        -0.5046 
     54 N          21.9000  -34.6922  -40.3970 N.am      9 UNK        -0.4200 
     55 CA         20.4796  -35.0924  -40.3922 C.3       9 UNK         0.0839 
     56 C          20.2059  -36.5126  -39.8155 C.2       9 UNK         0.5513 
     57 N          21.1571  -37.1609  -39.1535 N.am      9 UNK        -0.7519 
     58 O          19.1072  -37.0374  -39.9770 O.2       9 UNK        -0.4960 
     59 C59        19.5771  -34.0385  -39.6986 C.3       10 UNK        -0.0876 
     60 S60        19.7265  -32.3938  -40.4654 S.3       10 UNK        -0.2414 
     61 C61        18.2309  -32.3241  -41.4932 C.3       10 UNK         0.0169 
     62 H62        16.4215  -21.1626  -43.8668 H         1 UNK         0.0903 
     63 H63        14.7782  -21.3994  -44.4674 H         1 UNK         0.0903 
     64 H64        15.3574  -22.3363  -43.0890 H         1 UNK         0.0903 
     65 H65        15.8534  -24.4554  -43.6525 H         1 UNK         0.3096 
     66 H66        16.2353  -25.2556  -46.3794 H         1 UNK         0.1121 
     67 H67        16.5527  -27.5922  -45.2948 H         1 UNK         0.0849 
     68 H68        15.0265  -26.8077  -45.1897 H         1 UNK         0.0849 
     69 H69        18.3868  -26.6840  -42.9415 H         1 UNK         0.0865 
     70 H70        17.7452  -27.3223  -41.4656 H         1 UNK         0.0865 
     71 H71        17.4621  -29.7292  -41.1256 H         1 UNK         0.1346 
     72 H72        19.2516  -32.3514  -44.0049 H         1 UNK         0.1412 
     73 H73        18.7609  -28.1940  -44.9073 H         1 UNK         0.1426 
     74 H74        18.9378  -30.7500  -46.7115 H         1 UNK         0.0716 
     75 H75        20.3446  -31.4372  -45.9333 H         1 UNK         0.0716 
     76 H76        22.5790  -29.8100  -45.1941 H         1 UNK         0.0695 
     77 H77        21.3717  -28.9696  -44.2580 H         1 UNK         0.0695 
     78 H78        23.3109  -27.6830  -46.2300 H         1 UNK         0.0983 
     79 H79        21.9163  -25.9599  -46.3135 H         1 UNK         0.3095 
     80 H80        20.6431  -23.8831  -43.9669 H         1 UNK         0.0454 
     81 H81        20.3765  -22.9070  -46.2170 H         1 UNK         0.0851 
     82 H82        20.6456  -24.4660  -46.9786 H         1 UNK         0.0851 
     83 H83        21.9387  -23.6832  -46.0721 H         1 UNK         0.0851 
     84 H84        18.4588  -24.1705  -44.0355 H         1 UNK         0.2976 
     85 H85        24.3727  -25.7272  -44.9182 H         1 UNK         0.3116 
     86 H86        25.8398  -24.9957  -43.4172 H         1 UNK         0.0646 
     87 H87        26.5096  -27.9494  -42.9547 H         1 UNK         0.0847 
     88 H88        27.1756  -26.9388  -44.2349 H         1 UNK         0.0847 
     89 H89        27.5341  -26.5805  -42.5546 H         1 UNK         0.0847 
     90 H90        23.2914  -25.0191  -42.5285 H         1 UNK         0.3040 
     91 H91        21.9369  -24.7004  -40.8086 H         1 UNK         0.1015 
     92 H92        22.8242  -24.0930  -38.5874 H         1 UNK         0.0786 
     93 H93        23.7651  -23.3026  -39.8418 H         1 UNK         0.0786 
     94 H94        24.4144  -24.7101  -39.0020 H         1 UNK         0.0786 
     95 H95        21.6391  -27.0214  -41.7298 H         1 UNK         0.3172 
     96 H96        20.8349  -29.0559  -41.4683 H         1 UNK         0.0595 
     97 H97        20.3928  -28.3235  -38.5220 H         1 UNK         0.0839 
     98 H98        19.5491  -29.5658  -39.4299 H         1 UNK         0.0839 
     99 H99        19.3181  -27.8749  -39.8412 H         1 UNK         0.0839 
    100 H100       23.4335  -29.2944  -41.7355 H         1 UNK         0.2998 
    101 H101       24.5927  -30.9721  -39.6102 H         1 UNK         0.0822 
    102 H102       26.5336  -31.0655  -41.1473 H         1 UNK         0.0787 
    103 H103       26.0239  -29.3967  -40.9283 H         1 UNK         0.0787 
    104 H104       25.6146  -30.2596  -42.4110 H         1 UNK         0.0787 
    105 H105       24.9081  -33.1500  -39.7540 H         1 UNK         0.3055 
    106 H106       24.6752  -35.2950  -40.2271 H         1 UNK         0.1106 
    107 H107       24.7888  -34.4402  -43.1645 H         1 UNK         0.0828 
    108 H108       26.1882  -34.6428  -42.1114 H         1 UNK         0.0828 
    109 H109       25.1899  -36.0253  -42.5215 H         1 UNK         0.0828 
    110 H110       22.1761  -34.0007  -39.7160 H         1 UNK         0.2931 
    111 H111       20.1617  -35.1383  -41.4360 H         1 UNK         0.0412 
    112 H112       22.0608  -36.7400  -39.0104 H         1 UNK         0.3472 
    113 H113       20.9655  -38.0813  -38.7891 H         1 UNK         0.3472 
    114 H114       18.5294  -34.3453  -39.7211 H         1 UNK         0.0970 
    115 H115       19.8410  -33.9481  -38.6434 H         1 UNK         0.0970 
    116 H116       17.3526  -32.2154  -40.8553 H         1 UNK         0.0612 
    117 H117       18.1137  -33.2641  -42.0350 H         1 UNK         0.0612 
@<TRIPOS>BOND
     1    1    2 1    
     2    1   62 1    
     3    1   63 1    
     4    1   64 1    
     5    2    3 2    
     6    2    4 am   BACKBONE|DICT|INTERRES
     7    4    5 1    
     8    4   65 1    
     9    5    6 1    
    10    5   25 1    
    11    5   66 1    
    12    6    7 1    
    13    6   67 1    
    14    6   68 1    
    15    7    8 1    
    16    8    9 1    
    17    8   69 1    
    18    8   70 1    
    19    9   10 ar   
    20    9   14 ar   
    21   10   11 ar   
    22   10   71 1    
    23   11   12 ar   
    24   11   61 1    
    25   12   13 ar   
    26   12   72 1    
    27   13   14 ar   
    28   13   15 1    
    29   14   73 1    
    30   15   16 1    
    31   15   74 1    
    32   15   75 1    
    33   16   17 1    
    34   17   18 1    
    35   17   76 1    
    36   17   77 1    
    37   18   19 1    
    38   18   27 1    
    39   18   78 1    
    40   19   20 am   BACKBONE|DICT|INTERRES
    41   19   79 1    
    42   20   21 2    
    43   20   22 1    
    44   22   23 1    
    45   22   24 1    
    46   22   80 1    
    47   23   81 1    
    48   23   82 1    
    49   23   83 1    
    50   24   25 am   BACKBONE|DICT|INTERRES
    51   24   84 1    
    52   25   26 2    
    53   27   28 2    
    54   27   29 am   BACKBONE|DICT|INTERRES
    55   29   30 1    
    56   29   85 1    
    57   30   31 1    
    58   30   32 1    
    59   30   86 1    
    60   31   87 1    
    61   31   88 1    
    62   31   89 1    
    63   32   33 2    
    64   32   34 am   BACKBONE|DICT|INTERRES
    65   34   35 1    
    66   34   90 1    
    67   35   36 1    
    68   35   37 1    
    69   35   91 1    
    70   36   92 1    
    71   36   93 1    
    72   36   94 1    
    73   37   38 2    
    74   37   39 am   BACKBONE|DICT|INTERRES
    75   39   40 1    
    76   39   95 1    
    77   40   41 1    
    78   40   42 1    
    79   40   96 1    
    80   41   97 1    
    81   41   98 1    
    82   41   99 1    
    83   42   43 2    
    84   42   44 am   BACKBONE|DICT|INTERRES
    85   44   45 1    
    86   44  100 1    
    87   45   46 1    
    88   45   47 1    
    89   45  101 1    
    90   46  102 1    
    91   46  103 1    
    92   46  104 1    
    93   47   48 2    
    94   47   49 am   BACKBONE|DICT|INTERRES
    95   49   50 1    
    96   49  105 1    
    97   50   51 1    
    98   50   52 1    
    99   50  106 1    
   100   51  107 1    
   101   51  108 1    
   102   51  109 1    
   103   52   53 2    
   104   52   54 am   BACKBONE|DICT|INTERRES
   105   54   55 1    
   106   54  110 1    
   107   55   56 1    
   108   55   59 1    
   109   55  111 1    
   110   56   57 am   BACKBONE|DICT|INTERRES
   111   56   58 2    
   112   57  112 1    
   113   57  113 1    
   114   59   60 1    
   115   59  114 1    
   116   59  115 1    
   117   60   61 1    
   118   61  116 1    
   119   61  117 1    
@<TRIPOS>SUBSTRUCTURE
     1 UNK         1 GROUP             0       ****    0 ROOT    
