@<TRIPOS>MOLECULE
3R8
117   119    1
SMALL
USER_CHARGES


@<TRIPOS>ATOM
      1 CA         14.6577  -23.7075  -42.6806 C.3       0 UNK        -0.2013 
      2 C          15.3402  -24.9468  -43.2388 C.2       0 UNK         0.4866 
      3 O          16.4853  -24.8690  -43.6839 O.2       0 UNK        -0.5176 
      4 N          14.6543  -26.0970  -43.2106 N.am      1 UNK        -0.4884 
      5 CA         15.1410  -27.3962  -43.6916 C.3       1 UNK         0.0853 
      6 C6         13.9462  -28.2928  -44.1125 C.3       10 UNK        -0.0849 
      7 S7         14.3702  -29.8557  -44.9592 S.3       10 UNK        -0.2776 
      8 C8         15.2109  -29.2980  -46.4792 C.3       10 UNK         0.0316 
      9 C9         16.7143  -29.1114  -46.2940 C.ar      10 UNK        -0.0863 
     10 C10        17.4932  -30.1312  -45.7362 C.ar      10 UNK        -0.1009 
     11 C11        18.8764  -29.9832  -45.6067 C.ar      10 UNK        -0.0712 
     12 C12        19.4872  -28.8094  -46.0528 C.ar      10 UNK        -0.0894 
     13 C13        18.7226  -27.7784  -46.6084 C.ar      10 UNK        -0.0745 
     14 C14        17.3373  -27.9350  -46.7239 C.ar      10 UNK        -0.0972 
     15 C15        19.3895  -26.5118  -47.1261 C.3       10 UNK         0.0209 
     16 S16        19.6136  -25.2662  -45.8172 S.3       10 UNK        -0.2568 
     17 C17        21.1601  -25.8309  -45.0313 C.3       10 UNK        -0.0983 
     18 CA         21.0633  -25.9412  -43.4900 C.3       3 UNK         0.0876 
     19 N          19.9394  -26.7718  -43.0416 N.am      3 UNK        -0.4424 
     20 C          19.5103  -26.8310  -41.7731 C.2       2 UNK         0.4918 
     21 O          20.0008  -26.1667  -40.8577 O.2       2 UNK        -0.4875 
     22 CA         18.2970  -27.7321  -41.4987 C.3       2 UNK         0.0481 
     23 CB         17.8195  -27.6556  -40.0312 C.3       2 UNK        -0.1831 
     24 N          17.2269  -27.3603  -42.4206 N.am      2 UNK        -0.4498 
     25 C          16.0993  -28.0381  -42.6598 C.2       1 UNK         0.5027 
     26 O          15.7924  -29.0809  -42.0794 O.2       1 UNK        -0.4969 
     27 C          22.3972  -26.4636  -42.9209 C.2       3 UNK         0.5005 
     28 O          22.5698  -27.6768  -42.7779 O.2       3 UNK        -0.5279 
     29 N          23.3426  -25.5488  -42.6665 N.am      4 UNK        -0.4463 
     30 CA         24.6641  -25.8102  -42.0795 C.3       4 UNK         0.0283 
     31 CB         25.2214  -24.4930  -41.5072 C.3       4 UNK        -0.1875 
     32 C          25.6685  -26.5096  -43.0252 C.2       4 UNK         0.4949 
     33 O          26.8657  -26.2261  -42.9650 O.2       4 UNK        -0.5039 
     34 N          25.1786  -27.4268  -43.8677 N.am      5 UNK        -0.4663 
     35 CA         25.9878  -28.3340  -44.6868 C.3       5 UNK         0.0242 
     36 CB         25.1165  -28.8994  -45.8203 C.3       5 UNK        -0.1982 
     37 C          26.5886  -29.4736  -43.8438 C.2       5 UNK         0.5017 
     38 O          27.6706  -29.9664  -44.1635 O.2       5 UNK        -0.5012 
     39 N          25.8795  -29.8463  -42.7738 N.am      6 UNK        -0.4439 
     40 CA         26.2582  -30.7962  -41.7376 C.3       6 UNK         0.0297 
     41 CB         26.0943  -32.2396  -42.2459 C.3       6 UNK        -0.2006 
     42 C          25.3554  -30.5144  -40.5308 C.2       6 UNK         0.4892 
     43 O          24.2877  -29.9177  -40.7039 O.2       6 UNK        -0.5089 
     44 N          25.7906  -30.9407  -39.3377 N.am      7 UNK        -0.4243 
     45 CA         25.0793  -30.7647  -38.0666 C.3       7 UNK         0.0196 
     46 CB         25.9426  -31.3183  -36.9199 C.3       7 UNK        -0.2007 
     47 C          23.6950  -31.4342  -38.0977 C.2       7 UNK         0.5020 
     48 O          23.6179  -32.6638  -38.0805 O.2       7 UNK        -0.5147 
     49 N          22.6421  -30.6115  -38.2182 N.am      8 UNK        -0.4734 
     50 CA         21.2374  -30.9970  -38.4249 C.3       8 UNK         0.0238 
     51 CB         20.6554  -31.6217  -37.1387 C.3       8 UNK        -0.1912 
     52 C          21.0314  -31.8882  -39.6700 C.2       8 UNK         0.5038 
     53 O          20.2094  -32.8056  -39.6344 O.2       8 UNK        -0.5046 
     54 N          21.8088  -31.6165  -40.7291 N.am      9 UNK        -0.4200 
     55 CA         21.9155  -32.4108  -41.9658 C.3       9 UNK         0.0839 
     56 C          22.6222  -33.7906  -41.7861 C.2       9 UNK         0.5513 
     57 N          23.2428  -34.0932  -40.6515 N.am      9 UNK        -0.7519 
     58 O          22.6446  -34.5963  -42.7129 O.2       9 UNK        -0.4960 
     59 C59        20.5769  -32.5379  -42.7518 C.3       10 UNK        -0.0876 
     60 S60        19.8423  -30.9287  -43.2020 S.3       10 UNK        -0.2414 
     61 C61        19.7100  -31.1033  -45.0065 C.3       10 UNK         0.0169 
     62 H62        15.2341  -23.3056  -41.8478 H         1 UNK         0.0903 
     63 H63        14.5898  -22.9390  -43.4502 H         1 UNK         0.0903 
     64 H64        13.6500  -23.9210  -42.3246 H         1 UNK         0.0903 
     65 H65        13.7313  -26.1056  -42.7986 H         1 UNK         0.3096 
     66 H66        15.7342  -27.2043  -44.5856 H         1 UNK         0.1121 
     67 H67        13.3379  -28.5402  -43.2404 H         1 UNK         0.0849 
     68 H68        13.2877  -27.7342  -44.7799 H         1 UNK         0.0849 
     69 H69        15.0552  -30.0491  -47.2547 H         1 UNK         0.0865 
     70 H70        14.7381  -28.3842  -46.8426 H         1 UNK         0.0865 
     71 H71        17.0214  -31.0461  -45.4040 H         1 UNK         0.1346 
     72 H72        20.5603  -28.7122  -45.9753 H         1 UNK         0.1412 
     73 H73        16.7471  -27.1436  -47.1661 H         1 UNK         0.1426 
     74 H74        18.7806  -26.0720  -47.9175 H         1 UNK         0.0716 
     75 H75        20.3498  -26.7472  -47.5875 H         1 UNK         0.0716 
     76 H76        21.4749  -26.7794  -45.4651 H         1 UNK         0.0695 
     77 H77        21.9373  -25.1151  -45.3060 H         1 UNK         0.0695 
     78 H78        20.8964  -24.9378  -43.0912 H         1 UNK         0.0983 
     79 H79        19.5004  -27.3509  -43.7426 H         1 UNK         0.3095 
     80 H80        18.5981  -28.7580  -41.7111 H         1 UNK         0.0454 
     81 H81        18.6301  -27.8994  -39.3434 H         1 UNK         0.0851 
     82 H82        17.4633  -26.6567  -39.7773 H         1 UNK         0.0851 
     83 H83        17.0131  -28.3598  -39.8291 H         1 UNK         0.0851 
     84 H84        17.3482  -26.4756  -42.9092 H         1 UNK         0.2976 
     85 H85        23.1374  -24.5801  -42.8675 H         1 UNK         0.3116 
     86 H86        24.5191  -26.4932  -41.2394 H         1 UNK         0.0646 
     87 H87        26.1569  -24.6598  -40.9714 H         1 UNK         0.0847 
     88 H88        24.5274  -24.0408  -40.7984 H         1 UNK         0.0847 
     89 H89        25.4221  -23.7651  -42.2942 H         1 UNK         0.0847 
     90 H90        24.1848  -27.6272  -43.7936 H         1 UNK         0.3040 
     91 H91        26.8139  -27.7721  -45.1285 H         1 UNK         0.1015 
     92 H92        24.2678  -29.4662  -45.4346 H         1 UNK         0.0786 
     93 H93        25.6943  -29.5696  -46.4585 H         1 UNK         0.0786 
     94 H94        24.7274  -28.1033  -46.4553 H         1 UNK         0.0786 
     95 H95        25.0095  -29.3661  -42.5680 H         1 UNK         0.3172 
     96 H96        27.2958  -30.6174  -41.4482 H         1 UNK         0.0595 
     97 H97        26.2707  -32.9643  -41.4500 H         1 UNK         0.0839 
     98 H98        25.0917  -32.4161  -42.6339 H         1 UNK         0.0839 
     99 H99        26.8013  -32.4604  -43.0455 H         1 UNK         0.0839 
    100 H100       26.6646  -31.4449  -39.2946 H         1 UNK         0.2998 
    101 H101       24.9491  -29.6929  -37.9020 H         1 UNK         0.0822 
    102 H102       25.4359  -31.2028  -35.9607 H         1 UNK         0.0787 
    103 H103       26.1558  -32.3804  -37.0492 H         1 UNK         0.0787 
    104 H104       26.8941  -30.7911  -36.8481 H         1 UNK         0.0787 
    105 H105       22.8301  -29.6195  -38.2799 H         1 UNK         0.3055 
    106 H106       20.6865  -30.0761  -38.6244 H         1 UNK         0.1106 
    107 H107       21.1222  -32.5798  -36.9078 H         1 UNK         0.0828 
    108 H108       20.7945  -30.9651  -36.2800 H         1 UNK         0.0828 
    109 H109       19.5837  -31.7982  -37.2386 H         1 UNK         0.0828 
    110 H110       22.4858  -30.8644  -40.6473 H         1 UNK         0.2931 
    111 H111       22.5975  -31.8398  -42.5969 H         1 UNK         0.0412 
    112 H112       23.6989  -34.9878  -40.5718 H         1 UNK         0.3472 
    113 H113       23.2399  -33.4635  -39.8561 H         1 UNK         0.3472 
    114 H114       19.8417  -33.1040  -42.1788 H         1 UNK         0.0970 
    115 H115       20.7353  -33.1131  -43.6654 H         1 UNK         0.0970 
    116 H116       19.2561  -32.0658  -45.2479 H         1 UNK         0.0612 
    117 H117       20.7100  -31.1119  -45.4430 H         1 UNK         0.0612 
@<TRIPOS>BOND
     1    1    2 1    
     2    1   62 1    
     3    1   63 1    
     4    1   64 1    
     5    2    3 2    
     6    2    4 am   BACKBONE|DICT|INTERRES
     7    4    5 1    
     8    4   65 1    
     9    5    6 1    
    10    5   25 1    
    11    5   66 1    
    12    6    7 1    
    13    6   67 1    
    14    6   68 1    
    15    7    8 1    
    16    8    9 1    
    17    8   69 1    
    18    8   70 1    
    19    9   10 ar   
    20    9   14 ar   
    21   10   11 ar   
    22   10   71 1    
    23   11   12 ar   
    24   11   61 1    
    25   12   13 ar   
    26   12   72 1    
    27   13   14 ar   
    28   13   15 1    
    29   14   73 1    
    30   15   16 1    
    31   15   74 1    
    32   15   75 1    
    33   16   17 1    
    34   17   18 1    
    35   17   76 1    
    36   17   77 1    
    37   18   19 1    
    38   18   27 1    
    39   18   78 1    
    40   19   20 am   BACKBONE|DICT|INTERRES
    41   19   79 1    
    42   20   21 2    
    43   20   22 1    
    44   22   23 1    
    45   22   24 1    
    46   22   80 1    
    47   23   81 1    
    48   23   82 1    
    49   23   83 1    
    50   24   25 am   BACKBONE|DICT|INTERRES
    51   24   84 1    
    52   25   26 2    
    53   27   28 2    
    54   27   29 am   BACKBONE|DICT|INTERRES
    55   29   30 1    
    56   29   85 1    
    57   30   31 1    
    58   30   32 1    
    59   30   86 1    
    60   31   87 1    
    61   31   88 1    
    62   31   89 1    
    63   32   33 2    
    64   32   34 am   BACKBONE|DICT|INTERRES
    65   34   35 1    
    66   34   90 1    
    67   35   36 1    
    68   35   37 1    
    69   35   91 1    
    70   36   92 1    
    71   36   93 1    
    72   36   94 1    
    73   37   38 2    
    74   37   39 am   BACKBONE|DICT|INTERRES
    75   39   40 1    
    76   39   95 1    
    77   40   41 1    
    78   40   42 1    
    79   40   96 1    
    80   41   97 1    
    81   41   98 1    
    82   41   99 1    
    83   42   43 2    
    84   42   44 am   BACKBONE|DICT|INTERRES
    85   44   45 1    
    86   44  100 1    
    87   45   46 1    
    88   45   47 1    
    89   45  101 1    
    90   46  102 1    
    91   46  103 1    
    92   46  104 1    
    93   47   48 2    
    94   47   49 am   BACKBONE|DICT|INTERRES
    95   49   50 1    
    96   49  105 1    
    97   50   51 1    
    98   50   52 1    
    99   50  106 1    
   100   51  107 1    
   101   51  108 1    
   102   51  109 1    
   103   52   53 2    
   104   52   54 am   BACKBONE|DICT|INTERRES
   105   54   55 1    
   106   54  110 1    
   107   55   56 1    
   108   55   59 1    
   109   55  111 1    
   110   56   57 am   BACKBONE|DICT|INTERRES
   111   56   58 2    
   112   57  112 1    
   113   57  113 1    
   114   59   60 1    
   115   59  114 1    
   116   59  115 1    
   117   60   61 1    
   118   61  116 1    
   119   61  117 1    
@<TRIPOS>SUBSTRUCTURE
     1 UNK         1 GROUP             0       ****    0 ROOT    
