@<TRIPOS>MOLECULE
3R8
117   119    1
SMALL
USER_CHARGES


@<TRIPOS>ATOM
      1 CA         16.2198  -25.0937  -40.3121 C.3       0 UNK        -0.2013 
      2 C          16.7785  -24.7014  -41.6717 C.2       0 UNK         0.4866 
      3 O          16.9683  -23.5136  -41.9369 O.2       0 UNK        -0.5176 
      4 N          17.0320  -25.6903  -42.5378 N.am      1 UNK        -0.4884 
      5 CA         17.6210  -25.5162  -43.8714 C.3       1 UNK         0.0853 
      6 C6         17.5251  -26.8108  -44.7271 C.3       10 UNK        -0.0849 
      7 S7         15.8748  -27.5888  -44.7212 S.3       10 UNK        -0.2776 
      8 C8         16.0411  -28.8421  -46.0373 C.3       10 UNK         0.0316 
      9 C9         17.1726  -29.8359  -45.7889 C.ar      10 UNK        -0.0863 
     10 C10        17.1454  -30.6877  -44.6796 C.ar      10 UNK        -0.1009 
     11 C11        18.1737  -31.6133  -44.4625 C.ar      10 UNK        -0.0712 
     12 C12        19.2284  -31.6916  -45.3787 C.ar      10 UNK        -0.0894 
     13 C13        19.2659  -30.8501  -46.4943 C.ar      10 UNK        -0.0745 
     14 C14        18.2337  -29.9278  -46.6942 C.ar      10 UNK        -0.0972 
     15 C15        20.4033  -30.9606  -47.5024 C.3       10 UNK         0.0209 
     16 S16        21.9407  -30.1706  -46.9240 S.3       10 UNK        -0.2568 
     17 C17        21.4703  -28.4033  -46.8881 C.3       10 UNK        -0.0983 
     18 CA         22.1080  -27.5544  -45.7561 C.3       3 UNK         0.0876 
     19 N          21.4801  -26.2345  -45.6855 N.am      3 UNK        -0.4424 
     20 C          21.9586  -25.1814  -45.0085 C.2       2 UNK         0.4918 
     21 O          23.0599  -25.1550  -44.4602 O.2       2 UNK        -0.4875 
     22 CA         21.0148  -23.9689  -44.8865 C.3       2 UNK         0.0481 
     23 CB         21.2026  -23.0152  -46.0766 C.3       2 UNK        -0.1831 
     24 N          19.5990  -24.3521  -44.7747 N.am      2 UNK        -0.4498 
     25 C          19.0980  -25.0770  -43.7628 C.2       1 UNK         0.5027 
     26 O          19.7799  -25.4651  -42.8102 O.2       1 UNK        -0.4969 
     27 C          22.0897  -28.2360  -44.3702 C.2       3 UNK         0.5005 
     28 O          23.1450  -28.6522  -43.8937 O.2       3 UNK        -0.5279 
     29 N          20.9127  -28.2923  -43.7264 N.am      4 UNK        -0.4463 
     30 CA         20.6952  -28.9188  -42.4154 C.3       4 UNK         0.0283 
     31 CB         19.2132  -28.8440  -42.0188 C.3       4 UNK        -0.1875 
     32 C          21.5635  -28.3431  -41.2894 C.2       4 UNK         0.4949 
     33 O          22.0037  -29.1000  -40.4255 O.2       4 UNK        -0.5039 
     34 N          21.8276  -27.0316  -41.3434 N.am      5 UNK        -0.4663 
     35 CA         22.7337  -26.3219  -40.4383 C.3       5 UNK         0.0242 
     36 CB         22.6350  -24.8136  -40.7166 C.3       5 UNK        -0.1982 
     37 C          24.1990  -26.7942  -40.5227 C.2       5 UNK         0.5017 
     38 O          24.9174  -26.6776  -39.5293 O.2       5 UNK        -0.5012 
     39 N          24.6129  -27.3174  -41.6856 N.am      6 UNK        -0.4439 
     40 CA         25.9379  -27.8945  -41.9154 C.3       6 UNK         0.0297 
     41 CB         26.4251  -27.5100  -43.3224 C.3       6 UNK        -0.2006 
     42 C          25.9215  -29.4222  -41.7466 C.2       6 UNK         0.4892 
     43 O          26.8463  -29.9706  -41.1465 O.2       6 UNK        -0.5089 
     44 N          24.8839  -30.0809  -42.2830 N.am      7 UNK        -0.4243 
     45 CA         24.7099  -31.5358  -42.2734 C.3       7 UNK         0.0196 
     46 CB         23.6140  -31.9197  -43.2820 C.3       7 UNK        -0.2007 
     47 C          24.3877  -32.1195  -40.8873 C.2       7 UNK         0.5020 
     48 O          24.7025  -33.2861  -40.6510 O.2       7 UNK        -0.5147 
     49 N          23.7706  -31.3121  -40.0109 N.am      8 UNK        -0.4734 
     50 CA         23.3132  -31.6457  -38.6570 C.3       8 UNK         0.0238 
     51 CB         24.5061  -31.9633  -37.7293 C.3       8 UNK        -0.1912 
     52 C          22.2372  -32.7474  -38.6718 C.2       8 UNK         0.5038 
     53 O          22.4053  -33.7861  -38.0288 O.2       8 UNK        -0.5046 
     54 N          21.1635  -32.4984  -39.4349 N.am      9 UNK        -0.4200 
     55 CA         19.9964  -33.3828  -39.5918 C.3       9 UNK         0.0839 
     56 C          19.3035  -33.7265  -38.2434 C.2       9 UNK         0.5513 
     57 N          18.8503  -34.9611  -38.0749 N.am      9 UNK        -0.7519 
     58 O          19.1305  -32.8720  -37.3764 O.2       9 UNK        -0.4960 
     59 C59        18.9548  -32.7887  -40.5756 C.3       10 UNK        -0.0876 
     60 S60        19.6325  -32.4539  -42.2345 S.3       10 UNK        -0.2414 
     61 C61        18.1226  -32.5420  -43.2536 C.3       10 UNK         0.0169 
     62 H62        16.0913  -26.1720  -40.2194 H         1 UNK         0.0903 
     63 H63        16.8932  -24.7637  -39.5215 H         1 UNK         0.0903 
     64 H64        15.2504  -24.6218  -40.1540 H         1 UNK         0.0903 
     65 H65        16.8346  -26.6450  -42.2758 H         1 UNK         0.3096 
     66 H66        17.0629  -24.7234  -44.3747 H         1 UNK         0.1121 
     67 H67        17.7983  -26.5979  -45.7624 H         1 UNK         0.0849 
     68 H68        18.2306  -27.5624  -44.3759 H         1 UNK         0.0849 
     69 H69        15.1021  -29.3915  -46.1180 H         1 UNK         0.0865 
     70 H70        16.1742  -28.3316  -46.9925 H         1 UNK         0.0865 
     71 H71        16.3199  -30.6241  -43.9836 H         1 UNK         0.1346 
     72 H72        20.0229  -32.4085  -45.2220 H         1 UNK         0.1412 
     73 H73        18.2533  -29.2854  -47.5642 H         1 UNK         0.1426 
     74 H74        20.1150  -30.5234  -48.4597 H         1 UNK         0.0716 
     75 H75        20.6059  -32.0141  -47.7008 H         1 UNK         0.0716 
     76 H76        21.7300  -27.9715  -47.8559 H         1 UNK         0.0695 
     77 H77        20.3865  -28.3307  -46.8202 H         1 UNK         0.0695 
     78 H78        23.1594  -27.4057  -46.0133 H         1 UNK         0.0983 
     79 H79        20.5813  -26.1381  -46.1320 H         1 UNK         0.3095 
     80 H80        21.2864  -23.4319  -43.9750 H         1 UNK         0.0454 
     81 H81        22.2443  -22.7030  -46.1643 H         1 UNK         0.0851 
     82 H82        20.9226  -23.4824  -47.0214 H         1 UNK         0.0851 
     83 H83        20.6058  -22.1106  -45.9586 H         1 UNK         0.0851 
     84 H84        18.9876  -24.0579  -45.5236 H         1 UNK         0.2976 
     85 H85        20.1020  -27.9068  -44.1808 H         1 UNK         0.3116 
     86 H86        20.9678  -29.9672  -42.5249 H         1 UNK         0.0646 
     87 H87        19.0381  -29.3698  -41.0794 H         1 UNK         0.0847 
     88 H88        18.5748  -29.3106  -42.7655 H         1 UNK         0.0847 
     89 H89        18.8820  -27.8159  -41.8782 H         1 UNK         0.0847 
     90 H90        21.3493  -26.4766  -42.0470 H         1 UNK         0.3040 
     91 H91        22.3925  -26.5077  -39.4176 H         1 UNK         0.1015 
     92 H92        21.6136  -24.4530  -40.5915 H         1 UNK         0.0786 
     93 H93        22.9529  -24.5704  -41.7312 H         1 UNK         0.0786 
     94 H94        23.2663  -24.2468  -40.0309 H         1 UNK         0.0786 
     95 H95        23.9401  -27.4167  -42.4385 H         1 UNK         0.3172 
     96 H96        26.6507  -27.4858  -41.1960 H         1 UNK         0.0595 
     97 H97        27.4198  -27.9144  -43.5142 H         1 UNK         0.0839 
     98 H98        26.4874  -26.4276  -43.4365 H         1 UNK         0.0839 
     99 H99        25.7632  -27.8889  -44.1021 H         1 UNK         0.0839 
    100 H100       24.1920  -29.5484  -42.8106 H         1 UNK         0.2998 
    101 H101       25.6488  -31.9842  -42.6052 H         1 UNK         0.0822 
    102 H102       22.6464  -31.5037  -43.0027 H         1 UNK         0.0787 
    103 H103       23.8518  -31.5637  -44.2848 H         1 UNK         0.0787 
    104 H104       23.4968  -33.0026  -43.3401 H         1 UNK         0.0787 
    105 H105       23.4873  -30.3914  -40.3351 H         1 UNK         0.3055 
    106 H106       22.8272  -30.7499  -38.2661 H         1 UNK         0.1106 
    107 H107       25.0267  -32.8734  -38.0283 H         1 UNK         0.0828 
    108 H108       25.2308  -31.1492  -37.7242 H         1 UNK         0.0828 
    109 H109       24.1709  -32.1059  -36.7013 H         1 UNK         0.0828 
    110 H110       21.1254  -31.6237  -39.9377 H         1 UNK         0.2931 
    111 H111       20.3731  -34.3129  -40.0225 H         1 UNK         0.0412 
    112 H112       18.3822  -35.1990  -37.2140 H         1 UNK         0.3472 
    113 H113       18.9792  -35.6655  -38.7853 H         1 UNK         0.3472 
    114 H114       18.5388  -31.8594  -40.1814 H         1 UNK         0.0970 
    115 H115       18.1143  -33.4776  -40.6829 H         1 UNK         0.0970 
    116 H116       17.9803  -33.5689  -43.5921 H         1 UNK         0.0612 
    117 H117       17.2586  -32.2965  -42.6342 H         1 UNK         0.0612 
@<TRIPOS>BOND
     1    1    2 1    
     2    1   62 1    
     3    1   63 1    
     4    1   64 1    
     5    2    3 2    
     6    2    4 am   BACKBONE|DICT|INTERRES
     7    4    5 1    
     8    4   65 1    
     9    5    6 1    
    10    5   25 1    
    11    5   66 1    
    12    6    7 1    
    13    6   67 1    
    14    6   68 1    
    15    7    8 1    
    16    8    9 1    
    17    8   69 1    
    18    8   70 1    
    19    9   10 ar   
    20    9   14 ar   
    21   10   11 ar   
    22   10   71 1    
    23   11   12 ar   
    24   11   61 1    
    25   12   13 ar   
    26   12   72 1    
    27   13   14 ar   
    28   13   15 1    
    29   14   73 1    
    30   15   16 1    
    31   15   74 1    
    32   15   75 1    
    33   16   17 1    
    34   17   18 1    
    35   17   76 1    
    36   17   77 1    
    37   18   19 1    
    38   18   27 1    
    39   18   78 1    
    40   19   20 am   BACKBONE|DICT|INTERRES
    41   19   79 1    
    42   20   21 2    
    43   20   22 1    
    44   22   23 1    
    45   22   24 1    
    46   22   80 1    
    47   23   81 1    
    48   23   82 1    
    49   23   83 1    
    50   24   25 am   BACKBONE|DICT|INTERRES
    51   24   84 1    
    52   25   26 2    
    53   27   28 2    
    54   27   29 am   BACKBONE|DICT|INTERRES
    55   29   30 1    
    56   29   85 1    
    57   30   31 1    
    58   30   32 1    
    59   30   86 1    
    60   31   87 1    
    61   31   88 1    
    62   31   89 1    
    63   32   33 2    
    64   32   34 am   BACKBONE|DICT|INTERRES
    65   34   35 1    
    66   34   90 1    
    67   35   36 1    
    68   35   37 1    
    69   35   91 1    
    70   36   92 1    
    71   36   93 1    
    72   36   94 1    
    73   37   38 2    
    74   37   39 am   BACKBONE|DICT|INTERRES
    75   39   40 1    
    76   39   95 1    
    77   40   41 1    
    78   40   42 1    
    79   40   96 1    
    80   41   97 1    
    81   41   98 1    
    82   41   99 1    
    83   42   43 2    
    84   42   44 am   BACKBONE|DICT|INTERRES
    85   44   45 1    
    86   44  100 1    
    87   45   46 1    
    88   45   47 1    
    89   45  101 1    
    90   46  102 1    
    91   46  103 1    
    92   46  104 1    
    93   47   48 2    
    94   47   49 am   BACKBONE|DICT|INTERRES
    95   49   50 1    
    96   49  105 1    
    97   50   51 1    
    98   50   52 1    
    99   50  106 1    
   100   51  107 1    
   101   51  108 1    
   102   51  109 1    
   103   52   53 2    
   104   52   54 am   BACKBONE|DICT|INTERRES
   105   54   55 1    
   106   54  110 1    
   107   55   56 1    
   108   55   59 1    
   109   55  111 1    
   110   56   57 am   BACKBONE|DICT|INTERRES
   111   56   58 2    
   112   57  112 1    
   113   57  113 1    
   114   59   60 1    
   115   59  114 1    
   116   59  115 1    
   117   60   61 1    
   118   61  116 1    
   119   61  117 1    
@<TRIPOS>SUBSTRUCTURE
     1 UNK         1 GROUP             0       ****    0 ROOT    
