@<TRIPOS>MOLECULE
3R8
117   119    1
SMALL
USER_CHARGES


@<TRIPOS>ATOM
      1 CA         22.7490  -22.2341  -46.2747 C.3       0 UNK        -0.2013 
      2 C          22.2854  -23.0943  -45.1089 C.2       0 UNK         0.4866 
      3 O          22.1321  -22.5884  -43.9973 O.2       0 UNK        -0.5176 
      4 N          22.0630  -24.3924  -45.3531 N.am      1 UNK        -0.4884 
      5 CA         21.5841  -25.3625  -44.3605 C.3       1 UNK         0.0853 
      6 C6         21.8132  -26.8223  -44.8289 C.3       10 UNK        -0.0849 
      7 S7         21.0427  -27.2255  -46.4379 S.3       10 UNK        -0.2776 
      8 C8         21.3688  -29.0130  -46.5547 C.3       10 UNK         0.0316 
      9 C9         20.4364  -29.8145  -45.6586 C.ar      10 UNK        -0.0863 
     10 C10        20.8701  -30.2614  -44.4071 C.ar      10 UNK        -0.1009 
     11 C11        20.0160  -30.9909  -43.5752 C.ar      10 UNK        -0.0712 
     12 C12        18.7185  -31.2771  -44.0125 C.ar      10 UNK        -0.0894 
     13 C13        18.2668  -30.8265  -45.2575 C.ar      10 UNK        -0.0745 
     14 C14        19.1349  -30.1029  -46.0807 C.ar      10 UNK        -0.0972 
     15 C15        16.8273  -31.0789  -45.6868 C.3       10 UNK         0.0209 
     16 S16        15.6240  -30.3866  -44.5007 S.3       10 UNK        -0.2568 
     17 C17        15.8495  -28.5836  -44.6986 C.3       10 UNK        -0.0983 
     18 CA         17.0094  -27.9917  -43.8482 C.3       3 UNK         0.0876 
     19 N          17.5429  -26.7534  -44.4184 N.am      3 UNK        -0.4424 
     20 C          16.9691  -25.5424  -44.4004 C.2       2 UNK         0.4918 
     21 O          15.8024  -25.3454  -44.0592 O.2       2 UNK        -0.4875 
     22 CA         17.8572  -24.3398  -44.7968 C.3       2 UNK         0.0481 
     23 CB         17.6363  -23.1438  -43.8478 C.3       2 UNK        -0.1831 
     24 N          19.2969  -24.6340  -44.9029 N.am      2 UNK        -0.4498 
     25 C          20.1129  -25.1328  -43.9574 C.2       1 UNK         0.5027 
     26 O          19.7363  -25.4571  -42.8305 O.2       1 UNK        -0.4969 
     27 C          16.7340  -27.8745  -42.3272 C.2       3 UNK         0.5005 
     28 O          15.7632  -28.4422  -41.8224 O.2       3 UNK        -0.5279 
     29 N          17.5954  -27.1271  -41.6192 N.am      4 UNK        -0.4463 
     30 CA         17.4961  -26.8747  -40.1793 C.3       4 UNK         0.0283 
     31 CB         16.6527  -25.6058  -39.9497 C.3       4 UNK        -0.1875 
     32 C          18.8725  -26.7676  -39.4971 C.2       4 UNK         0.4949 
     33 O          18.9258  -26.4243  -38.3153 O.2       4 UNK        -0.5039 
     34 N          19.9598  -27.0423  -40.2270 N.am      5 UNK        -0.4663 
     35 CA         21.3452  -26.8857  -39.7905 C.3       5 UNK         0.0242 
     36 CB         21.7215  -25.3863  -39.7905 C.3       5 UNK        -0.1982 
     37 C          22.2639  -27.7052  -40.7113 C.2       5 UNK         0.5017 
     38 O          21.7693  -28.4049  -41.5978 O.2       5 UNK        -0.5012 
     39 N          23.5784  -27.5638  -40.4888 N.am      6 UNK        -0.4439 
     40 CA         24.7124  -28.1959  -41.1759 C.3       6 UNK         0.0297 
     41 CB         24.6049  -28.0957  -42.7121 C.3       6 UNK        -0.2006 
     42 C          24.9792  -29.6385  -40.7153 C.2       6 UNK         0.4892 
     43 O          24.0864  -30.3263  -40.2150 O.2       6 UNK        -0.5089 
     44 N          26.2362  -30.0637  -40.9044 N.am      7 UNK        -0.4243 
     45 CA         26.7828  -31.3553  -40.4731 C.3       7 UNK         0.0196 
     46 CB         28.3132  -31.3221  -40.6201 C.3       7 UNK        -0.2007 
     47 C          26.2021  -32.5799  -41.2016 C.2       7 UNK         0.5020 
     48 O          26.3771  -33.6978  -40.7165 O.2       7 UNK        -0.5147 
     49 N          25.5059  -32.3631  -42.3272 N.am      8 UNK        -0.4734 
     50 CA         24.8291  -33.3919  -43.1275 C.3       8 UNK         0.0238 
     51 CB         24.1919  -32.7280  -44.3597 C.3       8 UNK        -0.1912 
     52 C          23.7709  -34.2041  -42.3554 C.2       8 UNK         0.5038 
     53 O          23.5168  -35.3528  -42.7204 O.2       8 UNK        -0.5046 
     54 N          23.1974  -33.6008  -41.3075 N.am      9 UNK        -0.4200 
     55 CA         22.2414  -34.2237  -40.3805 C.3       9 UNK         0.0839 
     56 C          22.8808  -34.6027  -39.0127 C.2       9 UNK         0.5513 
     57 N          24.1966  -34.5360  -38.8423 N.am      9 UNK        -0.7519 
     58 O          22.1714  -34.9854  -38.0858 O.2       9 UNK        -0.4960 
     59 C59        20.9711  -33.3492  -40.2123 C.3       10 UNK        -0.0876 
     60 S60        20.0813  -33.1408  -41.7914 S.3       10 UNK        -0.2414 
     61 C61        20.4873  -31.4103  -42.1873 C.3       10 UNK         0.0169 
     62 H62        22.8473  -22.8108  -47.1942 H         1 UNK         0.0903 
     63 H63        22.0362  -21.4295  -46.4536 H         1 UNK         0.0903 
     64 H64        23.7172  -21.7877  -46.0495 H         1 UNK         0.0903 
     65 H65        22.2085  -24.7619  -46.2830 H         1 UNK         0.3096 
     66 H66        22.1714  -25.2169  -43.4505 H         1 UNK         0.1121 
     67 H67        21.4533  -27.5207  -44.0724 H         1 UNK         0.0849 
     68 H68        22.8837  -27.0093  -44.9189 H         1 UNK         0.0849 
     69 H69        21.2355  -29.3283  -47.5906 H         1 UNK         0.0865 
     70 H70        22.4129  -29.2149  -46.3097 H         1 UNK         0.0865 
     71 H71        21.8683  -30.0208  -44.0682 H         1 UNK         0.1346 
     72 H72        18.0427  -31.8219  -43.3675 H         1 UNK         0.1412 
     73 H73        18.7934  -29.7429  -47.0419 H         1 UNK         0.1426 
     74 H74        16.6672  -32.1552  -45.7623 H         1 UNK         0.0716 
     75 H75        16.6322  -30.6675  -46.6784 H         1 UNK         0.0716 
     76 H76        14.9091  -28.0828  -44.4623 H         1 UNK         0.0695 
     77 H77        16.0272  -28.3909  -45.7578 H         1 UNK         0.0695 
     78 H78        17.8526  -28.6739  -43.9004 H         1 UNK         0.0983 
     79 H79        18.4974  -26.8036  -44.7447 H         1 UNK         0.3095 
     80 H80        17.5343  -24.0398  -45.7944 H         1 UNK         0.0454 
     81 H81        18.2465  -22.2886  -44.1381 H         1 UNK         0.0851 
     82 H82        17.8835  -23.3965  -42.8161 H         1 UNK         0.0851 
     83 H83        16.5963  -22.8156  -43.8612 H         1 UNK         0.0851 
     84 H84        19.7131  -24.4426  -45.8041 H         1 UNK         0.2976 
     85 H85        18.3364  -26.6274  -42.1057 H         1 UNK         0.3116 
     86 H86        16.9930  -27.7161  -39.6983 H         1 UNK         0.0646 
     87 H87        17.1232  -24.7285  -40.3953 H         1 UNK         0.0847 
     88 H88        15.6570  -25.7069  -40.3818 H         1 UNK         0.0847 
     89 H89        16.5218  -25.4037  -38.8859 H         1 UNK         0.0847 
     90 H90        19.8691  -27.3959  -41.1708 H         1 UNK         0.3040 
     91 H91        21.4445  -27.2902  -38.7809 H         1 UNK         0.1015 
     92 H92        22.7290  -25.2199  -39.4091 H         1 UNK         0.0786 
     93 H93        21.0502  -24.8048  -39.1586 H         1 UNK         0.0786 
     94 H94        21.6757  -24.9638  -40.7951 H         1 UNK         0.0786 
     95 H95        23.8442  -26.9787  -39.7091 H         1 UNK         0.3172 
     96 H96        25.5798  -27.6058  -40.8751 H         1 UNK         0.0595 
     97 H97        23.8176  -28.7349  -43.1117 H         1 UNK         0.0839 
     98 H98        25.5355  -28.4000  -43.1922 H         1 UNK         0.0839 
     99 H99        24.4040  -27.0717  -43.0255 H         1 UNK         0.0839 
    100 H100       26.8942  -29.4290  -41.3347 H         1 UNK         0.2998 
    101 H101       26.5442  -31.4766  -39.4141 H         1 UNK         0.0822 
    102 H102       28.7606  -32.2547  -40.2726 H         1 UNK         0.0787 
    103 H103       28.7526  -30.5174  -40.0302 H         1 UNK         0.0787 
    104 H104       28.6160  -31.1835  -41.6588 H         1 UNK         0.0787 
    105 H105       25.4180  -31.4095  -42.6459 H         1 UNK         0.3055 
    106 H106       25.5902  -34.0979  -43.4669 H         1 UNK         0.1106 
    107 H107       23.4348  -31.9962  -44.0763 H         1 UNK         0.0828 
    108 H108       24.9383  -32.2225  -44.9726 H         1 UNK         0.0828 
    109 H109       23.7035  -33.4694  -44.9938 H         1 UNK         0.0828 
    110 H110       23.4932  -32.6633  -41.0711 H         1 UNK         0.2931 
    111 H111       21.9122  -35.1769  -40.7979 H         1 UNK         0.0412 
    112 H112       24.8153  -34.2654  -39.5986 H         1 UNK         0.3472 
    113 H113       24.5861  -34.7944  -37.9494 H         1 UNK         0.3472 
    114 H114       20.2751  -33.8122  -39.5103 H         1 UNK         0.0970 
    115 H115       21.2248  -32.3756  -39.7886 H         1 UNK         0.0970 
    116 H116       20.0273  -30.7545  -41.4469 H         1 UNK         0.0612 
    117 H117       21.5663  -31.2735  -42.0966 H         1 UNK         0.0612 
@<TRIPOS>BOND
     1    1    2 1    
     2    1   62 1    
     3    1   63 1    
     4    1   64 1    
     5    2    3 2    
     6    2    4 am   BACKBONE|DICT|INTERRES
     7    4    5 1    
     8    4   65 1    
     9    5    6 1    
    10    5   25 1    
    11    5   66 1    
    12    6    7 1    
    13    6   67 1    
    14    6   68 1    
    15    7    8 1    
    16    8    9 1    
    17    8   69 1    
    18    8   70 1    
    19    9   10 ar   
    20    9   14 ar   
    21   10   11 ar   
    22   10   71 1    
    23   11   12 ar   
    24   11   61 1    
    25   12   13 ar   
    26   12   72 1    
    27   13   14 ar   
    28   13   15 1    
    29   14   73 1    
    30   15   16 1    
    31   15   74 1    
    32   15   75 1    
    33   16   17 1    
    34   17   18 1    
    35   17   76 1    
    36   17   77 1    
    37   18   19 1    
    38   18   27 1    
    39   18   78 1    
    40   19   20 am   BACKBONE|DICT|INTERRES
    41   19   79 1    
    42   20   21 2    
    43   20   22 1    
    44   22   23 1    
    45   22   24 1    
    46   22   80 1    
    47   23   81 1    
    48   23   82 1    
    49   23   83 1    
    50   24   25 am   BACKBONE|DICT|INTERRES
    51   24   84 1    
    52   25   26 2    
    53   27   28 2    
    54   27   29 am   BACKBONE|DICT|INTERRES
    55   29   30 1    
    56   29   85 1    
    57   30   31 1    
    58   30   32 1    
    59   30   86 1    
    60   31   87 1    
    61   31   88 1    
    62   31   89 1    
    63   32   33 2    
    64   32   34 am   BACKBONE|DICT|INTERRES
    65   34   35 1    
    66   34   90 1    
    67   35   36 1    
    68   35   37 1    
    69   35   91 1    
    70   36   92 1    
    71   36   93 1    
    72   36   94 1    
    73   37   38 2    
    74   37   39 am   BACKBONE|DICT|INTERRES
    75   39   40 1    
    76   39   95 1    
    77   40   41 1    
    78   40   42 1    
    79   40   96 1    
    80   41   97 1    
    81   41   98 1    
    82   41   99 1    
    83   42   43 2    
    84   42   44 am   BACKBONE|DICT|INTERRES
    85   44   45 1    
    86   44  100 1    
    87   45   46 1    
    88   45   47 1    
    89   45  101 1    
    90   46  102 1    
    91   46  103 1    
    92   46  104 1    
    93   47   48 2    
    94   47   49 am   BACKBONE|DICT|INTERRES
    95   49   50 1    
    96   49  105 1    
    97   50   51 1    
    98   50   52 1    
    99   50  106 1    
   100   51  107 1    
   101   51  108 1    
   102   51  109 1    
   103   52   53 2    
   104   52   54 am   BACKBONE|DICT|INTERRES
   105   54   55 1    
   106   54  110 1    
   107   55   56 1    
   108   55   59 1    
   109   55  111 1    
   110   56   57 am   BACKBONE|DICT|INTERRES
   111   56   58 2    
   112   57  112 1    
   113   57  113 1    
   114   59   60 1    
   115   59  114 1    
   116   59  115 1    
   117   60   61 1    
   118   61  116 1    
   119   61  117 1    
@<TRIPOS>SUBSTRUCTURE
     1 UNK         1 GROUP             0       ****    0 ROOT    
