@<TRIPOS>MOLECULE
3R8
117   119    1
SMALL
USER_CHARGES


@<TRIPOS>ATOM
      1 CA         23.8447  -24.6998  -46.4918 C.3       0 UNK        -0.2013 
      2 C          23.1176  -24.9790  -47.8066 C.2       0 UNK         0.4866 
      3 O          23.4188  -24.3334  -48.8087 O.2       0 UNK        -0.5176 
      4 N          22.1713  -25.9273  -47.8685 N.am      1 UNK        -0.4884 
      5 CA         21.6372  -26.7105  -46.7506 C.3       1 UNK         0.0853 
      6 C6         20.9019  -27.9780  -47.2543 C.3       10 UNK        -0.0849 
      7 S7         20.7439  -29.2321  -45.9385 S.3       10 UNK        -0.2776 
      8 C8         19.1637  -30.0469  -46.3407 C.3       10 UNK         0.0316 
      9 C9         18.3425  -30.2795  -45.0814 C.ar      10 UNK        -0.0863 
     10 C10        18.7690  -31.2055  -44.1259 C.ar      10 UNK        -0.1009 
     11 C11        18.0565  -31.3873  -42.9346 C.ar      10 UNK        -0.0712 
     12 C12        16.8838  -30.6546  -42.7243 C.ar      10 UNK        -0.0894 
     13 C13        16.4415  -29.7314  -43.6775 C.ar      10 UNK        -0.0745 
     14 C14        17.1730  -29.5503  -44.8547 C.ar      10 UNK        -0.0972 
     15 C15        15.1947  -28.8975  -43.4252 C.3       10 UNK         0.0209 
     16 S16        15.6151  -27.1590  -43.0795 S.3       10 UNK        -0.2568 
     17 C17        16.3909  -27.2750  -41.4306 C.3       10 UNK        -0.0983 
     18 CA         17.9380  -27.3894  -41.4769 C.3       3 UNK         0.0876 
     19 N          18.5478  -26.3264  -42.2845 N.am      3 UNK        -0.4424 
     20 C          19.8533  -26.0913  -42.4677 C.2       2 UNK         0.4918 
     21 O          20.7651  -26.6453  -41.8487 O.2       2 UNK        -0.4875 
     22 CA         20.2096  -25.0822  -43.5605 C.3       2 UNK         0.0481 
     23 CB         21.0315  -23.9120  -42.9973 C.3       2 UNK        -0.1831 
     24 N          20.9938  -25.7924  -44.5665 N.am      2 UNK        -0.4498 
     25 C          20.7237  -25.8266  -45.8755 C.2       1 UNK         0.5027 
     26 O          19.8068  -25.1966  -46.4087 O.2       1 UNK        -0.4969 
     27 C          18.5209  -27.4846  -40.0516 C.2       3 UNK         0.5005 
     28 O          18.1956  -26.6525  -39.2027 O.2       3 UNK        -0.5279 
     29 N          19.3955  -28.4812  -39.8413 N.am      4 UNK        -0.4463 
     30 CA         20.1330  -28.7968  -38.6083 C.3       4 UNK         0.0283 
     31 CB         19.1623  -29.1837  -37.4728 C.3       4 UNK        -0.1875 
     32 C          21.1518  -27.7259  -38.1567 C.2       4 UNK         0.4949 
     33 O          21.7141  -27.8623  -37.0694 O.2       4 UNK        -0.5039 
     34 N          21.3963  -26.7034  -38.9857 N.am      5 UNK        -0.4663 
     35 CA         22.3631  -25.6303  -38.7396 C.3       5 UNK         0.0242 
     36 CB         21.6993  -24.2757  -39.0348 C.3       5 UNK        -0.1982 
     37 C          23.6225  -25.8133  -39.5980 C.2       5 UNK         0.5017 
     38 O          24.7266  -25.5588  -39.1160 O.2       5 UNK        -0.5012 
     39 N          23.4366  -26.2699  -40.8406 N.am      6 UNK        -0.4439 
     40 CA         24.4803  -26.6067  -41.7995 C.3       6 UNK         0.0297 
     41 CB         24.9886  -25.3407  -42.5186 C.3       6 UNK        -0.2006 
     42 C          23.8470  -27.6201  -42.7518 C.2       6 UNK         0.4892 
     43 O          23.3438  -27.2336  -43.8073 O.2       6 UNK        -0.5089 
     44 N          23.7916  -28.8792  -42.3095 N.am      7 UNK        -0.4243 
     45 CA         23.0742  -29.9604  -42.9738 C.3       7 UNK         0.0196 
     46 CB         21.6633  -30.0656  -42.3725 C.3       7 UNK        -0.2007 
     47 C          23.8291  -31.2811  -42.8097 C.2       7 UNK         0.5020 
     48 O          24.5922  -31.4447  -41.8553 O.2       7 UNK        -0.5147 
     49 N          23.5647  -32.2148  -43.7305 N.am      8 UNK        -0.4734 
     50 CA         24.1608  -33.5544  -43.7659 C.3       8 UNK         0.0238 
     51 CB         24.1169  -34.0706  -45.2149 C.3       8 UNK        -0.1912 
     52 C          23.4926  -34.5652  -42.8131 C.2       8 UNK         0.5038 
     53 O          23.9901  -35.6864  -42.6989 O.2       8 UNK        -0.5046 
     54 N          22.3814  -34.1783  -42.1700 N.am      9 UNK        -0.4200 
     55 CA         21.5866  -35.0284  -41.2650 C.3       9 UNK         0.0839 
     56 C          22.3041  -35.4402  -39.9453 C.2       9 UNK         0.5513 
     57 N          23.3835  -34.7810  -39.5409 N.am      9 UNK        -0.7519 
     58 O          21.8684  -36.3744  -39.2773 O.2       9 UNK        -0.4960 
     59 C59        20.1940  -34.4183  -40.9458 C.3       10 UNK        -0.0876 
     60 S60        19.2648  -33.8786  -42.4244 S.3       10 UNK        -0.2414 
     61 C61        18.5878  -32.2933  -41.8279 C.3       10 UNK         0.0169 
     62 H62        24.2448  -25.6128  -46.0520 H         1 UNK         0.0903 
     63 H63        24.6854  -24.0269  -46.6595 H         1 UNK         0.0903 
     64 H64        23.1814  -24.2222  -45.7717 H         1 UNK         0.0903 
     65 H65        21.6963  -26.0644  -48.7494 H         1 UNK         0.3096 
     66 H66        22.4863  -27.0488  -46.1572 H         1 UNK         0.1121 
     67 H67        19.9259  -27.7233  -47.6718 H         1 UNK         0.0849 
     68 H68        21.4651  -28.4411  -48.0663 H         1 UNK         0.0849 
     69 H69        18.5948  -29.4547  -47.0582 H         1 UNK         0.0865 
     70 H70        19.3669  -31.0016  -46.8278 H         1 UNK         0.0865 
     71 H71        19.6812  -31.7579  -44.3014 H         1 UNK         0.1346 
     72 H72        16.3320  -30.7768  -41.8022 H         1 UNK         0.1412 
     73 H73        16.8403  -28.8216  -45.5816 H         1 UNK         0.1426 
     74 H74        14.6066  -29.3048  -42.6013 H         1 UNK         0.0716 
     75 H75        14.5533  -28.9365  -44.3068 H         1 UNK         0.0716 
     76 H76        15.9596  -28.1226  -40.8946 H         1 UNK         0.0695 
     77 H77        16.0935  -26.3848  -40.8727 H         1 UNK         0.0695 
     78 H78        18.1830  -28.3182  -41.9928 H         1 UNK         0.0983 
     79 H79        17.8893  -25.8033  -42.8433 H         1 UNK         0.3095 
     80 H80        19.2896  -24.6833  -43.9928 H         1 UNK         0.0454 
     81 H81        21.9481  -24.2521  -42.5158 H         1 UNK         0.0851 
     82 H82        20.4579  -23.3557  -42.2553 H         1 UNK         0.0851 
     83 H83        21.3095  -23.2107  -43.7839 H         1 UNK         0.0851 
     84 H84        21.7533  -26.3698  -44.2042 H         1 UNK         0.2976 
     85 H85        19.6263  -29.0663  -40.6315 H         1 UNK         0.3116 
     86 H86        20.7267  -29.6819  -38.8413 H         1 UNK         0.0646 
     87 H87        18.5742  -28.3306  -37.1336 H         1 UNK         0.0847 
     88 H88        19.7036  -29.5663  -36.6067 H         1 UNK         0.0847 
     89 H89        18.4708  -29.9645  -37.7891 H         1 UNK         0.0847 
     90 H90        20.9132  -26.6881  -39.8777 H         1 UNK         0.3040 
     91 H91        22.6758  -25.6313  -37.6929 H         1 UNK         0.1015 
     92 H92        21.3426  -24.2143  -40.0624 H         1 UNK         0.0786 
     93 H93        22.3997  -23.4537  -38.8800 H         1 UNK         0.0786 
     94 H94        20.8470  -24.1045  -38.3770 H         1 UNK         0.0786 
     95 H95        22.4888  -26.4643  -41.1590 H         1 UNK         0.3172 
     96 H96        25.3166  -27.0854  -41.2856 H         1 UNK         0.0595 
     97 H97        24.1885  -24.8181  -43.0428 H         1 UNK         0.0839 
     98 H98        25.7479  -25.5956  -43.2587 H         1 UNK         0.0839 
     99 H99        25.4414  -24.6399  -41.8173 H         1 UNK         0.0839 
    100 H100       24.2671  -29.1393  -41.4552 H         1 UNK         0.2998 
    101 H101       23.0003  -29.7533  -44.0435 H         1 UNK         0.0822 
    102 H102       21.0545  -29.2047  -42.6483 H         1 UNK         0.0787 
    103 H103       21.1516  -30.9532  -42.7373 H         1 UNK         0.0787 
    104 H104       21.6931  -30.1303  -41.2846 H         1 UNK         0.0787 
    105 H105       22.9156  -31.9938  -44.4732 H         1 UNK         0.3055 
    106 H106       25.2079  -33.4794  -43.4626 H         1 UNK         0.1106 
    107 H107       24.5968  -35.0468  -45.2990 H         1 UNK         0.0828 
    108 H108       23.0929  -34.1800  -45.5744 H         1 UNK         0.0828 
    109 H109       24.6420  -33.3975  -45.8929 H         1 UNK         0.0828 
    110 H110       22.0342  -33.2459  -42.3287 H         1 UNK         0.2931 
    111 H111       21.4066  -35.9589  -41.8070 H         1 UNK         0.0412 
    112 H112       23.7487  -34.0146  -40.0843 H         1 UNK         0.3472 
    113 H113       23.8408  -35.0578  -38.6862 H         1 UNK         0.3472 
    114 H114       19.5766  -35.1472  -40.4172 H         1 UNK         0.0970 
    115 H115       20.3099  -33.5767  -40.2605 H         1 UNK         0.0970 
    116 H116       17.8038  -32.5114  -41.1010 H         1 UNK         0.0612 
    117 H117       19.3614  -31.7433  -41.2920 H         1 UNK         0.0612 
@<TRIPOS>BOND
     1    1    2 1    
     2    1   62 1    
     3    1   63 1    
     4    1   64 1    
     5    2    3 2    
     6    2    4 am   BACKBONE|DICT|INTERRES
     7    4    5 1    
     8    4   65 1    
     9    5    6 1    
    10    5   25 1    
    11    5   66 1    
    12    6    7 1    
    13    6   67 1    
    14    6   68 1    
    15    7    8 1    
    16    8    9 1    
    17    8   69 1    
    18    8   70 1    
    19    9   10 ar   
    20    9   14 ar   
    21   10   11 ar   
    22   10   71 1    
    23   11   12 ar   
    24   11   61 1    
    25   12   13 ar   
    26   12   72 1    
    27   13   14 ar   
    28   13   15 1    
    29   14   73 1    
    30   15   16 1    
    31   15   74 1    
    32   15   75 1    
    33   16   17 1    
    34   17   18 1    
    35   17   76 1    
    36   17   77 1    
    37   18   19 1    
    38   18   27 1    
    39   18   78 1    
    40   19   20 am   BACKBONE|DICT|INTERRES
    41   19   79 1    
    42   20   21 2    
    43   20   22 1    
    44   22   23 1    
    45   22   24 1    
    46   22   80 1    
    47   23   81 1    
    48   23   82 1    
    49   23   83 1    
    50   24   25 am   BACKBONE|DICT|INTERRES
    51   24   84 1    
    52   25   26 2    
    53   27   28 2    
    54   27   29 am   BACKBONE|DICT|INTERRES
    55   29   30 1    
    56   29   85 1    
    57   30   31 1    
    58   30   32 1    
    59   30   86 1    
    60   31   87 1    
    61   31   88 1    
    62   31   89 1    
    63   32   33 2    
    64   32   34 am   BACKBONE|DICT|INTERRES
    65   34   35 1    
    66   34   90 1    
    67   35   36 1    
    68   35   37 1    
    69   35   91 1    
    70   36   92 1    
    71   36   93 1    
    72   36   94 1    
    73   37   38 2    
    74   37   39 am   BACKBONE|DICT|INTERRES
    75   39   40 1    
    76   39   95 1    
    77   40   41 1    
    78   40   42 1    
    79   40   96 1    
    80   41   97 1    
    81   41   98 1    
    82   41   99 1    
    83   42   43 2    
    84   42   44 am   BACKBONE|DICT|INTERRES
    85   44   45 1    
    86   44  100 1    
    87   45   46 1    
    88   45   47 1    
    89   45  101 1    
    90   46  102 1    
    91   46  103 1    
    92   46  104 1    
    93   47   48 2    
    94   47   49 am   BACKBONE|DICT|INTERRES
    95   49   50 1    
    96   49  105 1    
    97   50   51 1    
    98   50   52 1    
    99   50  106 1    
   100   51  107 1    
   101   51  108 1    
   102   51  109 1    
   103   52   53 2    
   104   52   54 am   BACKBONE|DICT|INTERRES
   105   54   55 1    
   106   54  110 1    
   107   55   56 1    
   108   55   59 1    
   109   55  111 1    
   110   56   57 am   BACKBONE|DICT|INTERRES
   111   56   58 2    
   112   57  112 1    
   113   57  113 1    
   114   59   60 1    
   115   59  114 1    
   116   59  115 1    
   117   60   61 1    
   118   61  116 1    
   119   61  117 1    
@<TRIPOS>SUBSTRUCTURE
     1 UNK         1 GROUP             0       ****    0 ROOT    
