@<TRIPOS>MOLECULE
3R8
117   119    1
SMALL
USER_CHARGES


@<TRIPOS>ATOM
      1 CA         17.6099  -27.3649  -40.3470 C.3       0 UNK        -0.2013 
      2 C          17.4106  -26.2594  -41.3740 C.2       0 UNK         0.4866 
      3 O          17.3238  -25.0881  -41.0031 O.2       0 UNK        -0.5176 
      4 N          17.3302  -26.6274  -42.6583 N.am      1 UNK        -0.4884 
      5 CA         17.1649  -25.7094  -43.7925 C.3       1 UNK         0.0853 
      6 C6         16.3458  -26.3485  -44.9511 C.3       10 UNK        -0.0849 
      7 S7         14.8586  -27.2484  -44.3618 S.3       10 UNK        -0.2776 
      8 C8         15.0342  -28.9406  -45.0344 C.3       10 UNK         0.0316 
      9 C9         16.4449  -29.5062  -44.9196 C.ar      10 UNK        -0.0863 
     10 C10        16.9433  -29.9737  -43.6998 C.ar      10 UNK        -0.1009 
     11 C11        18.2499  -30.4708  -43.6116 C.ar      10 UNK        -0.0712 
     12 C12        19.0607  -30.4817  -44.7539 C.ar      10 UNK        -0.0894 
     13 C13        18.5696  -30.0237  -45.9808 C.ar      10 UNK        -0.0745 
     14 C14        17.2532  -29.5628  -46.0566 C.ar      10 UNK        -0.0972 
     15 C15        19.4414  -30.0464  -47.2322 C.3       10 UNK         0.0209 
     16 S16        19.4248  -28.4398  -48.1018 S.3       10 UNK        -0.2568 
     17 C17        21.1800  -27.9349  -48.0870 C.3       10 UNK        -0.0983 
     18 CA         21.6128  -27.1019  -46.8478 C.3       3 UNK         0.0876 
     19 N          20.6544  -26.0329  -46.5507 N.am      3 UNK        -0.4424 
     20 C          20.9604  -24.7686  -46.2393 C.2       2 UNK         0.4918 
     21 O          22.1126  -24.3419  -46.1621 O.2       2 UNK        -0.4875 
     22 CA         19.7815  -23.8155  -45.9466 C.3       2 UNK         0.0481 
     23 CB         19.4006  -23.0409  -47.2183 C.3       2 UNK        -0.1831 
     24 N          18.5767  -24.4522  -45.3891 N.am      2 UNK        -0.4498 
     25 C          18.5424  -25.1774  -44.2604 C.2       1 UNK         0.5027 
     26 O          19.5603  -25.4368  -43.6142 O.2       1 UNK        -0.4969 
     27 C          21.9309  -27.9889  -45.6217 C.2       3 UNK         0.5005 
     28 O          22.5596  -29.0341  -45.7979 O.2       3 UNK        -0.5279 
     29 N          21.5141  -27.5906  -44.4068 N.am      4 UNK        -0.4463 
     30 CA         21.6881  -28.3800  -43.1799 C.3       4 UNK         0.0283 
     31 CB         20.8757  -27.7705  -42.0306 C.3       4 UNK        -0.1875 
     32 C          23.1389  -28.6139  -42.7360 C.2       4 UNK         0.4949 
     33 O          23.3618  -29.5677  -41.9951 O.2       4 UNK        -0.5039 
     34 N          24.0819  -27.7634  -43.1716 N.am      5 UNK        -0.4663 
     35 CA         25.5363  -27.8977  -42.9855 C.3       5 UNK         0.0242 
     36 CB         26.0743  -29.0222  -43.8965 C.3       5 UNK        -0.1982 
     37 C          25.9529  -28.0805  -41.5104 C.2       5 UNK         0.5017 
     38 O          26.6690  -29.0282  -41.1820 O.2       5 UNK        -0.5012 
     39 N          25.4625  -27.1722  -40.6533 N.am      6 UNK        -0.4439 
     40 CA         25.6108  -27.1661  -39.1913 C.3       6 UNK         0.0297 
     41 CB         27.0890  -27.0059  -38.7722 C.3       6 UNK        -0.2006 
     42 C          24.9112  -28.3672  -38.5211 C.2       6 UNK         0.4892 
     43 O          25.4970  -29.0243  -37.6587 O.2       6 UNK        -0.5089 
     44 N          23.6534  -28.5991  -38.9270 N.am      7 UNK        -0.4243 
     45 CA         22.7200  -29.6139  -38.4229 C.3       7 UNK         0.0196 
     46 CB         22.3444  -29.3361  -36.9512 C.3       7 UNK        -0.2007 
     47 C          23.1974  -31.0589  -38.6619 C.2       7 UNK         0.5020 
     48 O          23.1287  -31.8945  -37.7585 O.2       7 UNK        -0.5147 
     49 N          23.6218  -31.3493  -39.8991 N.am      8 UNK        -0.4734 
     50 CA         24.0172  -32.6840  -40.3666 C.3       8 UNK         0.0238 
     51 CB         24.6546  -32.5652  -41.7604 C.3       8 UNK        -0.1912 
     52 C          22.8602  -33.7024  -40.3828 C.2       8 UNK         0.5038 
     53 O          23.1219  -34.9057  -40.3549 O.2       8 UNK        -0.5046 
     54 N          21.6136  -33.2085  -40.3937 N.am      9 UNK        -0.4200 
     55 CA         20.3921  -33.9942  -40.1594 C.3       9 UNK         0.0839 
     56 C          20.2581  -34.5540  -38.7100 C.2       9 UNK         0.5513 
     57 N          21.0263  -34.0894  -37.7300 N.am      9 UNK        -0.7519 
     58 O          19.4353  -35.4342  -38.4720 O.2       9 UNK        -0.4960 
     59 C59        19.1121  -33.2073  -40.5494 C.3       10 UNK        -0.0876 
     60 S60        19.0196  -32.8015  -42.3270 S.3       10 UNK        -0.2414 
     61 C61        18.7813  -30.9971  -42.2836 C.3       10 UNK         0.0169 
     62 H62        16.8069  -27.3423  -39.6108 H         1 UNK         0.0903 
     63 H63        17.6181  -28.3523  -40.8072 H         1 UNK         0.0903 
     64 H64        18.5558  -27.2250  -39.8245 H         1 UNK         0.0903 
     65 H65        17.4081  -27.6021  -42.9103 H         1 UNK         0.3096 
     66 H66        16.6044  -24.8388  -43.4444 H         1 UNK         0.1121 
     67 H67        16.9760  -27.0004  -45.5525 H         1 UNK         0.0849 
     68 H68        15.9991  -25.5731  -45.6360 H         1 UNK         0.0849 
     69 H69        14.3377  -29.5995  -44.5139 H         1 UNK         0.0865 
     70 H70        14.7122  -28.9331  -46.0771 H         1 UNK         0.0865 
     71 H71        16.3103  -29.9521  -42.8229 H         1 UNK         0.1346 
     72 H72        20.0697  -30.8652  -44.6895 H         1 UNK         0.1412 
     73 H73        16.8652  -29.2173  -47.0053 H         1 UNK         0.1426 
     74 H74        19.0624  -30.8134  -47.9085 H         1 UNK         0.0716 
     75 H75        20.4641  -30.3346  -46.9869 H         1 UNK         0.0716 
     76 H76        21.3269  -27.3216  -48.9772 H         1 UNK         0.0695 
     77 H77        21.8191  -28.8058  -48.2438 H         1 UNK         0.0695 
     78 H78        22.5710  -26.6459  -47.1065 H         1 UNK         0.0983 
     79 H79        19.6817  -26.2993  -46.5993 H         1 UNK         0.3095 
     80 H80        20.1322  -23.0939  -45.2060 H         1 UNK         0.0454 
     81 H81        20.2686  -22.5334  -47.6419 H         1 UNK         0.0851 
     82 H82        18.6530  -22.2753  -47.0103 H         1 UNK         0.0851 
     83 H83        19.0021  -23.7011  -47.9897 H         1 UNK         0.0851 
     84 H84        17.7117  -24.2719  -45.8782 H         1 UNK         0.2976 
     85 H85        20.9856  -26.7280  -44.3186 H         1 UNK         0.3116 
     86 H86        21.2813  -29.3704  -43.3812 H         1 UNK         0.0646 
     87 H87        21.1708  -26.7414  -41.8233 H         1 UNK         0.0847 
     88 H88        19.8153  -27.7787  -42.2708 H         1 UNK         0.0847 
     89 H89        20.9967  -28.3407  -41.1092 H         1 UNK         0.0847 
     90 H90        23.7786  -26.9927  -43.7504 H         1 UNK         0.3040 
     91 H91        25.9874  -26.9611  -43.3174 H         1 UNK         0.1015 
     92 H92        27.1623  -29.0819  -43.8471 H         1 UNK         0.0786 
     93 H93        25.8059  -28.8498  -44.9389 H         1 UNK         0.0786 
     94 H94        25.6799  -29.9975  -43.6086 H         1 UNK         0.0786 
     95 H95        24.8806  -26.4401  -41.0378 H         1 UNK         0.3172 
     96 H96        25.0819  -26.2789  -38.8394 H         1 UNK         0.0595 
     97 H97        27.6843  -27.8830  -39.0272 H         1 UNK         0.0839 
     98 H98        27.1733  -26.8633  -37.6941 H         1 UNK         0.0839 
     99 H99        27.5462  -26.1391  -39.2491 H         1 UNK         0.0839 
    100 H100       23.3010  -28.0238  -39.6779 H         1 UNK         0.2998 
    101 H101       21.8084  -29.5039  -39.0118 H         1 UNK         0.0822 
    102 H102       21.5581  -30.0130  -36.6145 H         1 UNK         0.0787 
    103 H103       21.9727  -28.3198  -36.8210 H         1 UNK         0.0787 
    104 H104       23.1952  -29.4709  -36.2825 H         1 UNK         0.0787 
    105 H105       23.6216  -30.6117  -40.6058 H         1 UNK         0.3055 
    106 H106       24.7713  -33.0659  -39.6751 H         1 UNK         0.1106 
    107 H107       25.5018  -31.8787  -41.7511 H         1 UNK         0.0828 
    108 H108       25.0226  -33.5319  -42.1065 H         1 UNK         0.0828 
    109 H109       23.9401  -32.2033  -42.5009 H         1 UNK         0.0828 
    110 H110       21.5027  -32.2079  -40.4410 H         1 UNK         0.2931 
    111 H111       20.4490  -34.8686  -40.8108 H         1 UNK         0.0412 
    112 H112       21.7190  -33.3676  -37.8937 H         1 UNK         0.3472 
    113 H113       20.9189  -34.4721  -36.8039 H         1 UNK         0.3472 
    114 H114       18.2196  -33.7925  -40.3181 H         1 UNK         0.0970 
    115 H115       19.0334  -32.2988  -39.9497 H         1 UNK         0.0970 
    116 H116       19.7282  -30.5167  -42.0387 H         1 UNK         0.0612 
    117 H117       18.0883  -30.7467  -41.4791 H         1 UNK         0.0612 
@<TRIPOS>BOND
     1    1    2 1    
     2    1   62 1    
     3    1   63 1    
     4    1   64 1    
     5    2    3 2    
     6    2    4 am   BACKBONE|DICT|INTERRES
     7    4    5 1    
     8    4   65 1    
     9    5    6 1    
    10    5   25 1    
    11    5   66 1    
    12    6    7 1    
    13    6   67 1    
    14    6   68 1    
    15    7    8 1    
    16    8    9 1    
    17    8   69 1    
    18    8   70 1    
    19    9   10 ar   
    20    9   14 ar   
    21   10   11 ar   
    22   10   71 1    
    23   11   12 ar   
    24   11   61 1    
    25   12   13 ar   
    26   12   72 1    
    27   13   14 ar   
    28   13   15 1    
    29   14   73 1    
    30   15   16 1    
    31   15   74 1    
    32   15   75 1    
    33   16   17 1    
    34   17   18 1    
    35   17   76 1    
    36   17   77 1    
    37   18   19 1    
    38   18   27 1    
    39   18   78 1    
    40   19   20 am   BACKBONE|DICT|INTERRES
    41   19   79 1    
    42   20   21 2    
    43   20   22 1    
    44   22   23 1    
    45   22   24 1    
    46   22   80 1    
    47   23   81 1    
    48   23   82 1    
    49   23   83 1    
    50   24   25 am   BACKBONE|DICT|INTERRES
    51   24   84 1    
    52   25   26 2    
    53   27   28 2    
    54   27   29 am   BACKBONE|DICT|INTERRES
    55   29   30 1    
    56   29   85 1    
    57   30   31 1    
    58   30   32 1    
    59   30   86 1    
    60   31   87 1    
    61   31   88 1    
    62   31   89 1    
    63   32   33 2    
    64   32   34 am   BACKBONE|DICT|INTERRES
    65   34   35 1    
    66   34   90 1    
    67   35   36 1    
    68   35   37 1    
    69   35   91 1    
    70   36   92 1    
    71   36   93 1    
    72   36   94 1    
    73   37   38 2    
    74   37   39 am   BACKBONE|DICT|INTERRES
    75   39   40 1    
    76   39   95 1    
    77   40   41 1    
    78   40   42 1    
    79   40   96 1    
    80   41   97 1    
    81   41   98 1    
    82   41   99 1    
    83   42   43 2    
    84   42   44 am   BACKBONE|DICT|INTERRES
    85   44   45 1    
    86   44  100 1    
    87   45   46 1    
    88   45   47 1    
    89   45  101 1    
    90   46  102 1    
    91   46  103 1    
    92   46  104 1    
    93   47   48 2    
    94   47   49 am   BACKBONE|DICT|INTERRES
    95   49   50 1    
    96   49  105 1    
    97   50   51 1    
    98   50   52 1    
    99   50  106 1    
   100   51  107 1    
   101   51  108 1    
   102   51  109 1    
   103   52   53 2    
   104   52   54 am   BACKBONE|DICT|INTERRES
   105   54   55 1    
   106   54  110 1    
   107   55   56 1    
   108   55   59 1    
   109   55  111 1    
   110   56   57 am   BACKBONE|DICT|INTERRES
   111   56   58 2    
   112   57  112 1    
   113   57  113 1    
   114   59   60 1    
   115   59  114 1    
   116   59  115 1    
   117   60   61 1    
   118   61  116 1    
   119   61  117 1    
@<TRIPOS>SUBSTRUCTURE
     1 UNK         1 GROUP             0       ****    0 ROOT    
