@<TRIPOS>MOLECULE
3R8
117   119    1
SMALL
USER_CHARGES


@<TRIPOS>ATOM
      1 CA         12.4679  -24.1213  -42.6520 C.3       0 UNK        -0.2013 
      2 C          13.3087  -25.2922  -43.1401 C.2       0 UNK         0.4866 
      3 O          13.0959  -26.4168  -42.6877 O.2       0 UNK        -0.5176 
      4 N          14.2408  -25.0246  -44.0665 N.am      1 UNK        -0.4884 
      5 CA         15.2270  -25.9454  -44.6480 C.3       1 UNK         0.0853 
      6 C6         14.6133  -27.2495  -45.2254 C.3       10 UNK        -0.0849 
      7 S7         15.5980  -27.9376  -46.6003 S.3       10 UNK        -0.2776 
      8 C8         16.0198  -29.6038  -45.9932 C.3       10 UNK         0.0316 
      9 C9         17.3922  -29.6498  -45.3359 C.ar      10 UNK        -0.0863 
     10 C10        17.5216  -29.6513  -43.9436 C.ar      10 UNK        -0.1009 
     11 C11        18.7835  -29.7552  -43.3480 C.ar      10 UNK        -0.0712 
     12 C12        19.9214  -29.8497  -44.1553 C.ar      10 UNK        -0.0894 
     13 C13        19.8048  -29.8397  -45.5474 C.ar      10 UNK        -0.0745 
     14 C14        18.5387  -29.7390  -46.1306 C.ar      10 UNK        -0.0972 
     15 C15        21.0371  -29.9674  -46.4294 C.3       10 UNK         0.0209 
     16 S16        21.6235  -28.3453  -47.0103 S.3       10 UNK        -0.2568 
     17 C17        22.6608  -27.7802  -45.6213 C.3       10 UNK        -0.0983 
     18 CA         22.1555  -26.4521  -45.0068 C.3       3 UNK         0.0876 
     19 N          20.8578  -26.6125  -44.3379 N.am      3 UNK        -0.4424 
     20 C          19.9926  -25.6161  -44.1197 C.2       2 UNK         0.4918 
     21 O          20.1234  -24.4744  -44.5639 O.2       2 UNK        -0.4875 
     22 CA         18.7968  -25.9382  -43.2220 C.3       2 UNK         0.0481 
     23 CB         18.8231  -25.0855  -41.9383 C.3       2 UNK        -0.1831 
     24 N          17.5702  -25.7126  -43.9760 N.am      2 UNK        -0.4498 
     25 C          16.3752  -26.2229  -43.6573 C.2       1 UNK         0.5027 
     26 O          16.1669  -26.8842  -42.6377 O.2       1 UNK        -0.4969 
     27 C          23.2238  -25.8611  -44.0583 C.2       3 UNK         0.5005 
     28 O          24.2608  -25.4014  -44.5388 O.2       3 UNK        -0.5279 
     29 N          22.9751  -25.9066  -42.7380 N.am      4 UNK        -0.4463 
     30 CA         23.7919  -25.4202  -41.6141 C.3       4 UNK         0.0283 
     31 CB         24.0571  -23.9054  -41.7149 C.3       4 UNK        -0.1875 
     32 C          25.0990  -26.2006  -41.3862 C.2       4 UNK         0.4949 
     33 O          25.3957  -26.5541  -40.2453 O.2       4 UNK        -0.5039 
     34 N          25.8455  -26.4737  -42.4626 N.am      5 UNK        -0.4663 
     35 CA         27.0775  -27.2679  -42.4532 C.3       5 UNK         0.0242 
     36 CB         27.8360  -27.0341  -43.7694 C.3       5 UNK        -0.1982 
     37 C          26.8221  -28.7702  -42.2385 C.2       5 UNK         0.5017 
     38 O          27.6938  -29.4624  -41.7113 O.2       5 UNK        -0.5012 
     39 N          25.6383  -29.2453  -42.6481 N.am      6 UNK        -0.4439 
     40 CA         25.1733  -30.6153  -42.4527 C.3       6 UNK         0.0297 
     41 CB         24.1345  -30.9582  -43.5351 C.3       6 UNK        -0.2006 
     42 C          24.5936  -30.7569  -41.0378 C.2       6 UNK         0.4892 
     43 O          23.4334  -30.4007  -40.8153 O.2       6 UNK        -0.5089 
     44 N          25.4202  -31.2477  -40.1044 N.am      7 UNK        -0.4243 
     45 CA         25.0507  -31.5137  -38.7118 C.3       7 UNK         0.0196 
     46 CB         26.2897  -31.9839  -37.9330 C.3       7 UNK        -0.2007 
     47 C          23.9239  -32.5554  -38.6289 C.2       7 UNK         0.5020 
     48 O          24.0508  -33.6298  -39.2205 O.2       7 UNK        -0.5147 
     49 N          22.8268  -32.1931  -37.9480 N.am      8 UNK        -0.4734 
     50 CA         21.5669  -32.9492  -37.8439 C.3       8 UNK         0.0238 
     51 CB         21.7662  -34.2168  -36.9853 C.3       8 UNK        -0.1912 
     52 C          20.9169  -33.2563  -39.2127 C.2       8 UNK         0.5038 
     53 O          20.2230  -34.2660  -39.3465 O.2       8 UNK        -0.5046 
     54 N          21.1752  -32.3884  -40.2017 N.am      9 UNK        -0.4200 
     55 CA         20.8105  -32.5354  -41.6187 C.3       9 UNK         0.0839 
     56 C          21.5855  -33.6623  -42.3674 C.2       9 UNK         0.5513 
     57 N          22.6663  -34.2103  -41.8223 N.am      9 UNK        -0.7519 
     58 O          21.2234  -34.0269  -43.4828 O.2       9 UNK        -0.4960 
     59 C59        19.2758  -32.5923  -41.8807 C.3       10 UNK        -0.0876 
     60 S60        18.2989  -31.2820  -41.0608 S.3       10 UNK        -0.2414 
     61 C61        18.9210  -29.7528  -41.8317 C.3       10 UNK         0.0169 
     62 H62        12.5931  -23.9928  -41.5771 H         1 UNK         0.0903 
     63 H63        12.7440  -23.1861  -43.1389 H         1 UNK         0.0903 
     64 H64        11.4131  -24.3079  -42.8517 H         1 UNK         0.0903 
     65 H65        14.3413  -24.0654  -44.3713 H         1 UNK         0.3096 
     66 H66        15.6437  -25.3879  -45.4890 H         1 UNK         0.1121 
     67 H67        13.6221  -27.0410  -45.6309 H         1 UNK         0.0849 
     68 H68        14.4562  -27.9952  -44.4440 H         1 UNK         0.0849 
     69 H69        15.2504  -29.9730  -45.3137 H         1 UNK         0.0865 
     70 H70        16.0112  -30.2894  -46.8421 H         1 UNK         0.0865 
     71 H71        16.6413  -29.5806  -43.3189 H         1 UNK         0.1346 
     72 H72        20.8977  -29.9381  -43.7017 H         1 UNK         0.1412 
     73 H73        18.4445  -29.7393  -47.2083 H         1 UNK         0.1426 
     74 H74        21.8382  -30.4954  -45.9097 H         1 UNK         0.0716 
     75 H75        20.7943  -30.5787  -47.2999 H         1 UNK         0.0716 
     76 H76        23.6717  -27.6624  -46.0173 H         1 UNK         0.0695 
     77 H77        22.7262  -28.5556  -44.8587 H         1 UNK         0.0695 
     78 H78        22.0387  -25.7308  -45.8192 H         1 UNK         0.0983 
     79 H79        20.6254  -27.5422  -44.0203 H         1 UNK         0.3095 
     80 H80        18.8457  -26.9898  -42.9388 H         1 UNK         0.0454 
     81 H81        18.0211  -25.3648  -41.2552 H         1 UNK         0.0851 
     82 H82        18.7183  -24.0226  -42.1589 H         1 UNK         0.0851 
     83 H83        19.7625  -25.2160  -41.3998 H         1 UNK         0.0851 
     84 H84        17.6828  -25.1786  -44.8280 H         1 UNK         0.2976 
     85 H85        22.1084  -26.3444  -42.4617 H         1 UNK         0.3116 
     86 H86        23.1802  -25.5791  -40.7243 H         1 UNK         0.0646 
     87 H87        23.1265  -23.3452  -41.8052 H         1 UNK         0.0847 
     88 H88        24.5690  -23.5414  -40.8232 H         1 UNK         0.0847 
     89 H89        24.6841  -23.6536  -42.5706 H         1 UNK         0.0847 
     90 H90        25.5189  -26.1139  -43.3574 H         1 UNK         0.3040 
     91 H91        27.7038  -26.9216  -41.6278 H         1 UNK         0.1015 
     92 H92        27.2493  -27.3451  -44.6349 H         1 UNK         0.0786 
     93 H93        28.7701  -27.5976  -43.7877 H         1 UNK         0.0786 
     94 H94        28.0912  -25.9820  -43.8980 H         1 UNK         0.0786 
     95 H95        24.9741  -28.5862  -43.0240 H         1 UNK         0.3172 
     96 H96        26.0132  -31.3043  -42.5675 H         1 UNK         0.0595 
     97 H97        23.2316  -30.3568  -43.4396 H         1 UNK         0.0839 
     98 H98        23.8369  -32.0043  -43.4641 H         1 UNK         0.0839 
     99 H99        24.5364  -30.8062  -44.5370 H         1 UNK         0.0839 
    100 H100       26.3618  -31.4914  -40.3774 H         1 UNK         0.2998 
    101 H101       24.7054  -30.5736  -38.2761 H         1 UNK         0.0822 
    102 H102       26.0444  -32.1700  -36.8865 H         1 UNK         0.0787 
    103 H103       26.6960  -32.9101  -38.3420 H         1 UNK         0.0787 
    104 H104       27.0798  -31.2328  -37.9516 H         1 UNK         0.0787 
    105 H105       22.8187  -31.2795  -37.5136 H         1 UNK         0.3055 
    106 H106       20.8598  -32.3037  -37.3201 H         1 UNK         0.1106 
    107 H107       20.8138  -34.7095  -36.7856 H         1 UNK         0.0828 
    108 H108       22.4096  -34.9444  -37.4812 H         1 UNK         0.0828 
    109 H109       22.2123  -33.9771  -36.0202 H         1 UNK         0.0828 
    110 H110       21.7973  -31.6130  -40.0081 H         1 UNK         0.2931 
    111 H111       21.1769  -31.6211  -42.0822 H         1 UNK         0.0412 
    112 H112       23.1549  -34.9319  -42.3277 H         1 UNK         0.3472 
    113 H113       22.9956  -33.9324  -40.9038 H         1 UNK         0.3472 
    114 H114       18.8771  -33.5538  -41.5540 H         1 UNK         0.0970 
    115 H115       19.0722  -32.5420  -42.9518 H         1 UNK         0.0970 
    116 H116       18.3604  -28.9097  -41.4251 H         1 UNK         0.0612 
    117 H117       19.9588  -29.5980  -41.5327 H         1 UNK         0.0612 
@<TRIPOS>BOND
     1    1    2 1    
     2    1   62 1    
     3    1   63 1    
     4    1   64 1    
     5    2    3 2    
     6    2    4 am   BACKBONE|DICT|INTERRES
     7    4    5 1    
     8    4   65 1    
     9    5    6 1    
    10    5   25 1    
    11    5   66 1    
    12    6    7 1    
    13    6   67 1    
    14    6   68 1    
    15    7    8 1    
    16    8    9 1    
    17    8   69 1    
    18    8   70 1    
    19    9   10 ar   
    20    9   14 ar   
    21   10   11 ar   
    22   10   71 1    
    23   11   12 ar   
    24   11   61 1    
    25   12   13 ar   
    26   12   72 1    
    27   13   14 ar   
    28   13   15 1    
    29   14   73 1    
    30   15   16 1    
    31   15   74 1    
    32   15   75 1    
    33   16   17 1    
    34   17   18 1    
    35   17   76 1    
    36   17   77 1    
    37   18   19 1    
    38   18   27 1    
    39   18   78 1    
    40   19   20 am   BACKBONE|DICT|INTERRES
    41   19   79 1    
    42   20   21 2    
    43   20   22 1    
    44   22   23 1    
    45   22   24 1    
    46   22   80 1    
    47   23   81 1    
    48   23   82 1    
    49   23   83 1    
    50   24   25 am   BACKBONE|DICT|INTERRES
    51   24   84 1    
    52   25   26 2    
    53   27   28 2    
    54   27   29 am   BACKBONE|DICT|INTERRES
    55   29   30 1    
    56   29   85 1    
    57   30   31 1    
    58   30   32 1    
    59   30   86 1    
    60   31   87 1    
    61   31   88 1    
    62   31   89 1    
    63   32   33 2    
    64   32   34 am   BACKBONE|DICT|INTERRES
    65   34   35 1    
    66   34   90 1    
    67   35   36 1    
    68   35   37 1    
    69   35   91 1    
    70   36   92 1    
    71   36   93 1    
    72   36   94 1    
    73   37   38 2    
    74   37   39 am   BACKBONE|DICT|INTERRES
    75   39   40 1    
    76   39   95 1    
    77   40   41 1    
    78   40   42 1    
    79   40   96 1    
    80   41   97 1    
    81   41   98 1    
    82   41   99 1    
    83   42   43 2    
    84   42   44 am   BACKBONE|DICT|INTERRES
    85   44   45 1    
    86   44  100 1    
    87   45   46 1    
    88   45   47 1    
    89   45  101 1    
    90   46  102 1    
    91   46  103 1    
    92   46  104 1    
    93   47   48 2    
    94   47   49 am   BACKBONE|DICT|INTERRES
    95   49   50 1    
    96   49  105 1    
    97   50   51 1    
    98   50   52 1    
    99   50  106 1    
   100   51  107 1    
   101   51  108 1    
   102   51  109 1    
   103   52   53 2    
   104   52   54 am   BACKBONE|DICT|INTERRES
   105   54   55 1    
   106   54  110 1    
   107   55   56 1    
   108   55   59 1    
   109   55  111 1    
   110   56   57 am   BACKBONE|DICT|INTERRES
   111   56   58 2    
   112   57  112 1    
   113   57  113 1    
   114   59   60 1    
   115   59  114 1    
   116   59  115 1    
   117   60   61 1    
   118   61  116 1    
   119   61  117 1    
@<TRIPOS>SUBSTRUCTURE
     1 UNK         1 GROUP             0       ****    0 ROOT    
