@<TRIPOS>MOLECULE
3R8
117   119    1
SMALL
USER_CHARGES


@<TRIPOS>ATOM
      1 CA         18.5058  -20.9316  -42.2029 C.3       0 UNK        -0.2013 
      2 C          18.0960  -22.2442  -42.8541 C.2       0 UNK         0.4866 
      3 O          17.3293  -22.2361  -43.8179 O.2       0 UNK        -0.5176 
      4 N          18.5937  -23.3723  -42.3312 N.am      1 UNK        -0.4884 
      5 CA         18.3655  -24.7155  -42.8744 C.3       1 UNK         0.0853 
      6 C6         18.6627  -25.7957  -41.8074 C.3       10 UNK        -0.0849 
      7 S7         17.7560  -27.3468  -42.1163 S.3       10 UNK        -0.2776 
      8 C8         19.1515  -28.4284  -42.5189 C.3       10 UNK         0.0316 
      9 C9         18.7054  -29.8095  -42.9581 C.ar      10 UNK        -0.0863 
     10 C10        18.6289  -30.8618  -42.0442 C.ar      10 UNK        -0.1009 
     11 C11        18.3685  -32.1626  -42.4856 C.ar      10 UNK        -0.0712 
     12 C12        18.1806  -32.4006  -43.8524 C.ar      10 UNK        -0.0894 
     13 C13        18.2397  -31.3512  -44.7770 C.ar      10 UNK        -0.0745 
     14 C14        18.4551  -30.0518  -44.3070 C.ar      10 UNK        -0.0972 
     15 C15        18.1054  -31.6626  -46.2708 C.3       10 UNK         0.0209 
     16 S16        18.8112  -30.4194  -47.4222 S.3       10 UNK        -0.2568 
     17 C17        20.5411  -30.2485  -46.8448 C.3       10 UNK        -0.0983 
     18 CA         21.1029  -28.8041  -46.9737 C.3       3 UNK         0.0876 
     19 N          20.1590  -27.7666  -46.5282 N.am      3 UNK        -0.4424 
     20 C          20.2827  -26.4607  -46.8016 C.2       2 UNK         0.4918 
     21 O          21.2914  -25.9507  -47.2898 O.2       2 UNK        -0.4875 
     22 CA         19.0390  -25.5881  -46.5618 C.3       2 UNK         0.0481 
     23 CB         17.8868  -26.0073  -47.4923 C.3       2 UNK        -0.1831 
     24 N          18.5637  -25.5619  -45.1761 N.am      2 UNK        -0.4498 
     25 C          19.1767  -24.9099  -44.1779 C.2       1 UNK         0.5027 
     26 O          20.3093  -24.4292  -44.2666 O.2       1 UNK        -0.4969 
     27 C          22.4857  -28.7100  -46.2965 C.2       3 UNK         0.5005 
     28 O          23.4913  -29.0260  -46.9348 O.2       3 UNK        -0.5279 
     29 N          22.5117  -28.2867  -45.0270 N.am      4 UNK        -0.4463 
     30 CA         23.6955  -28.1530  -44.1827 C.3       4 UNK         0.0283 
     31 CB         24.2550  -29.5403  -43.8093 C.3       4 UNK        -0.1875 
     32 C          23.3167  -27.3620  -42.9245 C.2       4 UNK         0.4949 
     33 O          22.1512  -26.9937  -42.7524 O.2       4 UNK        -0.5039 
     34 N          24.3111  -27.1276  -42.0598 N.am      5 UNK        -0.4663 
     35 CA         24.1848  -26.4456  -40.7713 C.3       5 UNK         0.0242 
     36 CB         25.5943  -26.1008  -40.2556 C.3       5 UNK        -0.1982 
     37 C          23.3813  -27.2729  -39.7487 C.2       5 UNK         0.5017 
     38 O          23.9698  -27.9343  -38.8905 O.2       5 UNK        -0.5012 
     39 N          22.0488  -27.2175  -39.8740 N.am      6 UNK        -0.4439 
     40 CA         21.0443  -27.8402  -39.0067 C.3       6 UNK         0.0297 
     41 CB         21.0171  -27.1401  -37.6280 C.3       6 UNK        -0.2006 
     42 C          21.2153  -29.3706  -38.9433 C.2       6 UNK         0.4892 
     43 O          21.1601  -30.0191  -39.9886 O.2       6 UNK        -0.5089 
     44 N          21.4388  -29.9121  -37.7373 N.am      7 UNK        -0.4243 
     45 CA         21.5531  -31.3401  -37.4140 C.3       7 UNK         0.0196 
     46 CB         21.6983  -31.4865  -35.8894 C.3       7 UNK        -0.2007 
     47 C          22.6697  -32.1166  -38.1420 C.2       7 UNK         0.5020 
     48 O          22.6969  -33.3440  -38.0448 O.2       7 UNK        -0.5147 
     49 N          23.5597  -31.4177  -38.8607 N.am      8 UNK        -0.4734 
     50 CA         24.5165  -32.0092  -39.7990 C.3       8 UNK         0.0238 
     51 CB         25.4533  -30.9089  -40.3246 C.3       8 UNK        -0.1912 
     52 C          23.8289  -32.7448  -40.9674 C.2       8 UNK         0.5038 
     53 O          24.2986  -33.8160  -41.3536 O.2       8 UNK        -0.5046 
     54 N          22.7224  -32.1709  -41.4658 N.am      9 UNK        -0.4200 
     55 CA         21.8497  -32.6816  -42.5382 C.3       9 UNK         0.0839 
     56 C          22.5313  -32.8873  -43.9251 C.2       9 UNK         0.5513 
     57 N          21.7509  -33.1930  -44.9535 N.am      9 UNK        -0.7519 
     58 O          23.7390  -32.7536  -44.1021 O.2       9 UNK        -0.4960 
     59 C59        21.0350  -33.9317  -42.0911 C.3       10 UNK        -0.0876 
     60 S60        19.9424  -33.5784  -40.6706 S.3       10 UNK        -0.2414 
     61 C61        18.3330  -33.3142  -41.4887 C.3       10 UNK         0.0169 
     62 H62        19.1730  -21.0867  -41.3552 H         1 UNK         0.0903 
     63 H63        19.0188  -20.2985  -42.9264 H         1 UNK         0.0903 
     64 H64        17.6248  -20.3979  -41.8473 H         1 UNK         0.0903 
     65 H65        19.2488  -23.3136  -41.5646 H         1 UNK         0.3096 
     66 H66        17.3033  -24.7719  -43.1260 H         1 UNK         0.1121 
     67 H67        18.3381  -25.4478  -40.8251 H         1 UNK         0.0849 
     68 H68        19.7354  -25.9750  -41.7136 H         1 UNK         0.0849 
     69 H69        19.8170  -28.5078  -41.6611 H         1 UNK         0.0865 
     70 H70        19.7405  -27.9682  -43.3128 H         1 UNK         0.0865 
     71 H71        18.8197  -30.6806  -40.9952 H         1 UNK         0.1346 
     72 H72        18.0031  -33.4093  -44.2001 H         1 UNK         0.1412 
     73 H73        18.4831  -29.2239  -44.9947 H         1 UNK         0.1426 
     74 H74        17.0472  -31.7860  -46.5041 H         1 UNK         0.0716 
     75 H75        18.5820  -32.6204  -46.4851 H         1 UNK         0.0716 
     76 H76        21.1547  -30.9376  -47.4280 H         1 UNK         0.0695 
     77 H77        20.6202  -30.5960  -45.8144 H         1 UNK         0.0695 
     78 H78        21.2713  -28.6234  -48.0380 H         1 UNK         0.0983 
     79 H79        19.2738  -28.0990  -46.1823 H         1 UNK         0.3095 
     80 H80        19.3105  -24.5650  -46.8322 H         1 UNK         0.0454 
     81 H81        17.0615  -25.2968  -47.4435 H         1 UNK         0.0851 
     82 H82        17.4927  -26.9934  -47.2439 H         1 UNK         0.0851 
     83 H83        18.2168  -26.0421  -48.5317 H         1 UNK         0.0851 
     84 H84        17.6437  -25.9439  -45.0082 H         1 UNK         0.2976 
     85 H85        21.6582  -27.9671  -44.5863 H         1 UNK         0.3116 
     86 H86        24.4506  -27.5846  -44.7292 H         1 UNK         0.0646 
     87 H87        25.1864  -29.4615  -43.2489 H         1 UNK         0.0847 
     88 H88        24.4748  -30.1423  -44.6906 H         1 UNK         0.0847 
     89 H89        23.5487  -30.0967  -43.1943 H         1 UNK         0.0847 
     90 H90        25.2318  -27.4761  -42.2842 H         1 UNK         0.3040 
     91 H91        23.6513  -25.5055  -40.9306 H         1 UNK         0.1015 
     92 H92        26.1187  -25.4387  -40.9449 H         1 UNK         0.0786 
     93 H93        26.2058  -26.9935  -40.1165 H         1 UNK         0.0786 
     94 H94        25.5427  -25.5889  -39.2936 H         1 UNK         0.0786 
     95 H95        21.6989  -26.7779  -40.7180 H         1 UNK         0.3172 
     96 H96        20.0758  -27.6633  -39.4756 H         1 UNK         0.0595 
     97 H97        21.9584  -27.2482  -37.0877 H         1 UNK         0.0839 
     98 H98        20.2193  -27.5350  -36.9973 H         1 UNK         0.0839 
     99 H99        20.8280  -26.0723  -37.7396 H         1 UNK         0.0839 
    100 H100       21.5097  -29.2785  -36.9545 H         1 UNK         0.2998 
    101 H101       20.6130  -31.8081  -37.7137 H         1 UNK         0.0822 
    102 H102       20.8536  -31.0408  -35.3638 H         1 UNK         0.0787 
    103 H103       21.7381  -32.5368  -35.5968 H         1 UNK         0.0787 
    104 H104       22.6110  -31.0126  -35.5258 H         1 UNK         0.0787 
    105 H105       23.4750  -30.4094  -38.8676 H         1 UNK         0.3055 
    106 H106       25.1142  -32.7431  -39.2538 H         1 UNK         0.1106 
    107 H107       26.1665  -31.3123  -41.0449 H         1 UNK         0.0828 
    108 H108       24.8995  -30.1118  -40.8215 H         1 UNK         0.0828 
    109 H109       26.0283  -30.4584  -39.5154 H         1 UNK         0.0828 
    110 H110       22.3847  -31.3262  -41.0167 H         1 UNK         0.2931 
    111 H111       21.1497  -31.8648  -42.7086 H         1 UNK         0.0412 
    112 H112       20.7534  -33.2768  -44.8466 H         1 UNK         0.3472 
    113 H113       22.1731  -33.3289  -45.8584 H         1 UNK         0.3472 
    114 H114       21.7096  -34.7433  -41.8146 H         1 UNK         0.0970 
    115 H115       20.4219  -34.3237  -42.9034 H         1 UNK         0.0970 
    116 H116       17.5828  -33.1007  -40.7262 H         1 UNK         0.0612 
    117 H117       18.0240  -34.2417  -41.9732 H         1 UNK         0.0612 
@<TRIPOS>BOND
     1    1    2 1    
     2    1   62 1    
     3    1   63 1    
     4    1   64 1    
     5    2    3 2    
     6    2    4 am   BACKBONE|DICT|INTERRES
     7    4    5 1    
     8    4   65 1    
     9    5    6 1    
    10    5   25 1    
    11    5   66 1    
    12    6    7 1    
    13    6   67 1    
    14    6   68 1    
    15    7    8 1    
    16    8    9 1    
    17    8   69 1    
    18    8   70 1    
    19    9   10 ar   
    20    9   14 ar   
    21   10   11 ar   
    22   10   71 1    
    23   11   12 ar   
    24   11   61 1    
    25   12   13 ar   
    26   12   72 1    
    27   13   14 ar   
    28   13   15 1    
    29   14   73 1    
    30   15   16 1    
    31   15   74 1    
    32   15   75 1    
    33   16   17 1    
    34   17   18 1    
    35   17   76 1    
    36   17   77 1    
    37   18   19 1    
    38   18   27 1    
    39   18   78 1    
    40   19   20 am   BACKBONE|DICT|INTERRES
    41   19   79 1    
    42   20   21 2    
    43   20   22 1    
    44   22   23 1    
    45   22   24 1    
    46   22   80 1    
    47   23   81 1    
    48   23   82 1    
    49   23   83 1    
    50   24   25 am   BACKBONE|DICT|INTERRES
    51   24   84 1    
    52   25   26 2    
    53   27   28 2    
    54   27   29 am   BACKBONE|DICT|INTERRES
    55   29   30 1    
    56   29   85 1    
    57   30   31 1    
    58   30   32 1    
    59   30   86 1    
    60   31   87 1    
    61   31   88 1    
    62   31   89 1    
    63   32   33 2    
    64   32   34 am   BACKBONE|DICT|INTERRES
    65   34   35 1    
    66   34   90 1    
    67   35   36 1    
    68   35   37 1    
    69   35   91 1    
    70   36   92 1    
    71   36   93 1    
    72   36   94 1    
    73   37   38 2    
    74   37   39 am   BACKBONE|DICT|INTERRES
    75   39   40 1    
    76   39   95 1    
    77   40   41 1    
    78   40   42 1    
    79   40   96 1    
    80   41   97 1    
    81   41   98 1    
    82   41   99 1    
    83   42   43 2    
    84   42   44 am   BACKBONE|DICT|INTERRES
    85   44   45 1    
    86   44  100 1    
    87   45   46 1    
    88   45   47 1    
    89   45  101 1    
    90   46  102 1    
    91   46  103 1    
    92   46  104 1    
    93   47   48 2    
    94   47   49 am   BACKBONE|DICT|INTERRES
    95   49   50 1    
    96   49  105 1    
    97   50   51 1    
    98   50   52 1    
    99   50  106 1    
   100   51  107 1    
   101   51  108 1    
   102   51  109 1    
   103   52   53 2    
   104   52   54 am   BACKBONE|DICT|INTERRES
   105   54   55 1    
   106   54  110 1    
   107   55   56 1    
   108   55   59 1    
   109   55  111 1    
   110   56   57 am   BACKBONE|DICT|INTERRES
   111   56   58 2    
   112   57  112 1    
   113   57  113 1    
   114   59   60 1    
   115   59  114 1    
   116   59  115 1    
   117   60   61 1    
   118   61  116 1    
   119   61  117 1    
@<TRIPOS>SUBSTRUCTURE
     1 UNK         1 GROUP             0       ****    0 ROOT    
