@<TRIPOS>MOLECULE
3R8
117   119    1
SMALL
USER_CHARGES


@<TRIPOS>ATOM
      1 CA         18.9061  -23.3019  -39.7089 C.3       0 UNK        -0.2013 
      2 C          18.4028  -23.7386  -41.0767 C.2       0 UNK         0.4866 
      3 O          17.7402  -22.9592  -41.7625 O.2       0 UNK        -0.5176 
      4 N          18.7019  -24.9813  -41.4743 N.am      1 UNK        -0.4884 
      5 CA         18.3358  -25.5587  -42.7712 C.3       1 UNK         0.0853 
      6 C6         18.5705  -27.0892  -42.8067 C.3       10 UNK        -0.0849 
      7 S7         17.5993  -27.9876  -41.5486 S.3       10 UNK        -0.2776 
      8 C8         16.5199  -29.0509  -42.5624 C.3       10 UNK         0.0316 
      9 C9         17.3123  -30.0268  -43.4231 C.ar      10 UNK        -0.0863 
     10 C10        18.0677  -31.0434  -42.8283 C.ar      10 UNK        -0.1009 
     11 C11        18.8047  -31.9335  -43.6161 C.ar      10 UNK        -0.0712 
     12 C12        18.7796  -31.7997  -45.0080 C.ar      10 UNK        -0.0894 
     13 C13        18.0390  -30.7816  -45.6142 C.ar      10 UNK        -0.0745 
     14 C14        17.2928  -29.9090  -44.8166 C.ar      10 UNK        -0.0972 
     15 C15        18.0654  -30.6195  -47.1295 C.3       10 UNK         0.0209 
     16 S16        18.6641  -28.9789  -47.6594 S.3       10 UNK        -0.2568 
     17 C17        20.2703  -28.8554  -46.7959 C.3       10 UNK        -0.0983 
     18 CA         20.9355  -27.4629  -46.9505 C.3       3 UNK         0.0876 
     19 N          20.0117  -26.3870  -46.5810 N.am      3 UNK        -0.4424 
     20 C          20.1343  -25.0918  -46.8967 C.2       2 UNK         0.4918 
     21 O          21.0318  -24.6387  -47.6065 O.2       2 UNK        -0.4875 
     22 CA         19.0902  -24.1367  -46.2835 C.3       2 UNK         0.0481 
     23 CB         17.9904  -23.8189  -47.3088 C.3       2 UNK        -0.1831 
     24 N          18.4728  -24.6503  -45.0512 N.am      2 UNK        -0.4498 
     25 C          19.1345  -24.8956  -43.9100 C.2       1 UNK         0.5027 
     26 O          20.3439  -24.6968  -43.7674 O.2       1 UNK        -0.4969 
     27 C          22.2611  -27.4181  -46.1521 C.2       3 UNK         0.5005 
     28 O          23.1876  -28.1480  -46.5086 O.2       3 UNK        -0.5279 
     29 N          22.3307  -26.5916  -45.0929 N.am      4 UNK        -0.4463 
     30 CA         23.4212  -26.4779  -44.1204 C.3       4 UNK         0.0283 
     31 CB         24.7242  -25.9737  -44.7839 C.3       4 UNK        -0.1875 
     32 C          23.5632  -27.7791  -43.3091 C.2       4 UNK         0.4949 
     33 O          22.5758  -28.2062  -42.7084 O.2       4 UNK        -0.5039 
     34 N          24.7715  -28.3648  -43.2748 N.am      5 UNK        -0.4663 
     35 CA         25.1237  -29.6366  -42.6211 C.3       5 UNK         0.0242 
     36 CB         24.5244  -30.8139  -43.4127 C.3       5 UNK        -0.1982 
     37 C          24.7539  -29.6726  -41.1239 C.2       5 UNK         0.5017 
     38 O          24.1781  -30.6519  -40.6390 O.2       5 UNK        -0.5012 
     39 N          25.0361  -28.5523  -40.4401 N.am      6 UNK        -0.4439 
     40 CA         24.7273  -28.2515  -39.0348 C.3       6 UNK         0.0297 
     41 CB         25.5403  -29.1714  -38.0987 C.3       6 UNK        -0.2006 
     42 C          23.2217  -28.2702  -38.6900 C.2       6 UNK         0.4892 
     43 O          22.8843  -28.3119  -37.5061 O.2       6 UNK        -0.5089 
     44 N          22.3503  -28.2610  -39.7143 N.am      7 UNK        -0.4243 
     45 CA         20.8980  -28.4635  -39.6477 C.3       7 UNK         0.0196 
     46 CB         20.2155  -27.2902  -38.9118 C.3       7 UNK        -0.2007 
     47 C          20.5080  -29.8428  -39.0731 C.2       7 UNK         0.5020 
     48 O          19.4299  -29.9778  -38.4921 O.2       7 UNK        -0.5147 
     49 N          21.3959  -30.8361  -39.2235 N.am      8 UNK        -0.4734 
     50 CA         21.2636  -32.1655  -38.6251 C.3       8 UNK         0.0238 
     51 CB         22.1420  -32.2436  -37.3646 C.3       8 UNK        -0.1912 
     52 C          21.6207  -33.2903  -39.6030 C.2       8 UNK         0.5038 
     53 O          20.9876  -34.3448  -39.5413 O.2       8 UNK        -0.5046 
     54 N          22.6119  -33.0620  -40.4772 N.am      9 UNK        -0.4200 
     55 CA         23.1117  -34.0259  -41.4749 C.3       9 UNK         0.0839 
     56 C          23.8311  -35.2719  -40.8728 C.2       9 UNK         0.5513 
     57 N          24.2892  -35.2301  -39.6271 N.am      9 UNK        -0.7519 
     58 O          24.0075  -36.2820  -41.5496 O.2       9 UNK        -0.4960 
     59 C59        22.0553  -34.4014  -42.5548 C.3       10 UNK        -0.0876 
     60 S60        21.3798  -32.9423  -43.4175 S.3       10 UNK        -0.2414 
     61 C61        19.6187  -33.0467  -42.9701 C.3       10 UNK         0.0169 
     62 H62        18.0709  -22.9808  -39.0871 H         1 UNK         0.0903 
     63 H63        19.4253  -24.1052  -39.1873 H         1 UNK         0.0903 
     64 H64        19.5950  -22.4641  -39.8134 H         1 UNK         0.0903 
     65 H65        19.2505  -25.5803  -40.8761 H         1 UNK         0.3096 
     66 H66        17.2727  -25.3656  -42.9331 H         1 UNK         0.1121 
     67 H67        18.3278  -27.4834  -43.7941 H         1 UNK         0.0849 
     68 H68        19.6258  -27.3224  -42.6480 H         1 UNK         0.0849 
     69 H69        15.8587  -29.6139  -41.9023 H         1 UNK         0.0865 
     70 H70        15.8734  -28.4215  -43.1761 H         1 UNK         0.0865 
     71 H71        18.0851  -31.1331  -41.7504 H         1 UNK         0.1346 
     72 H72        19.3558  -32.4830  -45.6170 H         1 UNK         0.1412 
     73 H73        16.7165  -29.1231  -45.2858 H         1 UNK         0.1426 
     74 H74        17.0589  -30.7719  -47.5211 H         1 UNK         0.0716 
     75 H75        18.6938  -31.3829  -47.5908 H         1 UNK         0.0716 
     76 H76        20.9243  -29.6392  -47.1831 H         1 UNK         0.0695 
     77 H77        20.1192  -29.0771  -45.7376 H         1 UNK         0.0695 
     78 H78        21.1978  -27.3276  -48.0021 H         1 UNK         0.0983 
     79 H79        19.2101  -26.6691  -46.0386 H         1 UNK         0.3095 
     80 H80        19.6046  -23.2062  -46.0346 H         1 UNK         0.0454 
     81 H81        18.4181  -23.4071  -48.2242 H         1 UNK         0.0851 
     82 H82        17.2876  -23.0803  -46.9230 H         1 UNK         0.0851 
     83 H83        17.4255  -24.7097  -47.5866 H         1 UNK         0.0851 
     84 H84        17.4805  -24.8375  -45.0924 H         1 UNK         0.2976 
     85 H85        21.5120  -26.0382  -44.8654 H         1 UNK         0.3116 
     86 H86        23.1054  -25.7151  -43.4070 H         1 UNK         0.0646 
     87 H87        25.1371  -26.6903  -45.4944 H         1 UNK         0.0847 
     88 H88        24.5490  -25.0433  -45.3243 H         1 UNK         0.0847 
     89 H89        25.4916  -25.7642  -44.0377 H         1 UNK         0.0847 
     90 H90        25.5163  -27.9222  -43.7955 H         1 UNK         0.3040 
     91 H91        26.2103  -29.7257  -42.6689 H         1 UNK         0.1015 
     92 H92        24.9127  -31.7639  -43.0484 H         1 UNK         0.0786 
     93 H93        24.7730  -30.7500  -44.4720 H         1 UNK         0.0786 
     94 H94        23.4380  -30.8404  -43.3269 H         1 UNK         0.0786 
     95 H95        25.4777  -27.8023  -40.9546 H         1 UNK         0.3172 
     96 H96        25.0609  -27.2269  -38.8645 H         1 UNK         0.0595 
     97 H97        25.2086  -30.2083  -38.1620 H         1 UNK         0.0839 
     98 H98        25.4384  -28.8628  -37.0575 H         1 UNK         0.0839 
     99 H99        26.6032  -29.1439  -38.3383 H         1 UNK         0.0839 
    100 H100       22.7235  -28.2347  -40.6582 H         1 UNK         0.2998 
    101 H101       20.5477  -28.4611  -40.6804 H         1 UNK         0.0822 
    102 H102       19.1308  -27.3433  -39.0092 H         1 UNK         0.0787 
    103 H103       20.5362  -26.3311  -39.3160 H         1 UNK         0.0787 
    104 H104       20.4419  -27.2954  -37.8453 H         1 UNK         0.0787 
    105 H105       22.2543  -30.6404  -39.7262 H         1 UNK         0.3055 
    106 H106       20.2263  -32.3375  -38.3283 H         1 UNK         0.1106 
    107 H107       21.8299  -31.5096  -36.6213 H         1 UNK         0.0828 
    108 H108       22.0731  -33.2272  -36.8978 H         1 UNK         0.0828 
    109 H109       23.1926  -32.0592  -37.5923 H         1 UNK         0.0828 
    110 H110       23.1136  -32.1789  -40.4559 H         1 UNK         0.2931 
    111 H111       23.9095  -33.4964  -41.9925 H         1 UNK         0.0412 
    112 H112       24.1687  -34.4025  -39.0661 H         1 UNK         0.3472 
    113 H113       24.7625  -36.0351  -39.2472 H         1 UNK         0.3472 
    114 H114       22.5041  -35.0407  -43.3171 H         1 UNK         0.0970 
    115 H115       21.2472  -34.9880  -42.1155 H         1 UNK         0.0970 
    116 H116       19.2203  -34.0099  -43.2915 H         1 UNK         0.0612 
    117 H117       19.5268  -33.0134  -41.8835 H         1 UNK         0.0612 
@<TRIPOS>BOND
     1    1    2 1    
     2    1   62 1    
     3    1   63 1    
     4    1   64 1    
     5    2    3 2    
     6    2    4 am   BACKBONE|DICT|INTERRES
     7    4    5 1    
     8    4   65 1    
     9    5    6 1    
    10    5   25 1    
    11    5   66 1    
    12    6    7 1    
    13    6   67 1    
    14    6   68 1    
    15    7    8 1    
    16    8    9 1    
    17    8   69 1    
    18    8   70 1    
    19    9   10 ar   
    20    9   14 ar   
    21   10   11 ar   
    22   10   71 1    
    23   11   12 ar   
    24   11   61 1    
    25   12   13 ar   
    26   12   72 1    
    27   13   14 ar   
    28   13   15 1    
    29   14   73 1    
    30   15   16 1    
    31   15   74 1    
    32   15   75 1    
    33   16   17 1    
    34   17   18 1    
    35   17   76 1    
    36   17   77 1    
    37   18   19 1    
    38   18   27 1    
    39   18   78 1    
    40   19   20 am   BACKBONE|DICT|INTERRES
    41   19   79 1    
    42   20   21 2    
    43   20   22 1    
    44   22   23 1    
    45   22   24 1    
    46   22   80 1    
    47   23   81 1    
    48   23   82 1    
    49   23   83 1    
    50   24   25 am   BACKBONE|DICT|INTERRES
    51   24   84 1    
    52   25   26 2    
    53   27   28 2    
    54   27   29 am   BACKBONE|DICT|INTERRES
    55   29   30 1    
    56   29   85 1    
    57   30   31 1    
    58   30   32 1    
    59   30   86 1    
    60   31   87 1    
    61   31   88 1    
    62   31   89 1    
    63   32   33 2    
    64   32   34 am   BACKBONE|DICT|INTERRES
    65   34   35 1    
    66   34   90 1    
    67   35   36 1    
    68   35   37 1    
    69   35   91 1    
    70   36   92 1    
    71   36   93 1    
    72   36   94 1    
    73   37   38 2    
    74   37   39 am   BACKBONE|DICT|INTERRES
    75   39   40 1    
    76   39   95 1    
    77   40   41 1    
    78   40   42 1    
    79   40   96 1    
    80   41   97 1    
    81   41   98 1    
    82   41   99 1    
    83   42   43 2    
    84   42   44 am   BACKBONE|DICT|INTERRES
    85   44   45 1    
    86   44  100 1    
    87   45   46 1    
    88   45   47 1    
    89   45  101 1    
    90   46  102 1    
    91   46  103 1    
    92   46  104 1    
    93   47   48 2    
    94   47   49 am   BACKBONE|DICT|INTERRES
    95   49   50 1    
    96   49  105 1    
    97   50   51 1    
    98   50   52 1    
    99   50  106 1    
   100   51  107 1    
   101   51  108 1    
   102   51  109 1    
   103   52   53 2    
   104   52   54 am   BACKBONE|DICT|INTERRES
   105   54   55 1    
   106   54  110 1    
   107   55   56 1    
   108   55   59 1    
   109   55  111 1    
   110   56   57 am   BACKBONE|DICT|INTERRES
   111   56   58 2    
   112   57  112 1    
   113   57  113 1    
   114   59   60 1    
   115   59  114 1    
   116   59  115 1    
   117   60   61 1    
   118   61  116 1    
   119   61  117 1    
@<TRIPOS>SUBSTRUCTURE
     1 UNK         1 GROUP             0       ****    0 ROOT    
