@<TRIPOS>MOLECULE
3R8
117   119    1
SMALL
USER_CHARGES


@<TRIPOS>ATOM
      1 CA         15.1694  -23.0189  -46.0718 C.3       0 UNK        -0.2013 
      2 C          16.2934  -23.9983  -45.7710 C.2       0 UNK         0.4866 
      3 O          17.2976  -24.0187  -46.4836 O.2       0 UNK        -0.5176 
      4 N          16.1457  -24.8024  -44.7106 N.am      1 UNK        -0.4884 
      5 CA         17.0899  -25.8402  -44.2716 C.3       1 UNK         0.0853 
      6 C6         16.3823  -26.9223  -43.4122 C.3       10 UNK        -0.0849 
      7 S7         15.1870  -27.8963  -44.3864 S.3       10 UNK        -0.2776 
      8 C8         15.6575  -29.6117  -43.9507 C.3       10 UNK         0.0316 
      9 C9         17.0635  -30.0488  -44.3727 C.ar      10 UNK        -0.0863 
     10 C10        17.6706  -31.1107  -43.6927 C.ar      10 UNK        -0.1009 
     11 C11        18.9393  -31.5698  -44.0617 C.ar      10 UNK        -0.0712 
     12 C12        19.6180  -30.9437  -45.1116 C.ar      10 UNK        -0.0894 
     13 C13        19.0152  -29.9019  -45.8216 C.ar      10 UNK        -0.0745 
     14 C14        17.7397  -29.4636  -45.4506 C.ar      10 UNK        -0.0972 
     15 C15        19.6937  -29.3103  -47.0490 C.3       10 UNK         0.0209 
     16 S16        20.0311  -27.5319  -46.8677 S.3       10 UNK        -0.2568 
     17 C17        21.8121  -27.4808  -46.4430 C.3       10 UNK        -0.0983 
     18 CA         22.1280  -26.8191  -45.0756 C.3       3 UNK         0.0876 
     19 N          21.2925  -25.6409  -44.8400 N.am      3 UNK        -0.4424 
     20 C          21.4102  -24.7486  -43.8502 C.2       2 UNK         0.4918 
     21 O          22.3124  -24.7641  -43.0146 O.2       2 UNK        -0.4875 
     22 CA         20.2779  -23.7092  -43.7479 C.3       2 UNK         0.0481 
     23 CB         20.6123  -22.4594  -44.5757 C.3       2 UNK        -0.1831 
     24 N          18.9849  -24.2556  -44.1819 N.am      2 UNK        -0.4498 
     25 C          18.3352  -25.2532  -43.5654 C.2       1 UNK         0.5027 
     26 O          18.7206  -25.7315  -42.4988 O.2       1 UNK        -0.4969 
     27 C          22.1105  -27.8422  -43.9206 C.2       3 UNK         0.5005 
     28 O          23.1005  -28.5566  -43.7519 O.2       3 UNK        -0.5279 
     29 N          21.0474  -27.8666  -43.1002 N.am      4 UNK        -0.4463 
     30 CA         20.9620  -28.7144  -41.9064 C.3       4 UNK         0.0283 
     31 CB         19.5364  -28.7016  -41.3388 C.3       4 UNK        -0.1875 
     32 C          21.9823  -28.3381  -40.8178 C.2       4 UNK         0.4949 
     33 O          22.3378  -29.1976  -40.0167 O.2       4 UNK        -0.5039 
     34 N          22.4824  -27.0925  -40.8209 N.am      5 UNK        -0.4663 
     35 CA         23.5746  -26.6590  -39.9435 C.3       5 UNK         0.0242 
     36 CB         23.6672  -25.1252  -39.9537 C.3       5 UNK        -0.1982 
     37 C          24.9303  -27.2853  -40.3221 C.2       5 UNK         0.5017 
     38 O          25.7846  -27.4326  -39.4479 O.2       5 UNK        -0.5012 
     39 N          25.1008  -27.6443  -41.6028 N.am      6 UNK        -0.4439 
     40 CA         26.2837  -28.3275  -42.1249 C.3       6 UNK         0.0297 
     41 CB         26.5605  -27.8550  -43.5622 C.3       6 UNK        -0.2006 
     42 C          26.1098  -29.8527  -42.0762 C.2       6 UNK         0.4892 
     43 O          27.0352  -30.5512  -41.6616 O.2       6 UNK        -0.5089 
     44 N          24.9350  -30.3419  -42.4998 N.am      7 UNK        -0.4243 
     45 CA         24.6012  -31.7680  -42.5579 C.3       7 UNK         0.0196 
     46 CB         23.3766  -31.9590  -43.4684 C.3       7 UNK        -0.2007 
     47 C          24.3451  -32.4098  -41.1829 C.2       7 UNK         0.5020 
     48 O          24.4601  -33.6309  -41.0676 O.2       7 UNK        -0.5147 
     49 N          23.9735  -31.5969  -40.1829 N.am      8 UNK        -0.4734 
     50 CA         23.5124  -31.9482  -38.8328 C.3       8 UNK         0.0238 
     51 CB         24.5571  -32.7619  -38.0405 C.3       8 UNK        -0.1912 
     52 C          22.1300  -32.6200  -38.8597 C.2       8 UNK         0.5038 
     53 O          21.1701  -32.0335  -38.3602 O.2       8 UNK        -0.5046 
     54 N          22.0735  -33.8119  -39.4693 N.am      9 UNK        -0.4200 
     55 CA         20.8917  -34.6149  -39.8278 C.3       9 UNK         0.0839 
     56 C          19.7696  -34.7819  -38.7572 C.2       9 UNK         0.5513 
     57 N          20.0965  -34.7730  -37.4708 N.am      9 UNK        -0.7519 
     58 O          18.6009  -34.9711  -39.0861 O.2       9 UNK        -0.4960 
     59 C59        20.3929  -34.3232  -41.2725 C.3       10 UNK        -0.0876 
     60 S60        19.8591  -32.6122  -41.6271 S.3       10 UNK        -0.2414 
     61 C61        19.5277  -32.8110  -43.4047 C.3       10 UNK         0.0169 
     62 H62        15.5422  -21.9959  -46.0308 H         1 UNK         0.0903 
     63 H63        14.7747  -23.1981  -47.0715 H         1 UNK         0.0903 
     64 H64        14.3477  -23.1099  -45.3617 H         1 UNK         0.0903 
     65 H65        15.3048  -24.7280  -44.1552 H         1 UNK         0.3096 
     66 H66        17.4775  -26.3372  -45.1640 H         1 UNK         0.1121 
     67 H67        17.1086  -27.6139  -42.9845 H         1 UNK         0.0849 
     68 H68        15.8667  -26.4689  -42.5639 H         1 UNK         0.0849 
     69 H69        15.5435  -29.7307  -42.8719 H         1 UNK         0.0865 
     70 H70        14.9381  -30.2907  -44.4101 H         1 UNK         0.0865 
     71 H71        17.1451  -31.6036  -42.8858 H         1 UNK         0.1346 
     72 H72        20.5917  -31.3051  -45.4131 H         1 UNK         0.1412 
     73 H73        17.2714  -28.6762  -46.0238 H         1 UNK         0.1426 
     74 H74        20.6085  -29.8498  -47.2971 H         1 UNK         0.0716 
     75 H75        19.0299  -29.4446  -47.9042 H         1 UNK         0.0716 
     76 H76        22.2972  -26.9003  -47.2292 H         1 UNK         0.0695 
     77 H77        22.2562  -28.4755  -46.5146 H         1 UNK         0.0695 
     78 H78        23.1583  -26.4591  -45.1211 H         1 UNK         0.0983 
     79 H79        20.5123  -25.5465  -45.4748 H         1 UNK         0.3095 
     80 H80        20.1883  -23.4142  -42.7005 H         1 UNK         0.0454 
     81 H81        19.8506  -21.6890  -44.4554 H         1 UNK         0.0851 
     82 H82        20.6942  -22.6868  -45.6394 H         1 UNK         0.0851 
     83 H83        21.5625  -22.0259  -44.2603 H         1 UNK         0.0851 
     84 H84        18.5995  -23.9239  -45.0626 H         1 UNK         0.2976 
     85 H85        20.2824  -27.2246  -43.2584 H         1 UNK         0.3116 
     86 H86        21.1795  -29.7376  -42.2165 H         1 UNK         0.0646 
     87 H87        18.8073  -28.9845  -42.0963 H         1 UNK         0.0847 
     88 H88        19.4431  -29.4188  -40.5220 H         1 UNK         0.0847 
     89 H89        19.2622  -27.7239  -40.9434 H         1 UNK         0.0847 
     90 H90        22.1575  -26.4273  -41.5126 H         1 UNK         0.3040 
     91 H91        23.3395  -26.9784  -38.9254 H         1 UNK         0.1015 
     92 H92        23.9601  -24.7438  -40.9324 H         1 UNK         0.0786 
     93 H93        24.4108  -24.7769  -39.2356 H         1 UNK         0.0786 
     94 H94        22.7160  -24.6658  -39.6841 H         1 UNK         0.0786 
     95 H95        24.3237  -27.5311  -42.2413 H         1 UNK         0.3172 
     96 H96        27.1540  -28.0679  -41.5181 H         1 UNK         0.0595 
     97 H97        25.7350  -28.0850  -44.2366 H         1 UNK         0.0839 
     98 H98        27.4521  -28.3379  -43.9644 H         1 UNK         0.0839 
     99 H99        26.7318  -26.7791  -43.5985 H         1 UNK         0.0839 
    100 H100       24.2427  -29.6976  -42.8779 H         1 UNK         0.2998 
    101 H101       25.4449  -32.2946  -43.0092 H         1 UNK         0.0822 
    102 H102       23.1298  -33.0161  -43.5758 H         1 UNK         0.0787 
    103 H103       22.4951  -31.4594  -43.0671 H         1 UNK         0.0787 
    104 H104       23.5579  -31.5639  -44.4681 H         1 UNK         0.0787 
    105 H105       23.8246  -30.6210  -40.4151 H         1 UNK         0.3055 
    106 H106       23.3845  -30.9990  -38.3093 H         1 UNK         0.1106 
    107 H107       25.5090  -32.2335  -37.9892 H         1 UNK         0.0828 
    108 H108       24.2218  -32.9240  -37.0154 H         1 UNK         0.0828 
    109 H109       24.7451  -33.7434  -38.4753 H         1 UNK         0.0828 
    110 H110       22.9467  -34.1350  -39.8727 H         1 UNK         0.2931 
    111 H111       21.2970  -35.6261  -39.8815 H         1 UNK         0.0412 
    112 H112       19.3764  -34.8940  -36.7760 H         1 UNK         0.3472 
    113 H113       21.0499  -34.6098  -37.1888 H         1 UNK         0.3472 
    114 H114       21.1991  -34.5609  -41.9685 H         1 UNK         0.0970 
    115 H115       19.5804  -35.0027  -41.5363 H         1 UNK         0.0970 
    116 H116       20.4537  -33.1044  -43.9016 H         1 UNK         0.0612 
    117 H117       18.8301  -33.6379  -43.5451 H         1 UNK         0.0612 
@<TRIPOS>BOND
     1    1    2 1    
     2    1   62 1    
     3    1   63 1    
     4    1   64 1    
     5    2    3 2    
     6    2    4 am   BACKBONE|DICT|INTERRES
     7    4    5 1    
     8    4   65 1    
     9    5    6 1    
    10    5   25 1    
    11    5   66 1    
    12    6    7 1    
    13    6   67 1    
    14    6   68 1    
    15    7    8 1    
    16    8    9 1    
    17    8   69 1    
    18    8   70 1    
    19    9   10 ar   
    20    9   14 ar   
    21   10   11 ar   
    22   10   71 1    
    23   11   12 ar   
    24   11   61 1    
    25   12   13 ar   
    26   12   72 1    
    27   13   14 ar   
    28   13   15 1    
    29   14   73 1    
    30   15   16 1    
    31   15   74 1    
    32   15   75 1    
    33   16   17 1    
    34   17   18 1    
    35   17   76 1    
    36   17   77 1    
    37   18   19 1    
    38   18   27 1    
    39   18   78 1    
    40   19   20 am   BACKBONE|DICT|INTERRES
    41   19   79 1    
    42   20   21 2    
    43   20   22 1    
    44   22   23 1    
    45   22   24 1    
    46   22   80 1    
    47   23   81 1    
    48   23   82 1    
    49   23   83 1    
    50   24   25 am   BACKBONE|DICT|INTERRES
    51   24   84 1    
    52   25   26 2    
    53   27   28 2    
    54   27   29 am   BACKBONE|DICT|INTERRES
    55   29   30 1    
    56   29   85 1    
    57   30   31 1    
    58   30   32 1    
    59   30   86 1    
    60   31   87 1    
    61   31   88 1    
    62   31   89 1    
    63   32   33 2    
    64   32   34 am   BACKBONE|DICT|INTERRES
    65   34   35 1    
    66   34   90 1    
    67   35   36 1    
    68   35   37 1    
    69   35   91 1    
    70   36   92 1    
    71   36   93 1    
    72   36   94 1    
    73   37   38 2    
    74   37   39 am   BACKBONE|DICT|INTERRES
    75   39   40 1    
    76   39   95 1    
    77   40   41 1    
    78   40   42 1    
    79   40   96 1    
    80   41   97 1    
    81   41   98 1    
    82   41   99 1    
    83   42   43 2    
    84   42   44 am   BACKBONE|DICT|INTERRES
    85   44   45 1    
    86   44  100 1    
    87   45   46 1    
    88   45   47 1    
    89   45  101 1    
    90   46  102 1    
    91   46  103 1    
    92   46  104 1    
    93   47   48 2    
    94   47   49 am   BACKBONE|DICT|INTERRES
    95   49   50 1    
    96   49  105 1    
    97   50   51 1    
    98   50   52 1    
    99   50  106 1    
   100   51  107 1    
   101   51  108 1    
   102   51  109 1    
   103   52   53 2    
   104   52   54 am   BACKBONE|DICT|INTERRES
   105   54   55 1    
   106   54  110 1    
   107   55   56 1    
   108   55   59 1    
   109   55  111 1    
   110   56   57 am   BACKBONE|DICT|INTERRES
   111   56   58 2    
   112   57  112 1    
   113   57  113 1    
   114   59   60 1    
   115   59  114 1    
   116   59  115 1    
   117   60   61 1    
   118   61  116 1    
   119   61  117 1    
@<TRIPOS>SUBSTRUCTURE
     1 UNK         1 GROUP             0       ****    0 ROOT    
