@<TRIPOS>MOLECULE
3R8
117   119    1
SMALL
USER_CHARGES


@<TRIPOS>ATOM
      1 CA         24.1197  -24.0716  -47.6384 C.3       0 UNK        -0.2013 
      2 C          23.6935  -25.3423  -46.9179 C.2       0 UNK         0.4866 
      3 O          24.4263  -26.3295  -46.9421 O.2       0 UNK        -0.5176 
      4 N          22.5145  -25.3182  -46.2893 N.am      1 UNK        -0.4884 
      5 CA         21.9122  -26.3971  -45.5074 C.3       1 UNK         0.0853 
      6 C6         21.4884  -27.5976  -46.3960 C.3       10 UNK        -0.0849 
      7 S7         20.7868  -28.9849  -45.4444 S.3       10 UNK        -0.2776 
      8 C8         19.3513  -29.4320  -46.4639 C.3       10 UNK         0.0316 
      9 C9         18.3782  -30.2790  -45.6632 C.ar      10 UNK        -0.0863 
     10 C10        18.5304  -31.6658  -45.5921 C.ar      10 UNK        -0.1009 
     11 C11        17.6352  -32.4421  -44.8474 C.ar      10 UNK        -0.0712 
     12 C12        16.5865  -31.8121  -44.1654 C.ar      10 UNK        -0.0894 
     13 C13        16.4152  -30.4242  -44.2387 C.ar      10 UNK        -0.0745 
     14 C14        17.3137  -29.6682  -44.9991 C.ar      10 UNK        -0.0972 
     15 C15        15.2277  -29.7611  -43.5414 C.3       10 UNK         0.0209 
     16 S16        15.6106  -28.1298  -42.8097 S.3       10 UNK        -0.2568 
     17 C17        16.5080  -28.6013  -41.2959 C.3       10 UNK        -0.0983 
     18 CA         18.0277  -28.8280  -41.5145 C.3       3 UNK         0.0876 
     19 N          18.7350  -27.6902  -42.1358 N.am      3 UNK        -0.4424 
     20 C          18.8697  -26.4380  -41.6767 C.2       2 UNK         0.4918 
     21 O          18.4889  -26.0780  -40.5618 O.2       2 UNK        -0.4875 
     22 CA         19.5435  -25.4198  -42.6135 C.3       2 UNK         0.0481 
     23 CB         20.1621  -24.2274  -41.8590 C.3       2 UNK        -0.1831 
     24 N          20.5647  -26.0348  -43.4685 N.am      2 UNK        -0.4498 
     25 C          20.7248  -25.7509  -44.7687 C.2       1 UNK         0.5027 
     26 O          19.9876  -24.9846  -45.3964 O.2       1 UNK        -0.4969 
     27 C          18.6692  -29.3691  -40.2186 C.2       3 UNK         0.5005 
     28 O          18.7617  -30.5866  -40.0664 O.2       3 UNK        -0.5279 
     29 N          19.1002  -28.4784  -39.3210 N.am      4 UNK        -0.4463 
     30 CA         19.7607  -28.7850  -38.0499 C.3       4 UNK         0.0283 
     31 CB         18.8124  -28.4098  -36.8969 C.3       4 UNK        -0.1875 
     32 C          21.1140  -28.0633  -37.9172 C.2       4 UNK         0.4949 
     33 O          21.7154  -28.1071  -36.8434 O.2       4 UNK        -0.5039 
     34 N          21.5742  -27.4085  -38.9894 N.am      5 UNK        -0.4663 
     35 CA         22.8187  -26.6497  -39.0589 C.3       5 UNK         0.0242 
     36 CB         22.6044  -25.2440  -38.4648 C.3       5 UNK        -0.1982 
     37 C          23.2789  -26.5790  -40.5198 C.2       5 UNK         0.5017 
     38 O          22.5025  -26.9100  -41.4209 O.2       5 UNK        -0.5012 
     39 N          24.5287  -26.1374  -40.7190 N.am      6 UNK        -0.4439 
     40 CA         25.2157  -25.9856  -42.0085 C.3       6 UNK         0.0297 
     41 CB         24.5339  -24.9044  -42.8775 C.3       6 UNK        -0.2006 
     42 C          25.4107  -27.3288  -42.7406 C.2       6 UNK         0.4892 
     43 O          25.1139  -27.4304  -43.9297 O.2       6 UNK        -0.5089 
     44 N          25.9116  -28.3322  -42.0007 N.am      7 UNK        -0.4243 
     45 CA         26.2248  -29.6988  -42.4522 C.3       7 UNK         0.0196 
     46 CB         27.4097  -29.6886  -43.4425 C.3       7 UNK        -0.2007 
     47 C          25.0005  -30.4698  -42.9906 C.2       7 UNK         0.5020 
     48 O          25.1242  -31.2549  -43.9328 O.2       7 UNK        -0.5147 
     49 N          23.8377  -30.2250  -42.3767 N.am      8 UNK        -0.4734 
     50 CA         22.5582  -30.8484  -42.7110 C.3       8 UNK         0.0238 
     51 CB         21.4387  -29.9591  -42.1538 C.3       8 UNK        -0.1912 
     52 C          22.4249  -32.2874  -42.1800 C.2       8 UNK         0.5038 
     53 O          23.3128  -32.7839  -41.4814 O.2       8 UNK        -0.5046 
     54 N          21.2926  -32.9137  -42.5243 N.am      9 UNK        -0.4200 
     55 CA         20.8579  -34.2538  -42.1046 C.3       9 UNK         0.0839 
     56 C          20.8768  -34.4741  -40.5656 C.2       9 UNK         0.5513 
     57 N          21.2575  -35.6625  -40.1167 N.am      9 UNK        -0.7519 
     58 O          20.5045  -33.6028  -39.7841 O.2       9 UNK        -0.4960 
     59 C59        19.4477  -34.5691  -42.6679 C.3       10 UNK        -0.0876 
     60 S60        19.4189  -34.5888  -44.4912 S.3       10 UNK        -0.2414 
     61 C61        17.7428  -33.9649  -44.8495 C.3       10 UNK         0.0169 
     62 H62        25.0600  -23.7054  -47.2269 H         1 UNK         0.0903 
     63 H63        24.2674  -24.2731  -48.6991 H         1 UNK         0.0903 
     64 H64        23.3772  -23.2792  -47.5442 H         1 UNK         0.0903 
     65 H65        21.9392  -24.4842  -46.3173 H         1 UNK         0.3096 
     66 H66        22.6457  -26.7396  -44.7742 H         1 UNK         0.1121 
     67 H67        20.7838  -27.2677  -47.1614 H         1 UNK         0.0849 
     68 H68        22.3517  -27.9877  -46.9361 H         1 UNK         0.0849 
     69 H69        19.6868  -29.9708  -47.3513 H         1 UNK         0.0865 
     70 H70        18.8494  -28.5307  -46.8196 H         1 UNK         0.0865 
     71 H71        19.3399  -32.1427  -46.1280 H         1 UNK         0.1346 
     72 H72        15.8808  -32.4078  -43.6024 H         1 UNK         0.1412 
     73 H73        17.1860  -28.5971  -45.0765 H         1 UNK         0.1426 
     74 H74        14.8185  -30.4127  -42.7678 H         1 UNK         0.0716 
     75 H75        14.4353  -29.6273  -44.2788 H         1 UNK         0.0716 
     76 H76        16.0397  -29.4987  -40.8862 H         1 UNK         0.0695 
     77 H77        16.3435  -27.8161  -40.5559 H         1 UNK         0.0695 
     78 H78        18.1278  -29.6399  -42.2348 H         1 UNK         0.0983 
     79 H79        19.1004  -27.8756  -43.0593 H         1 UNK         0.3095 
     80 H80        18.7300  -25.0329  -43.2301 H         1 UNK         0.0454 
     81 H81        20.5570  -23.4838  -42.5511 H         1 UNK         0.0851 
     82 H82        20.9783  -24.5456  -41.2117 H         1 UNK         0.0851 
     83 H83        19.4232  -23.7231  -41.2351 H         1 UNK         0.0851 
     84 H84        21.2425  -26.6217  -42.9888 H         1 UNK         0.2976 
     85 H85        18.9439  -27.4937  -39.5344 H         1 UNK         0.3116 
     86 H86        19.9761  -29.8533  -37.9837 H         1 UNK         0.0646 
     87 H87        19.2481  -28.6618  -35.9292 H         1 UNK         0.0847 
     88 H88        17.8666  -28.9463  -36.9723 H         1 UNK         0.0847 
     89 H89        18.5925  -27.3416  -36.8887 H         1 UNK         0.0847 
     90 H90        21.0804  -27.4750  -39.8697 H         1 UNK         0.3040 
     91 H91        23.5896  -27.1750  -38.4903 H         1 UNK         0.1015 
     92 H92        22.3296  -25.2983  -37.4112 H         1 UNK         0.0786 
     93 H93        21.8137  -24.7025  -38.9843 H         1 UNK         0.0786 
     94 H94        23.5104  -24.6403  -38.5268 H         1 UNK         0.0786 
     95 H95        25.0761  -25.8865  -39.9067 H         1 UNK         0.3172 
     96 H96        26.2196  -25.6250  -41.7792 H         1 UNK         0.0595 
     97 H97        23.5152  -25.1777  -43.1485 H         1 UNK         0.0839 
     98 H98        25.0831  -24.7442  -43.8062 H         1 UNK         0.0839 
     99 H99        24.4931  -23.9476  -42.3574 H         1 UNK         0.0839 
    100 H100       26.1077  -28.1407  -41.0280 H         1 UNK         0.2998 
    101 H101       26.5488  -30.2445  -41.5646 H         1 UNK         0.0822 
    102 H102       27.1440  -29.2087  -44.3851 H         1 UNK         0.0787 
    103 H103       28.2694  -29.1622  -43.0282 H         1 UNK         0.0787 
    104 H104       27.7347  -30.7034  -43.6754 H         1 UNK         0.0787 
    105 H105       23.8323  -29.5677  -41.6117 H         1 UNK         0.3055 
    106 H106       22.4696  -30.8879  -43.7991 H         1 UNK         0.1106 
    107 H107       20.4572  -30.3431  -42.4299 H         1 UNK         0.0828 
    108 H108       21.4801  -29.8944  -41.0660 H         1 UNK         0.0828 
    109 H109       21.5033  -28.9507  -42.5568 H         1 UNK         0.0828 
    110 H110       20.6302  -32.4196  -43.1028 H         1 UNK         0.2931 
    111 H111       21.5672  -34.9562  -42.5473 H         1 UNK         0.0412 
    112 H112       21.5533  -36.3896  -40.7500 H         1 UNK         0.3472 
    113 H113       21.2604  -35.8330  -39.1228 H         1 UNK         0.3472 
    114 H114       19.1043  -35.5474  -42.3253 H         1 UNK         0.0970 
    115 H115       18.7209  -33.8433  -42.2963 H         1 UNK         0.0970 
    116 H116       17.4517  -34.3215  -45.8383 H         1 UNK         0.0612 
    117 H117       17.0378  -34.4109  -44.1461 H         1 UNK         0.0612 
@<TRIPOS>BOND
     1    1    2 1    
     2    1   62 1    
     3    1   63 1    
     4    1   64 1    
     5    2    3 2    
     6    2    4 am   BACKBONE|DICT|INTERRES
     7    4    5 1    
     8    4   65 1    
     9    5    6 1    
    10    5   25 1    
    11    5   66 1    
    12    6    7 1    
    13    6   67 1    
    14    6   68 1    
    15    7    8 1    
    16    8    9 1    
    17    8   69 1    
    18    8   70 1    
    19    9   10 ar   
    20    9   14 ar   
    21   10   11 ar   
    22   10   71 1    
    23   11   12 ar   
    24   11   61 1    
    25   12   13 ar   
    26   12   72 1    
    27   13   14 ar   
    28   13   15 1    
    29   14   73 1    
    30   15   16 1    
    31   15   74 1    
    32   15   75 1    
    33   16   17 1    
    34   17   18 1    
    35   17   76 1    
    36   17   77 1    
    37   18   19 1    
    38   18   27 1    
    39   18   78 1    
    40   19   20 am   BACKBONE|DICT|INTERRES
    41   19   79 1    
    42   20   21 2    
    43   20   22 1    
    44   22   23 1    
    45   22   24 1    
    46   22   80 1    
    47   23   81 1    
    48   23   82 1    
    49   23   83 1    
    50   24   25 am   BACKBONE|DICT|INTERRES
    51   24   84 1    
    52   25   26 2    
    53   27   28 2    
    54   27   29 am   BACKBONE|DICT|INTERRES
    55   29   30 1    
    56   29   85 1    
    57   30   31 1    
    58   30   32 1    
    59   30   86 1    
    60   31   87 1    
    61   31   88 1    
    62   31   89 1    
    63   32   33 2    
    64   32   34 am   BACKBONE|DICT|INTERRES
    65   34   35 1    
    66   34   90 1    
    67   35   36 1    
    68   35   37 1    
    69   35   91 1    
    70   36   92 1    
    71   36   93 1    
    72   36   94 1    
    73   37   38 2    
    74   37   39 am   BACKBONE|DICT|INTERRES
    75   39   40 1    
    76   39   95 1    
    77   40   41 1    
    78   40   42 1    
    79   40   96 1    
    80   41   97 1    
    81   41   98 1    
    82   41   99 1    
    83   42   43 2    
    84   42   44 am   BACKBONE|DICT|INTERRES
    85   44   45 1    
    86   44  100 1    
    87   45   46 1    
    88   45   47 1    
    89   45  101 1    
    90   46  102 1    
    91   46  103 1    
    92   46  104 1    
    93   47   48 2    
    94   47   49 am   BACKBONE|DICT|INTERRES
    95   49   50 1    
    96   49  105 1    
    97   50   51 1    
    98   50   52 1    
    99   50  106 1    
   100   51  107 1    
   101   51  108 1    
   102   51  109 1    
   103   52   53 2    
   104   52   54 am   BACKBONE|DICT|INTERRES
   105   54   55 1    
   106   54  110 1    
   107   55   56 1    
   108   55   59 1    
   109   55  111 1    
   110   56   57 am   BACKBONE|DICT|INTERRES
   111   56   58 2    
   112   57  112 1    
   113   57  113 1    
   114   59   60 1    
   115   59  114 1    
   116   59  115 1    
   117   60   61 1    
   118   61  116 1    
   119   61  117 1    
@<TRIPOS>SUBSTRUCTURE
     1 UNK         1 GROUP             0       ****    0 ROOT    
