@<TRIPOS>MOLECULE
3R8
117   119    1
SMALL
USER_CHARGES


@<TRIPOS>ATOM
      1 CA         13.5600  -25.1669  -41.7482 C.3       0 UNK        -0.2013 
      2 C          14.8344  -25.6476  -42.4262 C.2       0 UNK         0.4866 
      3 O          15.5929  -24.8327  -42.9526 O.2       0 UNK        -0.5176 
      4 N          15.0707  -26.9651  -42.4267 N.am      1 UNK        -0.4884 
      5 CA         16.2687  -27.6001  -42.9834 C.3       1 UNK         0.0853 
      6 C6         16.0991  -29.1325  -43.1076 C.3       10 UNK        -0.0849 
      7 S7         14.8556  -29.6087  -44.3579 S.3       10 UNK        -0.2776 
      8 C8         15.8653  -29.8456  -45.8632 C.3       10 UNK         0.0316 
      9 C9         17.0042  -30.8345  -45.6514 C.ar      10 UNK        -0.0863 
     10 C10        16.7299  -32.1731  -45.3611 C.ar      10 UNK        -0.1009 
     11 C11        17.7681  -33.0605  -45.0630 C.ar      10 UNK        -0.0712 
     12 C12        19.0911  -32.6153  -45.1181 C.ar      10 UNK        -0.0894 
     13 C13        19.3820  -31.2799  -45.4130 C.ar      10 UNK        -0.0745 
     14 C14        18.3310  -30.3944  -45.6796 C.ar      10 UNK        -0.0972 
     15 C15        20.8262  -30.8050  -45.3088 C.3       10 UNK         0.0209 
     16 S16        21.2753  -29.4076  -46.3824 S.3       10 UNK        -0.2568 
     17 C17        22.7852  -28.8493  -45.5233 C.3       10 UNK        -0.0983 
     18 CA         22.5870  -27.4797  -44.8268 C.3       3 UNK         0.0876 
     19 N          21.5610  -27.5098  -43.7759 N.am      3 UNK        -0.4424 
     20 C          20.9011  -26.4256  -43.3502 C.2       2 UNK         0.4918 
     21 O          21.0270  -25.3098  -43.8594 O.2       2 UNK        -0.4875 
     22 CA         19.9110  -26.6190  -42.1976 C.3       2 UNK         0.0481 
     23 CB         19.8814  -25.3896  -41.2644 C.3       2 UNK        -0.1831 
     24 N          18.6002  -26.8761  -42.7856 N.am      2 UNK        -0.4498 
     25 C          17.5088  -27.2795  -42.1255 C.2       1 UNK         0.5027 
     26 O          17.4605  -27.4486  -40.9039 O.2       1 UNK        -0.4969 
     27 C          23.9088  -26.9288  -44.2531 C.2       3 UNK         0.5005 
     28 O          24.7979  -27.7056  -43.8952 O.2       3 UNK        -0.5279 
     29 N          23.9953  -25.5947  -44.1501 N.am      4 UNK        -0.4463 
     30 CA         25.1491  -24.8131  -43.6911 C.3       4 UNK         0.0283 
     31 CB         26.2656  -24.8458  -44.7610 C.3       4 UNK        -0.1875 
     32 C          25.6172  -25.2235  -42.2785 C.2       4 UNK         0.4949 
     33 O          24.7770  -25.4444  -41.4046 O.2       4 UNK        -0.5039 
     34 N          26.9385  -25.3158  -42.0751 N.am      5 UNK        -0.4663 
     35 CA         27.5666  -25.7154  -40.8128 C.3       5 UNK         0.0242 
     36 CB         29.0563  -25.3366  -40.8516 C.3       5 UNK        -0.1982 
     37 C          27.4005  -27.2101  -40.4839 C.2       5 UNK         0.5017 
     38 O          27.4859  -27.5721  -39.3099 O.2       5 UNK        -0.5012 
     39 N          27.1734  -28.0485  -41.5072 N.am      6 UNK        -0.4439 
     40 CA         26.8991  -29.4803  -41.3518 C.3       6 UNK         0.0297 
     41 CB         27.0713  -30.1964  -42.7011 C.3       6 UNK        -0.2006 
     42 C          25.4982  -29.7367  -40.7734 C.2       6 UNK         0.4892 
     43 O          25.3391  -30.6440  -39.9554 O.2       6 UNK        -0.5089 
     44 N          24.5241  -28.9207  -41.2026 N.am      7 UNK        -0.4243 
     45 CA         23.1148  -28.8608  -40.7987 C.3       7 UNK         0.0196 
     46 CB         22.9602  -28.5595  -39.2963 C.3       7 UNK        -0.2007 
     47 C          22.2802  -30.0833  -41.2144 C.2       7 UNK         0.5020 
     48 O          21.2354  -29.9013  -41.8408 O.2       7 UNK        -0.5147 
     49 N          22.7523  -31.2876  -40.8655 N.am      8 UNK        -0.4734 
     50 CA         22.1262  -32.6005  -41.0567 C.3       8 UNK         0.0238 
     51 CB         22.2014  -33.0330  -42.5356 C.3       8 UNK        -0.1912 
     52 C          20.7112  -32.6465  -40.4495 C.2       8 UNK         0.5038 
     53 O          20.5956  -32.5955  -39.2236 O.2       8 UNK        -0.5046 
     54 N          19.6744  -32.7340  -41.2937 N.am      9 UNK        -0.4200 
     55 CA         18.2611  -32.7216  -40.8803 C.3       9 UNK         0.0839 
     56 C          17.7546  -31.3292  -40.3983 C.2       9 UNK         0.5513 
     57 N          18.4874  -30.2424  -40.6144 N.am      9 UNK        -0.7519 
     58 O          16.6691  -31.2374  -39.8316 O.2       9 UNK        -0.4960 
     59 C59        17.2995  -33.3007  -41.9599 C.3       10 UNK        -0.0876 
     60 S60        17.9448  -34.7685  -42.8519 S.3       10 UNK        -0.2414 
     61 C61        17.4496  -34.4727  -44.5898 C.3       10 UNK         0.0169 
     62 H62        12.9332  -24.6334  -42.4623 H         1 UNK         0.0903 
     63 H63        12.9791  -25.9929  -41.3383 H         1 UNK         0.0903 
     64 H64        13.8033  -24.4861  -40.9328 H         1 UNK         0.0903 
     65 H65        14.4193  -27.5893  -41.9726 H         1 UNK         0.3096 
     66 H66        16.4279  -27.1900  -43.9834 H         1 UNK         0.1121 
     67 H67        15.7895  -29.5551  -42.1497 H         1 UNK         0.0849 
     68 H68        17.0508  -29.6145  -43.3324 H         1 UNK         0.0849 
     69 H69        15.2231  -30.2067  -46.6678 H         1 UNK         0.0865 
     70 H70        16.2465  -28.8770  -46.1902 H         1 UNK         0.0865 
     71 H71        15.7019  -32.5048  -45.3045 H         1 UNK         0.1346 
     72 H72        19.8902  -33.3015  -44.8727 H         1 UNK         0.1412 
     73 H73        18.5405  -29.3511  -45.8694 H         1 UNK         0.1426 
     74 H74        21.5158  -31.6261  -45.5108 H         1 UNK         0.0716 
     75 H75        20.9826  -30.5005  -44.2770 H         1 UNK         0.0716 
     76 H76        23.1174  -29.6048  -44.8083 H         1 UNK         0.0695 
     77 H77        23.5760  -28.7797  -46.2728 H         1 UNK         0.0695 
     78 H78        22.2634  -26.7825  -45.6038 H         1 UNK         0.0983 
     79 H79        21.3995  -28.3992  -43.3165 H         1 UNK         0.3095 
     80 H80        20.2128  -27.4890  -41.6132 H         1 UNK         0.0454 
     81 H81        19.4802  -24.5094  -41.7682 H         1 UNK         0.0851 
     82 H82        20.8855  -25.1399  -40.9188 H         1 UNK         0.0851 
     83 H83        19.2756  -25.5706  -40.3771 H         1 UNK         0.0851 
     84 H84        18.5549  -26.7566  -43.7888 H         1 UNK         0.2976 
     85 H85        23.1574  -25.0616  -44.3545 H         1 UNK         0.3116 
     86 H86        24.8033  -23.7821  -43.6047 H         1 UNK         0.0646 
     87 H87        26.7036  -25.8394  -44.8658 H         1 UNK         0.0847 
     88 H88        27.0684  -24.1462  -44.5253 H         1 UNK         0.0847 
     89 H89        25.8783  -24.5557  -45.7378 H         1 UNK         0.0847 
     90 H90        27.5586  -25.1103  -42.8454 H         1 UNK         0.3040 
     91 H91        27.0916  -25.1540  -40.0047 H         1 UNK         0.1015 
     92 H92        29.5861  -25.8582  -41.6497 H         1 UNK         0.0786 
     93 H93        29.5488  -25.5931  -39.9123 H         1 UNK         0.0786 
     94 H94        29.1902  -24.2651  -41.0020 H         1 UNK         0.0786 
     95 H95        27.0906  -27.6611  -42.4368 H         1 UNK         0.3172 
     96 H96        27.6298  -29.8957  -40.6543 H         1 UNK         0.0595 
     97 H97        26.8956  -31.2680  -42.5967 H         1 UNK         0.0839 
     98 H98        28.0817  -30.0716  -43.0906 H         1 UNK         0.0839 
     99 H99        26.3737  -29.8258  -43.4528 H         1 UNK         0.0839 
    100 H100       24.7753  -28.2727  -41.9433 H         1 UNK         0.2998 
    101 H101       22.7078  -28.0016  -41.3303 H         1 UNK         0.0822 
    102 H102       21.9099  -28.4229  -39.0348 H         1 UNK         0.0787 
    103 H103       23.3466  -29.3657  -38.6722 H         1 UNK         0.0787 
    104 H104       23.4847  -27.6435  -39.0233 H         1 UNK         0.0787 
    105 H105       23.6358  -31.2874  -40.3593 H         1 UNK         0.3055 
    106 H106       22.7209  -33.3111  -40.4802 H         1 UNK         0.1106 
    107 H107       21.7910  -34.0341  -42.6756 H         1 UNK         0.0828 
    108 H108       21.6543  -32.3564  -43.1849 H         1 UNK         0.0828 
    109 H109       23.2341  -33.0589  -42.8834 H         1 UNK         0.0828 
    110 H110       19.8456  -32.7544  -42.2867 H         1 UNK         0.2931 
    111 H111       18.1887  -33.3830  -40.0146 H         1 UNK         0.0412 
    112 H112       18.1270  -29.3372  -40.3407 H         1 UNK         0.3472 
    113 H113       19.3888  -30.3036  -41.0735 H         1 UNK         0.3472 
    114 H114       16.3549  -33.5852  -41.4930 H         1 UNK         0.0970 
    115 H115       17.0366  -32.5181  -42.6698 H         1 UNK         0.0970 
    116 H116       17.9608  -35.1917  -45.2313 H         1 UNK         0.0612 
    117 H117       16.3826  -34.6795  -44.6857 H         1 UNK         0.0612 
@<TRIPOS>BOND
     1    1    2 1    
     2    1   62 1    
     3    1   63 1    
     4    1   64 1    
     5    2    3 2    
     6    2    4 am   BACKBONE|DICT|INTERRES
     7    4    5 1    
     8    4   65 1    
     9    5    6 1    
    10    5   25 1    
    11    5   66 1    
    12    6    7 1    
    13    6   67 1    
    14    6   68 1    
    15    7    8 1    
    16    8    9 1    
    17    8   69 1    
    18    8   70 1    
    19    9   10 ar   
    20    9   14 ar   
    21   10   11 ar   
    22   10   71 1    
    23   11   12 ar   
    24   11   61 1    
    25   12   13 ar   
    26   12   72 1    
    27   13   14 ar   
    28   13   15 1    
    29   14   73 1    
    30   15   16 1    
    31   15   74 1    
    32   15   75 1    
    33   16   17 1    
    34   17   18 1    
    35   17   76 1    
    36   17   77 1    
    37   18   19 1    
    38   18   27 1    
    39   18   78 1    
    40   19   20 am   BACKBONE|DICT|INTERRES
    41   19   79 1    
    42   20   21 2    
    43   20   22 1    
    44   22   23 1    
    45   22   24 1    
    46   22   80 1    
    47   23   81 1    
    48   23   82 1    
    49   23   83 1    
    50   24   25 am   BACKBONE|DICT|INTERRES
    51   24   84 1    
    52   25   26 2    
    53   27   28 2    
    54   27   29 am   BACKBONE|DICT|INTERRES
    55   29   30 1    
    56   29   85 1    
    57   30   31 1    
    58   30   32 1    
    59   30   86 1    
    60   31   87 1    
    61   31   88 1    
    62   31   89 1    
    63   32   33 2    
    64   32   34 am   BACKBONE|DICT|INTERRES
    65   34   35 1    
    66   34   90 1    
    67   35   36 1    
    68   35   37 1    
    69   35   91 1    
    70   36   92 1    
    71   36   93 1    
    72   36   94 1    
    73   37   38 2    
    74   37   39 am   BACKBONE|DICT|INTERRES
    75   39   40 1    
    76   39   95 1    
    77   40   41 1    
    78   40   42 1    
    79   40   96 1    
    80   41   97 1    
    81   41   98 1    
    82   41   99 1    
    83   42   43 2    
    84   42   44 am   BACKBONE|DICT|INTERRES
    85   44   45 1    
    86   44  100 1    
    87   45   46 1    
    88   45   47 1    
    89   45  101 1    
    90   46  102 1    
    91   46  103 1    
    92   46  104 1    
    93   47   48 2    
    94   47   49 am   BACKBONE|DICT|INTERRES
    95   49   50 1    
    96   49  105 1    
    97   50   51 1    
    98   50   52 1    
    99   50  106 1    
   100   51  107 1    
   101   51  108 1    
   102   51  109 1    
   103   52   53 2    
   104   52   54 am   BACKBONE|DICT|INTERRES
   105   54   55 1    
   106   54  110 1    
   107   55   56 1    
   108   55   59 1    
   109   55  111 1    
   110   56   57 am   BACKBONE|DICT|INTERRES
   111   56   58 2    
   112   57  112 1    
   113   57  113 1    
   114   59   60 1    
   115   59  114 1    
   116   59  115 1    
   117   60   61 1    
   118   61  116 1    
   119   61  117 1    
@<TRIPOS>SUBSTRUCTURE
     1 UNK         1 GROUP             0       ****    0 ROOT    
