@<TRIPOS>MOLECULE
3R8
117   119    1
SMALL
USER_CHARGES


@<TRIPOS>ATOM
      1 CA         16.9393  -22.7647  -47.4685 C.3       0 UNK        -0.2013 
      2 C          16.7677  -24.2624  -47.2638 C.2       0 UNK         0.4866 
      3 O          16.8804  -25.0293  -48.2204 O.2       0 UNK        -0.5176 
      4 N          16.4980  -24.6860  -46.0256 N.am      1 UNK        -0.4884 
      5 CA         16.3508  -26.0823  -45.6222 C.3       1 UNK         0.0853 
      6 C6         14.9526  -26.6459  -45.9957 C.3       10 UNK        -0.0849 
      7 S7         14.7127  -28.4407  -45.7399 S.3       10 UNK        -0.2776 
      8 C8         15.8518  -29.1936  -46.9491 C.3       10 UNK         0.0316 
      9 C9         17.2128  -29.5016  -46.3348 C.ar      10 UNK        -0.0863 
     10 C10        17.3300  -30.4858  -45.3476 C.ar      10 UNK        -0.1009 
     11 C11        18.5765  -30.7955  -44.7943 C.ar      10 UNK        -0.0712 
     12 C12        19.7111  -30.1046  -45.2289 C.ar      10 UNK        -0.0894 
     13 C13        19.6056  -29.1053  -46.2002 C.ar      10 UNK        -0.0745 
     14 C14        18.3586  -28.8255  -46.7655 C.ar      10 UNK        -0.0972 
     15 C15        20.8347  -28.3326  -46.6544 C.3       10 UNK         0.0209 
     16 S16        21.0764  -26.8158  -45.6723 S.3       10 UNK        -0.2568 
     17 C17        21.9213  -27.4597  -44.1875 C.3       10 UNK        -0.0983 
     18 CA         21.1928  -27.1206  -42.8610 C.3       3 UNK         0.0876 
     19 N          19.8085  -27.6032  -42.8592 N.am      3 UNK        -0.4424 
     20 C          18.8278  -27.1845  -42.0491 C.2       2 UNK         0.4918 
     21 O          18.9787  -26.3400  -41.1634 O.2       2 UNK        -0.4875 
     22 CA         17.4398  -27.7862  -42.3260 C.3       2 UNK         0.0481 
     23 CB         16.3970  -27.4424  -41.2418 C.3       2 UNK        -0.1831 
     24 N          16.9679  -27.4151  -43.6632 N.am      2 UNK        -0.4498 
     25 C          16.6996  -26.1849  -44.1260 C.2       1 UNK         0.5027 
     26 O          16.7334  -25.1584  -43.4402 O.2       1 UNK        -0.4969 
     27 C          21.9737  -27.6274  -41.6256 C.2       3 UNK         0.5005 
     28 O          22.8660  -28.4720  -41.7544 O.2       3 UNK        -0.5279 
     29 N          21.6129  -27.1105  -40.4430 N.am      4 UNK        -0.4463 
     30 CA         22.2338  -27.3857  -39.1451 C.3       4 UNK         0.0283 
     31 CB         21.5460  -26.5361  -38.0656 C.3       4 UNK        -0.1875 
     32 C          23.7481  -27.1191  -39.1533 C.2       4 UNK         0.4949 
     33 O          24.1880  -26.1264  -39.7375 O.2       4 UNK        -0.5039 
     34 N          24.5112  -28.0295  -38.5340 N.am      5 UNK        -0.4663 
     35 CA         25.9802  -28.1074  -38.4646 C.3       5 UNK         0.0242 
     36 CB         26.5794  -26.8767  -37.7559 C.3       5 UNK        -0.1982 
     37 C          26.6833  -28.3667  -39.8129 C.2       5 UNK         0.5017 
     38 O          27.6262  -29.1574  -39.8466 O.2       5 UNK        -0.5012 
     39 N          26.2247  -27.7107  -40.8869 N.am      6 UNK        -0.4439 
     40 CA         26.7269  -27.8458  -42.2557 C.3       6 UNK         0.0297 
     41 CB         26.1103  -26.7507  -43.1409 C.3       6 UNK        -0.2006 
     42 C          26.4706  -29.2452  -42.8380 C.2       6 UNK         0.4892 
     43 O          27.4157  -29.8931  -43.2900 O.2       6 UNK        -0.5089 
     44 N          25.2082  -29.6876  -42.7875 N.am      7 UNK        -0.4243 
     45 CA         24.7884  -31.0529  -43.1100 C.3       7 UNK         0.0196 
     46 CB         23.6282  -31.0121  -44.1172 C.3       7 UNK        -0.2007 
     47 C          24.3426  -31.7931  -41.8422 C.2       7 UNK         0.5020 
     48 O          24.4893  -33.0126  -41.7784 O.2       7 UNK        -0.5147 
     49 N          23.7681  -31.0565  -40.8777 N.am      8 UNK        -0.4734 
     50 CA         23.2273  -31.4928  -39.5801 C.3       8 UNK         0.0238 
     51 CB         24.2957  -32.2071  -38.7287 C.3       8 UNK        -0.1912 
     52 C          21.9224  -32.3082  -39.6579 C.2       8 UNK         0.5038 
     53 O          21.1951  -32.3498  -38.6651 O.2       8 UNK        -0.5046 
     54 N          21.6326  -32.9042  -40.8209 N.am      9 UNK        -0.4200 
     55 CA         20.4055  -33.6467  -41.1539 C.3       9 UNK         0.0839 
     56 C          20.2302  -34.9921  -40.3855 C.2       9 UNK         0.5513 
     57 N          21.2784  -35.5570  -39.7980 N.am      9 UNK        -0.7519 
     58 O          19.1377  -35.5526  -40.3463 O.2       9 UNK        -0.4960 
     59 C59        19.1257  -32.7597  -41.1186 C.3       10 UNK        -0.0876 
     60 S60        19.2582  -31.2538  -42.1444 S.3       10 UNK        -0.2414 
     61 C61        18.7027  -31.8975  -43.7524 C.3       10 UNK         0.0169 
     62 H62        17.9357  -22.5507  -47.8542 H         1 UNK         0.0903 
     63 H63        16.2087  -22.3986  -48.1893 H         1 UNK         0.0903 
     64 H64        16.8080  -22.2086  -46.5404 H         1 UNK         0.0903 
     65 H65        16.4670  -24.0375  -45.2466 H         1 UNK         0.3096 
     66 H66        17.1163  -26.6375  -46.1567 H         1 UNK         0.1121 
     67 H67        14.7393  -26.4399  -47.0457 H         1 UNK         0.0849 
     68 H68        14.1789  -26.1195  -45.4337 H         1 UNK         0.0849 
     69 H69        15.4123  -30.1253  -47.3086 H         1 UNK         0.0865 
     70 H70        15.9470  -28.5480  -47.8238 H         1 UNK         0.0865 
     71 H71        16.4474  -31.0190  -45.0200 H         1 UNK         0.1346 
     72 H72        20.6749  -30.3504  -44.8073 H         1 UNK         0.1412 
     73 H73        18.2830  -28.0713  -47.5379 H         1 UNK         0.1426 
     74 H74        20.7244  -28.0523  -47.7031 H         1 UNK         0.0716 
     75 H75        21.7265  -28.9594  -46.6050 H         1 UNK         0.0716 
     76 H76        22.9266  -27.0370  -44.1829 H         1 UNK         0.0695 
     77 H77        22.0526  -28.5351  -44.2862 H         1 UNK         0.0695 
     78 H78        21.1616  -26.0313  -42.7843 H         1 UNK         0.0983 
     79 H79        19.5875  -28.2922  -43.5638 H         1 UNK         0.3095 
     80 H80        17.5547  -28.8699  -42.3321 H         1 UNK         0.0454 
     81 H81        16.2426  -26.3677  -41.1432 H         1 UNK         0.0851 
     82 H82        16.7186  -27.8115  -40.2673 H         1 UNK         0.0851 
     83 H83        15.4329  -27.9009  -41.4606 H         1 UNK         0.0851 
     84 H84        16.8822  -28.1839  -44.3169 H         1 UNK         0.2976 
     85 H85        20.8138  -26.4842  -40.4422 H         1 UNK         0.3116 
     86 H86        22.0549  -28.4377  -38.9203 H         1 UNK         0.0646 
     87 H87        20.4779  -26.7481  -38.0122 H         1 UNK         0.0847 
     88 H88        21.6673  -25.4688  -38.2562 H         1 UNK         0.0847 
     89 H89        21.9657  -26.7403  -37.0796 H         1 UNK         0.0847 
     90 H90        24.0359  -28.7950  -38.0774 H         1 UNK         0.3040 
     91 H91        26.1960  -28.9760  -37.8394 H         1 UNK         0.1015 
     92 H92        26.4324  -25.9605  -38.3284 H         1 UNK         0.0786 
     93 H93        27.6541  -26.9971  -37.6125 H         1 UNK         0.0786 
     94 H94        26.1359  -26.7314  -36.7709 H         1 UNK         0.0786 
     95 H95        25.4549  -27.0639  -40.7299 H         1 UNK         0.3172 
     96 H96        27.8074  -27.6897  -42.2305 H         1 UNK         0.0595 
     97 H97        25.0213  -26.7886  -43.1319 H         1 UNK         0.0839 
     98 H98        26.4348  -26.8542  -44.1773 H         1 UNK         0.0839 
     99 H99        26.4102  -25.7577  -42.8058 H         1 UNK         0.0839 
    100 H100       24.4887  -29.0766  -42.4080 H         1 UNK         0.2998 
    101 H101       25.6128  -31.6139  -43.5552 H         1 UNK         0.0822 
    102 H102       23.8732  -30.4034  -44.9878 H         1 UNK         0.0787 
    103 H103       23.3910  -32.0145  -44.4756 H         1 UNK         0.0787 
    104 H104       22.7226  -30.6105  -43.6632 H         1 UNK         0.0787 
    105 H105       23.5810  -30.0818  -41.1024 H         1 UNK         0.3055 
    106 H106       22.9597  -30.5768  -39.0559 H         1 UNK         0.1106 
    107 H107       24.5821  -33.1695  -39.1529 H         1 UNK         0.0828 
    108 H108       23.9247  -32.3990  -37.7210 H         1 UNK         0.0828 
    109 H109       25.1970  -31.6014  -38.6326 H         1 UNK         0.0828 
    110 H110       22.3375  -32.8675  -41.5446 H         1 UNK         0.2931 
    111 H111       20.5436  -33.9528  -42.1912 H         1 UNK         0.0412 
    112 H112       21.1615  -36.4324  -39.3119 H         1 UNK         0.3472 
    113 H113       22.1833  -35.1155  -39.8360 H         1 UNK         0.3472 
    114 H114       18.9066  -32.4538  -40.0946 H         1 UNK         0.0970 
    115 H115       18.2535  -33.3274  -41.4473 H         1 UNK         0.0970 
    116 H116       17.7483  -32.4101  -43.6227 H         1 UNK         0.0612 
    117 H117       19.4136  -32.6459  -44.1053 H         1 UNK         0.0612 
@<TRIPOS>BOND
     1    1    2 1    
     2    1   62 1    
     3    1   63 1    
     4    1   64 1    
     5    2    3 2    
     6    2    4 am   BACKBONE|DICT|INTERRES
     7    4    5 1    
     8    4   65 1    
     9    5    6 1    
    10    5   25 1    
    11    5   66 1    
    12    6    7 1    
    13    6   67 1    
    14    6   68 1    
    15    7    8 1    
    16    8    9 1    
    17    8   69 1    
    18    8   70 1    
    19    9   10 ar   
    20    9   14 ar   
    21   10   11 ar   
    22   10   71 1    
    23   11   12 ar   
    24   11   61 1    
    25   12   13 ar   
    26   12   72 1    
    27   13   14 ar   
    28   13   15 1    
    29   14   73 1    
    30   15   16 1    
    31   15   74 1    
    32   15   75 1    
    33   16   17 1    
    34   17   18 1    
    35   17   76 1    
    36   17   77 1    
    37   18   19 1    
    38   18   27 1    
    39   18   78 1    
    40   19   20 am   BACKBONE|DICT|INTERRES
    41   19   79 1    
    42   20   21 2    
    43   20   22 1    
    44   22   23 1    
    45   22   24 1    
    46   22   80 1    
    47   23   81 1    
    48   23   82 1    
    49   23   83 1    
    50   24   25 am   BACKBONE|DICT|INTERRES
    51   24   84 1    
    52   25   26 2    
    53   27   28 2    
    54   27   29 am   BACKBONE|DICT|INTERRES
    55   29   30 1    
    56   29   85 1    
    57   30   31 1    
    58   30   32 1    
    59   30   86 1    
    60   31   87 1    
    61   31   88 1    
    62   31   89 1    
    63   32   33 2    
    64   32   34 am   BACKBONE|DICT|INTERRES
    65   34   35 1    
    66   34   90 1    
    67   35   36 1    
    68   35   37 1    
    69   35   91 1    
    70   36   92 1    
    71   36   93 1    
    72   36   94 1    
    73   37   38 2    
    74   37   39 am   BACKBONE|DICT|INTERRES
    75   39   40 1    
    76   39   95 1    
    77   40   41 1    
    78   40   42 1    
    79   40   96 1    
    80   41   97 1    
    81   41   98 1    
    82   41   99 1    
    83   42   43 2    
    84   42   44 am   BACKBONE|DICT|INTERRES
    85   44   45 1    
    86   44  100 1    
    87   45   46 1    
    88   45   47 1    
    89   45  101 1    
    90   46  102 1    
    91   46  103 1    
    92   46  104 1    
    93   47   48 2    
    94   47   49 am   BACKBONE|DICT|INTERRES
    95   49   50 1    
    96   49  105 1    
    97   50   51 1    
    98   50   52 1    
    99   50  106 1    
   100   51  107 1    
   101   51  108 1    
   102   51  109 1    
   103   52   53 2    
   104   52   54 am   BACKBONE|DICT|INTERRES
   105   54   55 1    
   106   54  110 1    
   107   55   56 1    
   108   55   59 1    
   109   55  111 1    
   110   56   57 am   BACKBONE|DICT|INTERRES
   111   56   58 2    
   112   57  112 1    
   113   57  113 1    
   114   59   60 1    
   115   59  114 1    
   116   59  115 1    
   117   60   61 1    
   118   61  116 1    
   119   61  117 1    
@<TRIPOS>SUBSTRUCTURE
     1 UNK         1 GROUP             0       ****    0 ROOT    
