@<TRIPOS>MOLECULE
3R8
117   119    1
SMALL
USER_CHARGES


@<TRIPOS>ATOM
      1 CA         19.6570  -29.2796  -42.3538 C.3       0 UNK        -0.2013 
      2 C          18.5120  -28.2844  -42.2921 C.2       0 UNK         0.4866 
      3 O          18.4125  -27.5358  -41.3212 O.2       0 UNK        -0.5176 
      4 N          17.6551  -28.2628  -43.3234 N.am      1 UNK        -0.4884 
      5 CA         16.4562  -27.4127  -43.4163 C.3       1 UNK         0.0853 
      6 C6         15.5902  -27.7570  -44.6520 C.3       10 UNK        -0.0849 
      7 S7         15.0749  -29.5067  -44.6771 S.3       10 UNK        -0.2776 
      8 C8         15.8544  -30.1070  -46.2105 C.3       10 UNK         0.0316 
      9 C9         17.3562  -30.3224  -46.0661 C.ar      10 UNK        -0.0863 
     10 C10        17.8363  -31.4150  -45.3380 C.ar      10 UNK        -0.1009 
     11 C11        19.2073  -31.6829  -45.2736 C.ar      10 UNK        -0.0712 
     12 C12        20.1038  -30.8374  -45.9345 C.ar      10 UNK        -0.0894 
     13 C13        19.6387  -29.7338  -46.6564 C.ar      10 UNK        -0.0745 
     14 C14        18.2637  -29.4798  -46.7168 C.ar      10 UNK        -0.0972 
     15 C15        20.6166  -28.8573  -47.4279 C.3       10 UNK         0.0209 
     16 S16        20.7188  -27.1677  -46.7640 S.3       10 UNK        -0.2568 
     17 C17        21.6584  -27.4310  -45.2238 C.3       10 UNK        -0.0983 
     18 CA         21.8210  -26.1186  -44.4093 C.3       3 UNK         0.0876 
     19 N          20.5284  -25.5647  -44.0194 N.am      3 UNK        -0.4424 
     20 C          19.9798  -24.4422  -44.4989 C.2       2 UNK         0.4918 
     21 O          20.5800  -23.6283  -45.2014 O.2       2 UNK        -0.4875 
     22 CA         18.4894  -24.2409  -44.1769 C.3       2 UNK         0.0481 
     23 CB         17.7771  -23.3005  -45.1670 C.3       2 UNK        -0.1831 
     24 N          17.8364  -25.5492  -44.1645 N.am      2 UNK        -0.4498 
     25 C          16.7961  -25.9087  -43.4067 C.2       1 UNK         0.5027 
     26 O          16.1464  -25.1313  -42.7060 O.2       1 UNK        -0.4969 
     27 C          22.6367  -26.3154  -43.1252 C.2       3 UNK         0.5005 
     28 O          22.8800  -27.4513  -42.7121 O.2       3 UNK        -0.5279 
     29 N          23.0220  -25.1968  -42.4940 N.am      4 UNK        -0.4463 
     30 CA         23.7384  -25.1381  -41.2117 C.3       4 UNK         0.0283 
     31 CB         23.8759  -23.6701  -40.7773 C.3       4 UNK        -0.1875 
     32 C          25.1145  -25.8320  -41.2004 C.2       4 UNK         0.4949 
     33 O          25.6019  -26.1807  -40.1256 O.2       4 UNK        -0.5039 
     34 N          25.7056  -26.0428  -42.3849 N.am      5 UNK        -0.4663 
     35 CA         26.9141  -26.8477  -42.5814 C.3       5 UNK         0.0242 
     36 CB         27.4445  -26.6200  -44.0063 C.3       5 UNK        -0.1982 
     37 C          26.6897  -28.3509  -42.3232 C.2       5 UNK         0.5017 
     38 O          27.6466  -29.0428  -41.9736 O.2       5 UNK        -0.5012 
     39 N          25.4462  -28.8222  -42.4950 N.am      6 UNK        -0.4439 
     40 CA         25.0147  -30.1814  -42.1769 C.3       6 UNK         0.0297 
     41 CB         24.0894  -30.7089  -43.2876 C.3       6 UNK        -0.2006 
     42 C          24.3178  -30.1910  -40.8102 C.2       6 UNK         0.4892 
     43 O          24.7781  -30.8908  -39.9079 O.2       6 UNK        -0.5089 
     44 N          23.2453  -29.3924  -40.6857 N.am      7 UNK        -0.4243 
     45 CA         22.3918  -29.1383  -39.5152 C.3       7 UNK         0.0196 
     46 CB         23.1749  -28.3993  -38.4132 C.3       7 UNK        -0.2007 
     47 C          21.6687  -30.3700  -38.9393 C.2       7 UNK         0.5020 
     48 O          20.4419  -30.3694  -38.8465 O.2       7 UNK        -0.5147 
     49 N          22.4365  -31.3896  -38.5430 N.am      8 UNK        -0.4734 
     50 CA         21.9836  -32.5889  -37.8330 C.3       8 UNK         0.0238 
     51 CB         23.2129  -33.3275  -37.2798 C.3       8 UNK        -0.1912 
     52 C          21.1153  -33.5430  -38.6710 C.2       8 UNK         0.5038 
     53 O          20.4479  -34.4010  -38.0924 O.2       8 UNK        -0.5046 
     54 N          21.1388  -33.3917  -40.0003 N.am      9 UNK        -0.4200 
     55 CA         20.3251  -34.1704  -40.9436 C.3       9 UNK         0.0839 
     56 C          18.8042  -33.8268  -40.9407 C.2       9 UNK         0.5513 
     57 N          18.3642  -32.7542  -40.2915 N.am      9 UNK        -0.7519 
     58 O          18.0114  -34.5566  -41.5305 O.2       9 UNK        -0.4960 
     59 C59        20.9454  -34.1554  -42.3647 C.3       10 UNK        -0.0876 
     60 S60        20.8613  -32.5274  -43.1909 S.3       10 UNK        -0.2414 
     61 C61        19.7073  -32.9213  -44.5432 C.3       10 UNK         0.0169 
     62 H62        20.6013  -28.7866  -42.1315 H         1 UNK         0.0903 
     63 H63        19.5063  -30.0733  -41.6226 H         1 UNK         0.0903 
     64 H64        19.7399  -29.7338  -43.3383 H         1 UNK         0.0903 
     65 H65        17.7695  -28.9274  -44.0784 H         1 UNK         0.3096 
     66 H66        15.8595  -27.6056  -42.5215 H         1 UNK         0.1121 
     67 H67        16.1203  -27.5156  -45.5756 H         1 UNK         0.0849 
     68 H68        14.6829  -27.1485  -44.6591 H         1 UNK         0.0849 
     69 H69        15.3893  -31.0547  -46.4862 H         1 UNK         0.0865 
     70 H70        15.6329  -29.4197  -47.0287 H         1 UNK         0.0865 
     71 H71        17.1345  -32.0754  -44.8463 H         1 UNK         0.1346 
     72 H72        21.1631  -31.0527  -45.8977 H         1 UNK         0.1412 
     73 H73        17.9031  -28.6414  -47.2978 H         1 UNK         0.1426 
     74 H74        20.2945  -28.8033  -48.4686 H         1 UNK         0.0716 
     75 H75        21.6146  -29.2985  -47.4416 H         1 UNK         0.0716 
     76 H76        22.6352  -27.8418  -45.4851 H         1 UNK         0.0695 
     77 H77        21.1495  -28.1951  -44.6354 H         1 UNK         0.0695 
     78 H78        22.3721  -25.4072  -45.0281 H         1 UNK         0.0983 
     79 H79        19.9913  -26.1205  -43.3703 H         1 UNK         0.3095 
     80 H80        18.4396  -23.8032  -43.1784 H         1 UNK         0.0454 
     81 H81        18.2334  -22.3100  -45.1648 H         1 UNK         0.0851 
     82 H82        16.7268  -23.1710  -44.9071 H         1 UNK         0.0851 
     83 H83        17.8254  -23.6820  -46.1870 H         1 UNK         0.0851 
     84 H84        18.2881  -26.2635  -44.7210 H         1 UNK         0.2976 
     85 H85        22.7618  -24.3091  -42.9015 H         1 UNK         0.3116 
     86 H86        23.1189  -25.6532  -40.4748 H         1 UNK         0.0646 
     87 H87        24.3758  -23.5938  -39.8105 H         1 UNK         0.0847 
     88 H88        24.4612  -23.0904  -41.4922 H         1 UNK         0.0847 
     89 H89        22.9017  -23.1923  -40.6721 H         1 UNK         0.0847 
     90 H90        25.2485  -25.6932  -43.2141 H         1 UNK         0.3040 
     91 H91        27.6709  -26.5046  -41.8720 H         1 UNK         0.1015 
     92 H92        28.3614  -27.1867  -44.1758 H         1 UNK         0.0786 
     93 H93        27.6789  -25.5696  -44.1802 H         1 UNK         0.0786 
     94 H94        26.7232  -26.9346  -44.7619 H         1 UNK         0.0786 
     95 H95        24.7077  -28.1645  -42.7252 H         1 UNK         0.3172 
     96 H96        25.8776  -30.8484  -42.1214 H         1 UNK         0.0595 
     97 H97        23.1867  -30.1075  -43.4022 H         1 UNK         0.0839 
     98 H98        23.7760  -31.7313  -43.0739 H         1 UNK         0.0839 
     99 H99        24.5998  -30.7246  -44.2504 H         1 UNK         0.0839 
    100 H100       23.0009  -28.8345  -41.5015 H         1 UNK         0.2998 
    101 H101       21.6123  -28.4596  -39.8646 H         1 UNK         0.0822 
    102 H102       22.5331  -28.1742  -37.5606 H         1 UNK         0.0787 
    103 H103       24.0143  -28.9869  -38.0419 H         1 UNK         0.0787 
    104 H104       23.5697  -27.4523  -38.7774 H         1 UNK         0.0787 
    105 H105       23.4310  -31.3184  -38.7506 H         1 UNK         0.3055 
    106 H106       21.3703  -32.2637  -36.9901 H         1 UNK         0.1106 
    107 H107       23.7877  -32.6920  -36.6059 H         1 UNK         0.0828 
    108 H108       22.9183  -34.2124  -36.7144 H         1 UNK         0.0828 
    109 H109       23.8773  -33.6569  -38.0792 H         1 UNK         0.0828 
    110 H110       21.6952  -32.6474  -40.3921 H         1 UNK         0.2931 
    111 H111       20.3790  -35.2076  -40.6057 H         1 UNK         0.0412 
    112 H112       19.0092  -32.1465  -39.8070 H         1 UNK         0.3472 
    113 H113       17.3780  -32.5480  -40.2922 H         1 UNK         0.3472 
    114 H114       21.9935  -34.4541  -42.3129 H         1 UNK         0.0970 
    115 H115       20.4654  -34.9137  -42.9860 H         1 UNK         0.0970 
    116 H116       20.2053  -33.5803  -45.2566 H         1 UNK         0.0612 
    117 H117       18.8647  -33.4839  -44.1359 H         1 UNK         0.0612 
@<TRIPOS>BOND
     1    1    2 1    
     2    1   62 1    
     3    1   63 1    
     4    1   64 1    
     5    2    3 2    
     6    2    4 am   BACKBONE|DICT|INTERRES
     7    4    5 1    
     8    4   65 1    
     9    5    6 1    
    10    5   25 1    
    11    5   66 1    
    12    6    7 1    
    13    6   67 1    
    14    6   68 1    
    15    7    8 1    
    16    8    9 1    
    17    8   69 1    
    18    8   70 1    
    19    9   10 ar   
    20    9   14 ar   
    21   10   11 ar   
    22   10   71 1    
    23   11   12 ar   
    24   11   61 1    
    25   12   13 ar   
    26   12   72 1    
    27   13   14 ar   
    28   13   15 1    
    29   14   73 1    
    30   15   16 1    
    31   15   74 1    
    32   15   75 1    
    33   16   17 1    
    34   17   18 1    
    35   17   76 1    
    36   17   77 1    
    37   18   19 1    
    38   18   27 1    
    39   18   78 1    
    40   19   20 am   BACKBONE|DICT|INTERRES
    41   19   79 1    
    42   20   21 2    
    43   20   22 1    
    44   22   23 1    
    45   22   24 1    
    46   22   80 1    
    47   23   81 1    
    48   23   82 1    
    49   23   83 1    
    50   24   25 am   BACKBONE|DICT|INTERRES
    51   24   84 1    
    52   25   26 2    
    53   27   28 2    
    54   27   29 am   BACKBONE|DICT|INTERRES
    55   29   30 1    
    56   29   85 1    
    57   30   31 1    
    58   30   32 1    
    59   30   86 1    
    60   31   87 1    
    61   31   88 1    
    62   31   89 1    
    63   32   33 2    
    64   32   34 am   BACKBONE|DICT|INTERRES
    65   34   35 1    
    66   34   90 1    
    67   35   36 1    
    68   35   37 1    
    69   35   91 1    
    70   36   92 1    
    71   36   93 1    
    72   36   94 1    
    73   37   38 2    
    74   37   39 am   BACKBONE|DICT|INTERRES
    75   39   40 1    
    76   39   95 1    
    77   40   41 1    
    78   40   42 1    
    79   40   96 1    
    80   41   97 1    
    81   41   98 1    
    82   41   99 1    
    83   42   43 2    
    84   42   44 am   BACKBONE|DICT|INTERRES
    85   44   45 1    
    86   44  100 1    
    87   45   46 1    
    88   45   47 1    
    89   45  101 1    
    90   46  102 1    
    91   46  103 1    
    92   46  104 1    
    93   47   48 2    
    94   47   49 am   BACKBONE|DICT|INTERRES
    95   49   50 1    
    96   49  105 1    
    97   50   51 1    
    98   50   52 1    
    99   50  106 1    
   100   51  107 1    
   101   51  108 1    
   102   51  109 1    
   103   52   53 2    
   104   52   54 am   BACKBONE|DICT|INTERRES
   105   54   55 1    
   106   54  110 1    
   107   55   56 1    
   108   55   59 1    
   109   55  111 1    
   110   56   57 am   BACKBONE|DICT|INTERRES
   111   56   58 2    
   112   57  112 1    
   113   57  113 1    
   114   59   60 1    
   115   59  114 1    
   116   59  115 1    
   117   60   61 1    
   118   61  116 1    
   119   61  117 1    
@<TRIPOS>SUBSTRUCTURE
     1 UNK         1 GROUP             0       ****    0 ROOT    
