@<TRIPOS>MOLECULE
3R8
117   119    1
SMALL
USER_CHARGES


@<TRIPOS>ATOM
      1 CA         18.7018  -28.1931  -41.2795 C.3       0 UNK        -0.2013 
      2 C          17.7796  -27.1716  -41.9241 C.2       0 UNK         0.4866 
      3 O          17.3754  -26.2105  -41.2691 O.2       0 UNK        -0.5176 
      4 N          17.4564  -27.3544  -43.2100 N.am      1 UNK        -0.4884 
      5 CA         16.5379  -26.5175  -43.9975 C.3       1 UNK         0.0853 
      6 C6         15.9516  -27.2951  -45.2069 C.3       10 UNK        -0.0849 
      7 S7         15.2276  -28.9081  -44.7537 S.3       10 UNK        -0.2776 
      8 C8         16.2978  -30.0564  -45.6807 C.3       10 UNK         0.0316 
      9 C9         17.6827  -30.2052  -45.0607 C.ar      10 UNK        -0.0863 
     10 C10        17.8709  -31.0770  -43.9865 C.ar      10 UNK        -0.1009 
     11 C11        19.1475  -31.2986  -43.4630 C.ar      10 UNK        -0.0712 
     12 C12        20.2442  -30.6213  -44.0081 C.ar      10 UNK        -0.0894 
     13 C13        20.0694  -29.7255  -45.0714 C.ar      10 UNK        -0.0745 
     14 C14        18.7847  -29.5268  -45.5925 C.ar      10 UNK        -0.0972 
     15 C15        21.2576  -29.0135  -45.7200 C.3       10 UNK         0.0209 
     16 S16        22.5067  -28.3659  -44.5536 S.3       10 UNK        -0.2568 
     17 C17        21.5472  -27.1390  -43.6103 C.3       10 UNK        -0.0983 
     18 CA         21.5522  -25.7270  -44.2471 C.3       3 UNK         0.0876 
     19 N          20.4305  -24.9455  -43.7356 N.am      3 UNK        -0.4424 
     20 C          19.9766  -23.7876  -44.2318 C.2       2 UNK         0.4918 
     21 O          20.5135  -23.1690  -45.1524 O.2       2 UNK        -0.4875 
     22 CA         18.6465  -23.2978  -43.6194 C.3       2 UNK         0.0481 
     23 CB         18.0166  -22.1183  -44.3896 C.3       2 UNK        -0.1831 
     24 N          17.6973  -24.4127  -43.4681 N.am      2 UNK        -0.4498 
     25 C          17.2254  -25.2058  -44.4442 C.2       1 UNK         0.5027 
     26 O          17.3778  -24.9709  -45.6448 O.2       1 UNK        -0.4969 
     27 C          22.8925  -24.9980  -44.0328 C.2       3 UNK         0.5005 
     28 O          23.1224  -24.4456  -42.9538 O.2       3 UNK        -0.5279 
     29 N          23.7595  -25.0382  -45.0542 N.am      4 UNK        -0.4463 
     30 CA         25.1165  -24.4847  -45.0135 C.3       4 UNK         0.0283 
     31 CB         25.6523  -24.3487  -46.4481 C.3       4 UNK        -0.1875 
     32 C          26.0817  -25.3241  -44.1569 C.2       4 UNK         0.4949 
     33 O          27.0729  -24.7830  -43.6665 O.2       4 UNK        -0.5039 
     34 N          25.7797  -26.6203  -44.0001 N.am      5 UNK        -0.4663 
     35 CA         26.4911  -27.5465  -43.1243 C.3       5 UNK         0.0242 
     36 CB         26.4326  -28.9653  -43.7272 C.3       5 UNK        -0.1982 
     37 C          25.9023  -27.4566  -41.7070 C.2       5 UNK         0.5017 
     38 O          26.3506  -26.6250  -40.9169 O.2       5 UNK        -0.5012 
     39 N          24.9108  -28.3037  -41.4145 N.am      6 UNK        -0.4439 
     40 CA         24.2079  -28.4250  -40.1416 C.3       6 UNK         0.0297 
     41 CB         25.1420  -29.0161  -39.0638 C.3       6 UNK        -0.2006 
     42 C          22.9978  -29.3394  -40.3613 C.2       6 UNK         0.4892 
     43 O          22.9039  -29.9923  -41.4049 O.2       6 UNK        -0.5089 
     44 N          22.1236  -29.4296  -39.3514 N.am      7 UNK        -0.4243 
     45 CA         20.9695  -30.3359  -39.3010 C.3       7 UNK         0.0196 
     46 CB         19.9719  -29.8114  -38.2509 C.3       7 UNK        -0.2007 
     47 C          21.3702  -31.8076  -39.0463 C.2       7 UNK         0.5020 
     48 O          20.7655  -32.4813  -38.2107 O.2       7 UNK        -0.5147 
     49 N          22.3822  -32.2936  -39.7739 N.am      8 UNK        -0.4734 
     50 CA         22.9577  -33.6373  -39.6817 C.3       8 UNK         0.0238 
     51 CB         24.4245  -33.5734  -40.1495 C.3       8 UNK        -0.1912 
     52 C          22.1264  -34.6732  -40.4638 C.2       8 UNK         0.5038 
     53 O          22.6652  -35.3784  -41.3217 O.2       8 UNK        -0.5046 
     54 N          20.8269  -34.7299  -40.1561 N.am      9 UNK        -0.4200 
     55 CA         19.8420  -35.6537  -40.7272 C.3       9 UNK         0.0839 
     56 C          19.3131  -36.6038  -39.6238 C.2       9 UNK         0.5513 
     57 N          19.0233  -37.8506  -39.9666 N.am      9 UNK        -0.7519 
     58 O          19.1292  -36.2149  -38.4721 O.2       9 UNK        -0.4960 
     59 C59        18.6723  -34.8825  -41.3894 C.3       10 UNK        -0.0876 
     60 S60        19.1794  -33.9982  -42.9041 S.3       10 UNK        -0.2414 
     61 C61        19.3249  -32.2817  -42.3167 C.3       10 UNK         0.0169 
     62 H62        19.1118  -28.8875  -42.0099 H         1 UNK         0.0903 
     63 H63        19.5353  -27.6929  -40.7871 H         1 UNK         0.0903 
     64 H64        18.1557  -28.7683  -40.5326 H         1 UNK         0.0903 
     65 H65        17.8048  -28.1709  -43.6959 H         1 UNK         0.3096 
     66 H66        15.7008  -26.2329  -43.3556 H         1 UNK         0.1121 
     67 H67        15.1692  -26.7034  -45.6861 H         1 UNK         0.0849 
     68 H68        16.7134  -27.4502  -45.9724 H         1 UNK         0.0849 
     69 H69        15.8125  -31.0333  -45.7102 H         1 UNK         0.0865 
     70 H70        16.3719  -29.7336  -46.7205 H         1 UNK         0.0865 
     71 H71        17.0247  -31.6109  -43.5749 H         1 UNK         0.1346 
     72 H72        21.2348  -30.7959  -43.6096 H         1 UNK         0.1412 
     73 H73        18.6469  -28.8639  -46.4361 H         1 UNK         0.1426 
     74 H74        20.9128  -28.1865  -46.3426 H         1 UNK         0.0716 
     75 H75        21.7498  -29.7167  -46.3927 H         1 UNK         0.0716 
     76 H76        21.9270  -27.1114  -42.5868 H         1 UNK         0.0695 
     77 H77        20.5258  -27.5102  -43.5318 H         1 UNK         0.0695 
     78 H78        21.3830  -25.8316  -45.3212 H         1 UNK         0.0983 
     79 H79        19.9364  -25.3442  -42.9531 H         1 UNK         0.3095 
     80 H80        18.8781  -22.9493  -42.6119 H         1 UNK         0.0454 
     81 H81        18.6835  -21.2554  -44.3902 H         1 UNK         0.0851 
     82 H82        17.8151  -22.3696  -45.4312 H         1 UNK         0.0851 
     83 H83        17.0788  -21.8021  -43.9333 H         1 UNK         0.0851 
     84 H84        17.5335  -24.7324  -42.5161 H         1 UNK         0.2976 
     85 H85        23.4905  -25.5109  -45.9060 H         1 UNK         0.3116 
     86 H86        25.0670  -23.4866  -44.5724 H         1 UNK         0.0646 
     87 H87        26.6511  -23.9097  -46.4504 H         1 UNK         0.0847 
     88 H88        25.0157  -23.7011  -47.0513 H         1 UNK         0.0847 
     89 H89        25.7217  -25.3153  -46.9488 H         1 UNK         0.0847 
     90 H90        24.9290  -26.9631  -44.4233 H         1 UNK         0.3040 
     91 H91        27.5426  -27.2575  -43.0570 H         1 UNK         0.1015 
     92 H92        26.9767  -29.0080  -44.6710 H         1 UNK         0.0786 
     93 H93        25.4124  -29.2962  -43.9247 H         1 UNK         0.0786 
     94 H94        26.8942  -29.6942  -43.0593 H         1 UNK         0.0786 
     95 H95        24.5549  -28.9330  -42.1262 H         1 UNK         0.3172 
     96 H96        23.8519  -27.4394  -39.8352 H         1 UNK         0.0595 
     97 H97        26.0031  -28.3741  -38.8791 H         1 UNK         0.0839 
     98 H98        25.5163  -29.9991  -39.3533 H         1 UNK         0.0839 
     99 H99        24.6276  -29.1323  -38.1093 H         1 UNK         0.0839 
    100 H100       22.2981  -28.8883  -38.5167 H         1 UNK         0.2998 
    101 H101       20.4742  -30.3076  -40.2729 H         1 UNK         0.0822 
    102 H102       19.6917  -28.7762  -38.4447 H         1 UNK         0.0787 
    103 H103       19.0531  -30.3996  -38.2558 H         1 UNK         0.0787 
    104 H104       20.3859  -29.8615  -37.2429 H         1 UNK         0.0787 
    105 H105       22.7730  -31.6774  -40.4818 H         1 UNK         0.3055 
    106 H106       22.9550  -33.9517  -38.6351 H         1 UNK         0.1106 
    107 H107       24.5015  -33.2683  -41.1943 H         1 UNK         0.0828 
    108 H108       25.0011  -32.8676  -39.5511 H         1 UNK         0.0828 
    109 H109       24.9096  -34.5462  -40.0556 H         1 UNK         0.0828 
    110 H110       20.4934  -34.1431  -39.3974 H         1 UNK         0.2931 
    111 H111       20.3158  -36.2723  -41.4925 H         1 UNK         0.0412 
    112 H112       19.1607  -38.1769  -40.9110 H         1 UNK         0.3472 
    113 H113       18.6647  -38.4817  -39.2663 H         1 UNK         0.3472 
    114 H114       18.2097  -34.1926  -40.6814 H         1 UNK         0.0970 
    115 H115       17.8825  -35.5767  -41.6836 H         1 UNK         0.0970 
    116 H116       18.5756  -32.0748  -41.5514 H         1 UNK         0.0612 
    117 H117       20.3006  -32.1554  -41.8480 H         1 UNK         0.0612 
@<TRIPOS>BOND
     1    1    2 1    
     2    1   62 1    
     3    1   63 1    
     4    1   64 1    
     5    2    3 2    
     6    2    4 am   BACKBONE|DICT|INTERRES
     7    4    5 1    
     8    4   65 1    
     9    5    6 1    
    10    5   25 1    
    11    5   66 1    
    12    6    7 1    
    13    6   67 1    
    14    6   68 1    
    15    7    8 1    
    16    8    9 1    
    17    8   69 1    
    18    8   70 1    
    19    9   10 ar   
    20    9   14 ar   
    21   10   11 ar   
    22   10   71 1    
    23   11   12 ar   
    24   11   61 1    
    25   12   13 ar   
    26   12   72 1    
    27   13   14 ar   
    28   13   15 1    
    29   14   73 1    
    30   15   16 1    
    31   15   74 1    
    32   15   75 1    
    33   16   17 1    
    34   17   18 1    
    35   17   76 1    
    36   17   77 1    
    37   18   19 1    
    38   18   27 1    
    39   18   78 1    
    40   19   20 am   BACKBONE|DICT|INTERRES
    41   19   79 1    
    42   20   21 2    
    43   20   22 1    
    44   22   23 1    
    45   22   24 1    
    46   22   80 1    
    47   23   81 1    
    48   23   82 1    
    49   23   83 1    
    50   24   25 am   BACKBONE|DICT|INTERRES
    51   24   84 1    
    52   25   26 2    
    53   27   28 2    
    54   27   29 am   BACKBONE|DICT|INTERRES
    55   29   30 1    
    56   29   85 1    
    57   30   31 1    
    58   30   32 1    
    59   30   86 1    
    60   31   87 1    
    61   31   88 1    
    62   31   89 1    
    63   32   33 2    
    64   32   34 am   BACKBONE|DICT|INTERRES
    65   34   35 1    
    66   34   90 1    
    67   35   36 1    
    68   35   37 1    
    69   35   91 1    
    70   36   92 1    
    71   36   93 1    
    72   36   94 1    
    73   37   38 2    
    74   37   39 am   BACKBONE|DICT|INTERRES
    75   39   40 1    
    76   39   95 1    
    77   40   41 1    
    78   40   42 1    
    79   40   96 1    
    80   41   97 1    
    81   41   98 1    
    82   41   99 1    
    83   42   43 2    
    84   42   44 am   BACKBONE|DICT|INTERRES
    85   44   45 1    
    86   44  100 1    
    87   45   46 1    
    88   45   47 1    
    89   45  101 1    
    90   46  102 1    
    91   46  103 1    
    92   46  104 1    
    93   47   48 2    
    94   47   49 am   BACKBONE|DICT|INTERRES
    95   49   50 1    
    96   49  105 1    
    97   50   51 1    
    98   50   52 1    
    99   50  106 1    
   100   51  107 1    
   101   51  108 1    
   102   51  109 1    
   103   52   53 2    
   104   52   54 am   BACKBONE|DICT|INTERRES
   105   54   55 1    
   106   54  110 1    
   107   55   56 1    
   108   55   59 1    
   109   55  111 1    
   110   56   57 am   BACKBONE|DICT|INTERRES
   111   56   58 2    
   112   57  112 1    
   113   57  113 1    
   114   59   60 1    
   115   59  114 1    
   116   59  115 1    
   117   60   61 1    
   118   61  116 1    
   119   61  117 1    
@<TRIPOS>SUBSTRUCTURE
     1 UNK         1 GROUP             0       ****    0 ROOT    
