@<TRIPOS>MOLECULE
3R8
117   119    1
SMALL
USER_CHARGES


@<TRIPOS>ATOM
      1 CA         14.9366  -26.3073  -45.6929 C.3       0 UNK        -0.2013 
      2 C          16.2549  -25.5533  -45.7722 C.2       0 UNK         0.4866 
      3 O          16.2662  -24.3239  -45.6989 O.2       0 UNK        -0.5176 
      4 N          17.3744  -26.2742  -45.9086 N.am      1 UNK        -0.4884 
      5 CA         18.7308  -25.7342  -46.0793 C.3       1 UNK         0.0853 
      6 C6         19.6467  -26.6810  -46.9144 C.3       10 UNK        -0.0849 
      7 S7         18.7983  -27.4432  -48.3515 S.3       10 UNK        -0.2776 
      8 C8         19.0466  -29.2467  -48.1374 C.3       10 UNK         0.0316 
      9 C9         18.9572  -29.7294  -46.6921 C.ar      10 UNK        -0.0863 
     10 C10        20.0926  -30.2580  -46.0689 C.ar      10 UNK        -0.1009 
     11 C11        20.0477  -30.6713  -44.7352 C.ar      10 UNK        -0.0712 
     12 C12        18.8527  -30.5524  -44.0211 C.ar      10 UNK        -0.0894 
     13 C13        17.7105  -30.0250  -44.6286 C.ar      10 UNK        -0.0745 
     14 C14        17.7616  -29.6336  -45.9718 C.ar      10 UNK        -0.0972 
     15 C15        16.4262  -29.8701  -43.8284 C.3       10 UNK         0.0209 
     16 S16        16.3397  -28.2397  -43.0206 S.3       10 UNK        -0.2568 
     17 C17        17.1931  -28.5025  -41.4238 C.3       10 UNK        -0.0983 
     18 CA         18.6834  -28.0533  -41.4021 C.3       3 UNK         0.0876 
     19 N          18.9201  -26.7271  -41.9869 N.am      3 UNK        -0.4424 
     20 C          18.4644  -25.5417  -41.5618 C.2       2 UNK         0.4918 
     21 O          17.8256  -25.3809  -40.5223 O.2       2 UNK        -0.4875 
     22 CA         18.7539  -24.3237  -42.4636 C.3       2 UNK         0.0481 
     23 CB         20.1258  -23.7010  -42.1365 C.3       2 UNK        -0.1831 
     24 N          18.5963  -24.6036  -43.9013 N.am      2 UNK        -0.4498 
     25 C          19.3333  -25.3947  -44.6965 C.2       1 UNK         0.5027 
     26 O          20.3820  -25.9265  -44.3277 O.2       1 UNK        -0.4969 
     27 C          19.3383  -28.2258  -40.0113 C.2       3 UNK         0.5005 
     28 O          18.8848  -29.0461  -39.2112 O.2       3 UNK        -0.5279 
     29 N          20.4005  -27.4533  -39.7522 N.am      4 UNK        -0.4463 
     30 CA         21.2033  -27.4642  -38.5292 C.3       4 UNK         0.0283 
     31 CB         20.4561  -26.7430  -37.3876 C.3       4 UNK        -0.1875 
     32 C          22.5873  -26.8554  -38.8127 C.2       4 UNK         0.4949 
     33 O          23.1465  -26.1670  -37.9582 O.2       4 UNK        -0.5039 
     34 N          23.1059  -27.0922  -40.0230 N.am      5 UNK        -0.4663 
     35 CA         24.3756  -26.5771  -40.5246 C.3       5 UNK         0.0242 
     36 CB         24.1612  -25.1724  -41.1200 C.3       5 UNK        -0.1982 
     37 C          24.9128  -27.5486  -41.5813 C.2       5 UNK         0.5017 
     38 O          24.1569  -28.3968  -42.0677 O.2       5 UNK        -0.5012 
     39 N          26.2008  -27.3984  -41.9219 N.am      6 UNK        -0.4439 
     40 CA         26.9548  -28.2043  -42.8892 C.3       6 UNK         0.0297 
     41 CB         26.4632  -27.9292  -44.3300 C.3       6 UNK        -0.2006 
     42 C          26.9549  -29.6934  -42.4939 C.2       6 UNK         0.4892 
     43 O          27.6033  -30.0495  -41.5090 O.2       6 UNK        -0.5089 
     44 N          26.2165  -30.5232  -43.2420 N.am      7 UNK        -0.4243 
     45 CA         26.0159  -31.9473  -42.9676 C.3       7 UNK         0.0196 
     46 CB         25.4659  -32.6226  -44.2351 C.3       7 UNK        -0.2007 
     47 C          25.0863  -32.2257  -41.7710 C.2       7 UNK         0.5020 
     48 O          25.0753  -33.3573  -41.2853 O.2       7 UNK        -0.5147 
     49 N          24.2992  -31.2257  -41.3410 N.am      8 UNK        -0.4734 
     50 CA         23.2874  -31.2325  -40.2701 C.3       8 UNK         0.0238 
     51 CB         23.9026  -31.5810  -38.9016 C.3       8 UNK        -0.1912 
     52 C          22.0470  -32.0953  -40.5676 C.2       8 UNK         0.5038 
     53 O          20.9333  -31.6433  -40.3056 O.2       8 UNK        -0.5046 
     54 N          22.2540  -33.2827  -41.1486 N.am      9 UNK        -0.4200 
     55 CA         21.2328  -34.2119  -41.6616 C.3       9 UNK         0.0839 
     56 C          20.3401  -34.8716  -40.5667 C.2       9 UNK         0.5513 
     57 N          20.7358  -34.8632  -39.2994 N.am      9 UNK        -0.7519 
     58 O          19.2888  -35.4302  -40.8702 O.2       9 UNK        -0.4960 
     59 C59        20.4034  -33.6113  -42.8349 C.3       10 UNK        -0.0876 
     60 S60        21.4448  -33.0169  -44.2162 S.3       10 UNK        -0.2414 
     61 C61        21.3031  -31.2071  -44.0632 C.3       10 UNK         0.0169 
     62 H62        14.2512  -25.9477  -46.4598 H         1 UNK         0.0903 
     63 H63        15.0714  -27.3792  -45.8353 H         1 UNK         0.0903 
     64 H64        14.4736  -26.1502  -44.7191 H         1 UNK         0.0903 
     65 H65        17.3211  -27.2824  -45.9136 H         1 UNK         0.3096 
     66 H66        18.6575  -24.7934  -46.6298 H         1 UNK         0.1121 
     67 H67        20.5049  -26.1204  -47.2885 H         1 UNK         0.0849 
     68 H68        20.0746  -27.4639  -46.2902 H         1 UNK         0.0849 
     69 H69        20.0155  -29.5084  -48.5657 H         1 UNK         0.0865 
     70 H70        18.3042  -29.7765  -48.7358 H         1 UNK         0.0865 
     71 H71        21.0215  -30.3364  -46.6175 H         1 UNK         0.1346 
     72 H72        18.8111  -30.8536  -42.9844 H         1 UNK         0.1412 
     73 H73        16.8783  -29.2369  -46.4534 H         1 UNK         0.1426 
     74 H74        16.3313  -30.6664  -43.0888 H         1 UNK         0.0716 
     75 H75        15.5671  -29.9736  -44.4928 H         1 UNK         0.0716 
     76 H76        17.1094  -29.5551  -41.1484 H         1 UNK         0.0695 
     77 H77        16.6309  -27.9526  -40.6671 H         1 UNK         0.0695 
     78 H78        19.2356  -28.7370  -42.0444 H         1 UNK         0.0983 
     79 H79        19.4610  -26.7168  -42.8470 H         1 UNK         0.3095 
     80 H80        17.9940  -23.5760  -42.2314 H         1 UNK         0.0454 
     81 H81        20.3146  -22.8170  -42.7452 H         1 UNK         0.0851 
     82 H82        20.9475  -24.3991  -42.2962 H         1 UNK         0.0851 
     83 H83        20.1692  -23.3897  -41.0921 H         1 UNK         0.0851 
     84 H84        17.7270  -24.2699  -44.3084 H         1 UNK         0.2976 
     85 H85        20.6849  -26.7859  -40.4561 H         1 UNK         0.3116 
     86 H86        21.3734  -28.5017  -38.2335 H         1 UNK         0.0646 
     87 H87        21.0332  -26.7661  -36.4625 H         1 UNK         0.0847 
     88 H88        19.4964  -27.2142  -37.1756 H         1 UNK         0.0847 
     89 H89        20.2679  -25.6969  -37.6317 H         1 UNK         0.0847 
     90 H90        22.6503  -27.7378  -40.6563 H         1 UNK         0.3040 
     91 H91        25.0975  -26.5283  -39.7059 H         1 UNK         0.1015 
     92 H92        23.7726  -24.4791  -40.3737 H         1 UNK         0.0786 
     93 H93        23.4587  -25.1932  -41.9543 H         1 UNK         0.0786 
     94 H94        25.0967  -24.7523  -41.4913 H         1 UNK         0.0786 
     95 H95        26.7386  -26.6899  -41.4414 H         1 UNK         0.3172 
     96 H96        27.9928  -27.8732  -42.8298 H         1 UNK         0.0595 
     97 H97        25.4085  -28.1695  -44.4681 H         1 UNK         0.0839 
     98 H98        27.0351  -28.5058  -45.0585 H         1 UNK         0.0839 
     99 H99        26.5916  -26.8780  -44.5884 H         1 UNK         0.0839 
    100 H100       25.7014  -30.1320  -44.0174 H         1 UNK         0.2998 
    101 H101       26.9857  -32.3922  -42.7343 H         1 UNK         0.0822 
    102 H102       24.5009  -32.2070  -44.5277 H         1 UNK         0.0787 
    103 H103       26.1507  -32.5083  -45.0756 H         1 UNK         0.0787 
    104 H104       25.3237  -33.6930  -44.0790 H         1 UNK         0.0787 
    105 H105       24.3759  -30.3357  -41.8271 H         1 UNK         0.3055 
    106 H106       22.9290  -30.2039  -40.2077 H         1 UNK         0.1106 
    107 H107       23.1634  -31.4759  -38.1064 H         1 UNK         0.0828 
    108 H108       24.2720  -32.6061  -38.8654 H         1 UNK         0.0828 
    109 H109       24.7329  -30.9168  -38.6616 H         1 UNK         0.0828 
    110 H110       23.2216  -33.5588  -41.2914 H         1 UNK         0.2931 
    111 H111       21.8030  -35.0439  -42.0763 H         1 UNK         0.0412 
    112 H112       21.6009  -34.4177  -39.0392 H         1 UNK         0.3472 
    113 H113       20.1596  -35.3010  -38.5976 H         1 UNK         0.3472 
    114 H114       19.7299  -34.3649  -43.2465 H         1 UNK         0.0970 
    115 H115       19.7617  -32.8113  -42.4696 H         1 UNK         0.0970 
    116 H116       22.1854  -30.7533  -44.5169 H         1 UNK         0.0612 
    117 H117       21.3234  -30.9089  -43.0160 H         1 UNK         0.0612 
@<TRIPOS>BOND
     1    1    2 1    
     2    1   62 1    
     3    1   63 1    
     4    1   64 1    
     5    2    3 2    
     6    2    4 am   BACKBONE|DICT|INTERRES
     7    4    5 1    
     8    4   65 1    
     9    5    6 1    
    10    5   25 1    
    11    5   66 1    
    12    6    7 1    
    13    6   67 1    
    14    6   68 1    
    15    7    8 1    
    16    8    9 1    
    17    8   69 1    
    18    8   70 1    
    19    9   10 ar   
    20    9   14 ar   
    21   10   11 ar   
    22   10   71 1    
    23   11   12 ar   
    24   11   61 1    
    25   12   13 ar   
    26   12   72 1    
    27   13   14 ar   
    28   13   15 1    
    29   14   73 1    
    30   15   16 1    
    31   15   74 1    
    32   15   75 1    
    33   16   17 1    
    34   17   18 1    
    35   17   76 1    
    36   17   77 1    
    37   18   19 1    
    38   18   27 1    
    39   18   78 1    
    40   19   20 am   BACKBONE|DICT|INTERRES
    41   19   79 1    
    42   20   21 2    
    43   20   22 1    
    44   22   23 1    
    45   22   24 1    
    46   22   80 1    
    47   23   81 1    
    48   23   82 1    
    49   23   83 1    
    50   24   25 am   BACKBONE|DICT|INTERRES
    51   24   84 1    
    52   25   26 2    
    53   27   28 2    
    54   27   29 am   BACKBONE|DICT|INTERRES
    55   29   30 1    
    56   29   85 1    
    57   30   31 1    
    58   30   32 1    
    59   30   86 1    
    60   31   87 1    
    61   31   88 1    
    62   31   89 1    
    63   32   33 2    
    64   32   34 am   BACKBONE|DICT|INTERRES
    65   34   35 1    
    66   34   90 1    
    67   35   36 1    
    68   35   37 1    
    69   35   91 1    
    70   36   92 1    
    71   36   93 1    
    72   36   94 1    
    73   37   38 2    
    74   37   39 am   BACKBONE|DICT|INTERRES
    75   39   40 1    
    76   39   95 1    
    77   40   41 1    
    78   40   42 1    
    79   40   96 1    
    80   41   97 1    
    81   41   98 1    
    82   41   99 1    
    83   42   43 2    
    84   42   44 am   BACKBONE|DICT|INTERRES
    85   44   45 1    
    86   44  100 1    
    87   45   46 1    
    88   45   47 1    
    89   45  101 1    
    90   46  102 1    
    91   46  103 1    
    92   46  104 1    
    93   47   48 2    
    94   47   49 am   BACKBONE|DICT|INTERRES
    95   49   50 1    
    96   49  105 1    
    97   50   51 1    
    98   50   52 1    
    99   50  106 1    
   100   51  107 1    
   101   51  108 1    
   102   51  109 1    
   103   52   53 2    
   104   52   54 am   BACKBONE|DICT|INTERRES
   105   54   55 1    
   106   54  110 1    
   107   55   56 1    
   108   55   59 1    
   109   55  111 1    
   110   56   57 am   BACKBONE|DICT|INTERRES
   111   56   58 2    
   112   57  112 1    
   113   57  113 1    
   114   59   60 1    
   115   59  114 1    
   116   59  115 1    
   117   60   61 1    
   118   61  116 1    
   119   61  117 1    
@<TRIPOS>SUBSTRUCTURE
     1 UNK         1 GROUP             0       ****    0 ROOT    
