@<TRIPOS>MOLECULE
3R8
117   119    1
SMALL
USER_CHARGES


@<TRIPOS>ATOM
      1 CA         15.4195  -23.4221  -42.8377 C.3       0 UNK        -0.2013 
      2 C          16.2198  -24.6915  -43.0872 C.2       0 UNK         0.4866 
      3 O          17.2108  -24.6550  -43.8176 O.2       0 UNK        -0.5176 
      4 N          15.7948  -25.8132  -42.4904 N.am      1 UNK        -0.4884 
      5 CA         16.4553  -27.1185  -42.5814 C.3       1 UNK         0.0853 
      6 C6         15.5230  -28.2729  -42.1306 C.3       10 UNK        -0.0849 
      7 S7         14.4590  -28.8063  -43.5120 S.3       10 UNK        -0.2776 
      8 C8         15.3406  -30.2934  -44.1025 C.3       10 UNK         0.0316 
      9 C9         16.8074  -30.0226  -44.4231 C.ar      10 UNK        -0.0863 
     10 C10        17.8113  -30.4818  -43.5637 C.ar      10 UNK        -0.1009 
     11 C11        19.1577  -30.2387  -43.8491 C.ar      10 UNK        -0.0712 
     12 C12        19.4988  -29.5322  -45.0055 C.ar      10 UNK        -0.0894 
     13 C13        18.5067  -29.0618  -45.8705 C.ar      10 UNK        -0.0745 
     14 C14        17.1623  -29.3143  -45.5759 C.ar      10 UNK        -0.0972 
     15 C15        18.8832  -28.3023  -47.1348 C.3       10 UNK         0.0209 
     16 S16        19.1893  -26.5363  -46.8078 S.3       10 UNK        -0.2568 
     17 C17        21.0022  -26.4956  -46.5826 C.3       10 UNK        -0.0983 
     18 CA         21.4480  -25.4655  -45.5034 C.3       3 UNK         0.0876 
     19 N          20.8291  -25.7205  -44.1967 N.am      3 UNK        -0.4424 
     20 C          21.1326  -26.7215  -43.3563 C.2       2 UNK         0.4918 
     21 O          22.0112  -27.5574  -43.5646 O.2       2 UNK        -0.4875 
     22 CA         20.2604  -26.8348  -42.1040 C.3       2 UNK         0.0481 
     23 CB         20.5202  -25.6670  -41.1310 C.3       2 UNK        -0.1831 
     24 N          18.8715  -26.8723  -42.5452 N.am      2 UNK        -0.4498 
     25 C          17.7855  -27.1087  -41.8057 C.2       1 UNK         0.5027 
     26 O          17.7933  -27.2980  -40.5878 O.2       1 UNK        -0.4969 
     27 C          22.9843  -25.3105  -45.3682 C.2       3 UNK         0.5005 
     28 O          23.4402  -24.6270  -44.4476 O.2       3 UNK        -0.5279 
     29 N          23.7562  -25.9499  -46.2579 N.am      4 UNK        -0.4463 
     30 CA         25.2181  -26.0295  -46.1825 C.3       4 UNK         0.0283 
     31 CB         25.7813  -26.2050  -47.6028 C.3       4 UNK        -0.1875 
     32 C          25.7113  -27.1690  -45.2688 C.2       4 UNK         0.4949 
     33 O          26.8837  -27.1653  -44.8929 O.2       4 UNK        -0.5039 
     34 N          24.8355  -28.1334  -44.9489 N.am      5 UNK        -0.4663 
     35 CA         25.1518  -29.3081  -44.1304 C.3       5 UNK         0.0242 
     36 CB         24.0986  -30.3976  -44.3867 C.3       5 UNK        -0.1982 
     37 C          25.2466  -28.9924  -42.6281 C.2       5 UNK         0.5017 
     38 O          26.0265  -29.6409  -41.9294 O.2       5 UNK        -0.5012 
     39 N          24.4597  -28.0070  -42.1734 N.am      6 UNK        -0.4439 
     40 CA         24.2861  -27.5702  -40.7853 C.3       6 UNK         0.0297 
     41 CB         25.6096  -27.0346  -40.1912 C.3       6 UNK        -0.2006 
     42 C          23.5948  -28.6557  -39.9351 C.2       6 UNK         0.4892 
     43 O          22.7449  -29.3807  -40.4565 O.2       6 UNK        -0.5089 
     44 N          23.9297  -28.7267  -38.6400 N.am      7 UNK        -0.4243 
     45 CA         23.4210  -29.7307  -37.7060 C.3       7 UNK         0.0196 
     46 CB         23.6870  -29.2603  -36.2656 C.3       7 UNK        -0.2007 
     47 C          24.0982  -31.0931  -37.9712 C.2       7 UNK         0.5020 
     48 O          25.3199  -31.1694  -37.8409 O.2       7 UNK        -0.5147 
     49 N          23.3721  -32.1620  -38.3196 N.am      8 UNK        -0.4734 
     50 CA         21.9493  -32.2390  -38.6441 C.3       8 UNK         0.0238 
     51 CB         21.1249  -32.4535  -37.3615 C.3       8 UNK        -0.1912 
     52 C          21.7496  -33.3914  -39.6345 C.2       8 UNK         0.5038 
     53 O          22.5381  -34.3413  -39.6299 O.2       8 UNK        -0.5046 
     54 N          20.7012  -33.2824  -40.4563 N.am      9 UNK        -0.4200 
     55 CA         20.3649  -34.2403  -41.5235 C.3       9 UNK         0.0839 
     56 C          19.4427  -35.4060  -41.0624 C.2       9 UNK         0.5513 
     57 N          18.9955  -35.4507  -39.8129 N.am      9 UNK        -0.7519 
     58 O          19.1354  -36.2954  -41.8518 O.2       9 UNK        -0.4960 
     59 C59        19.7915  -33.5178  -42.7725 C.3       10 UNK        -0.0876 
     60 S60        20.9658  -32.3005  -43.4628 S.3       10 UNK        -0.2414 
     61 C61        20.2497  -30.7223  -42.9070 C.3       10 UNK         0.0169 
     62 H62        16.0519  -22.6659  -42.3733 H         1 UNK         0.0903 
     63 H63        14.5656  -23.5987  -42.1839 H         1 UNK         0.0903 
     64 H64        15.0475  -23.0226  -43.7808 H         1 UNK         0.0903 
     65 H65        14.9802  -25.7776  -41.8941 H         1 UNK         0.3096 
     66 H66        16.7081  -27.2798  -43.6319 H         1 UNK         0.1121 
     67 H67        14.8984  -27.9683  -41.2892 H         1 UNK         0.0849 
     68 H68        16.0850  -29.1373  -41.7726 H         1 UNK         0.0849 
     69 H69        15.2505  -31.0809  -43.3524 H         1 UNK         0.0865 
     70 H70        14.8394  -30.6703  -44.9952 H         1 UNK         0.0865 
     71 H71        17.5439  -31.0243  -42.6677 H         1 UNK         0.1346 
     72 H72        20.5409  -29.3494  -45.2262 H         1 UNK         0.1412 
     73 H73        16.3881  -28.9548  -46.2405 H         1 UNK         0.1426 
     74 H74        18.0776  -28.3805  -47.8665 H         1 UNK         0.0716 
     75 H75        19.7561  -28.7578  -47.6049 H         1 UNK         0.0716 
     76 H76        21.3618  -27.4933  -46.3291 H         1 UNK         0.0695 
     77 H77        21.4287  -26.2469  -47.5559 H         1 UNK         0.0695 
     78 H78        21.0897  -24.4846  -45.8198 H         1 UNK         0.0983 
     79 H79        20.1077  -25.0664  -43.9273 H         1 UNK         0.3095 
     80 H80        20.4962  -27.7774  -41.6061 H         1 UNK         0.0454 
     81 H81        20.1666  -24.7168  -41.5324 H         1 UNK         0.0851 
     82 H82        20.0238  -25.8280  -40.1744 H         1 UNK         0.0851 
     83 H83        21.5838  -25.5553  -40.9225 H         1 UNK         0.0851 
     84 H84        18.7397  -26.7294  -43.5392 H         1 UNK         0.2976 
     85 H85        23.3126  -26.4740  -46.9987 H         1 UNK         0.3116 
     86 H86        25.6097  -25.0931  -45.7789 H         1 UNK         0.0646 
     87 H87        26.8719  -26.2329  -47.5893 H         1 UNK         0.0847 
     88 H88        25.4897  -25.3786  -48.2511 H         1 UNK         0.0847 
     89 H89        25.4388  -27.1323  -48.0637 H         1 UNK         0.0847 
     90 H90        23.8769  -28.0371  -45.2509 H         1 UNK         0.3040 
     91 H91        26.1242  -29.6955  -44.4433 H         1 UNK         0.1015 
     92 H92        24.0916  -30.7076  -45.4317 H         1 UNK         0.0786 
     93 H93        23.0958  -30.0543  -44.1321 H         1 UNK         0.0786 
     94 H94        24.2987  -31.2863  -43.7863 H         1 UNK         0.0786 
     95 H95        23.7668  -27.6485  -42.8255 H         1 UNK         0.3172 
     96 H96        23.5896  -26.7338  -40.8289 H         1 UNK         0.0595 
     97 H97        25.4388  -26.5015  -39.2554 H         1 UNK         0.0839 
     98 H98        26.0866  -26.3289  -40.8716 H         1 UNK         0.0839 
     99 H99        26.3241  -27.8343  -39.9921 H         1 UNK         0.0839 
    100 H100       24.6588  -28.1193  -38.2961 H         1 UNK         0.2998 
    101 H101       22.3401  -29.7865  -37.8232 H         1 UNK         0.0822 
    102 H102       24.7524  -29.1343  -36.0675 H         1 UNK         0.0787 
    103 H103       23.1934  -28.3101  -36.0606 H         1 UNK         0.0787 
    104 H104       23.3055  -29.9850  -35.5450 H         1 UNK         0.0787 
    105 H105       23.8569  -33.0309  -38.5103 H         1 UNK         0.3055 
    106 H106       21.6277  -31.3284  -39.1509 H         1 UNK         0.1106 
    107 H107       21.4019  -33.3807  -36.8581 H         1 UNK         0.0828 
    108 H108       21.2607  -31.6384  -36.6510 H         1 UNK         0.0828 
    109 H109       20.0588  -32.5097  -37.5846 H         1 UNK         0.0828 
    110 H110       20.0864  -32.4878  -40.3691 H         1 UNK         0.2931 
    111 H111       21.2900  -34.7244  -41.8434 H         1 UNK         0.0412 
    112 H112       19.2506  -34.7362  -39.1508 H         1 UNK         0.3472 
    113 H113       18.4034  -36.2153  -39.5277 H         1 UNK         0.3472 
    114 H114       18.8408  -33.0379  -42.5393 H         1 UNK         0.0970 
    115 H115       19.5752  -34.2383  -43.5635 H         1 UNK         0.0970 
    116 H116       19.8701  -30.8169  -41.8892 H         1 UNK         0.0612 
    117 H117       21.0455  -29.9787  -42.8574 H         1 UNK         0.0612 
@<TRIPOS>BOND
     1    1    2 1    
     2    1   62 1    
     3    1   63 1    
     4    1   64 1    
     5    2    3 2    
     6    2    4 am   BACKBONE|DICT|INTERRES
     7    4    5 1    
     8    4   65 1    
     9    5    6 1    
    10    5   25 1    
    11    5   66 1    
    12    6    7 1    
    13    6   67 1    
    14    6   68 1    
    15    7    8 1    
    16    8    9 1    
    17    8   69 1    
    18    8   70 1    
    19    9   10 ar   
    20    9   14 ar   
    21   10   11 ar   
    22   10   71 1    
    23   11   12 ar   
    24   11   61 1    
    25   12   13 ar   
    26   12   72 1    
    27   13   14 ar   
    28   13   15 1    
    29   14   73 1    
    30   15   16 1    
    31   15   74 1    
    32   15   75 1    
    33   16   17 1    
    34   17   18 1    
    35   17   76 1    
    36   17   77 1    
    37   18   19 1    
    38   18   27 1    
    39   18   78 1    
    40   19   20 am   BACKBONE|DICT|INTERRES
    41   19   79 1    
    42   20   21 2    
    43   20   22 1    
    44   22   23 1    
    45   22   24 1    
    46   22   80 1    
    47   23   81 1    
    48   23   82 1    
    49   23   83 1    
    50   24   25 am   BACKBONE|DICT|INTERRES
    51   24   84 1    
    52   25   26 2    
    53   27   28 2    
    54   27   29 am   BACKBONE|DICT|INTERRES
    55   29   30 1    
    56   29   85 1    
    57   30   31 1    
    58   30   32 1    
    59   30   86 1    
    60   31   87 1    
    61   31   88 1    
    62   31   89 1    
    63   32   33 2    
    64   32   34 am   BACKBONE|DICT|INTERRES
    65   34   35 1    
    66   34   90 1    
    67   35   36 1    
    68   35   37 1    
    69   35   91 1    
    70   36   92 1    
    71   36   93 1    
    72   36   94 1    
    73   37   38 2    
    74   37   39 am   BACKBONE|DICT|INTERRES
    75   39   40 1    
    76   39   95 1    
    77   40   41 1    
    78   40   42 1    
    79   40   96 1    
    80   41   97 1    
    81   41   98 1    
    82   41   99 1    
    83   42   43 2    
    84   42   44 am   BACKBONE|DICT|INTERRES
    85   44   45 1    
    86   44  100 1    
    87   45   46 1    
    88   45   47 1    
    89   45  101 1    
    90   46  102 1    
    91   46  103 1    
    92   46  104 1    
    93   47   48 2    
    94   47   49 am   BACKBONE|DICT|INTERRES
    95   49   50 1    
    96   49  105 1    
    97   50   51 1    
    98   50   52 1    
    99   50  106 1    
   100   51  107 1    
   101   51  108 1    
   102   51  109 1    
   103   52   53 2    
   104   52   54 am   BACKBONE|DICT|INTERRES
   105   54   55 1    
   106   54  110 1    
   107   55   56 1    
   108   55   59 1    
   109   55  111 1    
   110   56   57 am   BACKBONE|DICT|INTERRES
   111   56   58 2    
   112   57  112 1    
   113   57  113 1    
   114   59   60 1    
   115   59  114 1    
   116   59  115 1    
   117   60   61 1    
   118   61  116 1    
   119   61  117 1    
@<TRIPOS>SUBSTRUCTURE
     1 UNK         1 GROUP             0       ****    0 ROOT    
