@<TRIPOS>MOLECULE
3R8
117   119    1
SMALL
USER_CHARGES


@<TRIPOS>ATOM
      1 CA         14.9891  -22.0500  -43.3260 C.3       0 UNK        -0.2013 
      2 C          15.8852  -22.7907  -44.3078 C.2       0 UNK         0.4866 
      3 O          16.5769  -22.1542  -45.1038 O.2       0 UNK        -0.5176 
      4 N          15.8711  -24.1291  -44.2627 N.am      1 UNK        -0.4884 
      5 CA         16.7202  -25.0019  -45.0814 C.3       1 UNK         0.0853 
      6 C6         16.0433  -26.3795  -45.3184 C.3       10 UNK        -0.0849 
      7 S7         16.5529  -27.1350  -46.9024 S.3       10 UNK        -0.2776 
      8 C8         16.1309  -28.8877  -46.6445 C.3       10 UNK         0.0316 
      9 C9         17.0504  -29.5578  -45.6333 C.ar      10 UNK        -0.0863 
     10 C10        18.3662  -29.8795  -45.9827 C.ar      10 UNK        -0.1009 
     11 C11        19.2161  -30.4988  -45.0605 C.ar      10 UNK        -0.0712 
     12 C12        18.7273  -30.8095  -43.7886 C.ar      10 UNK        -0.0894 
     13 C13        17.4193  -30.4857  -43.4205 C.ar      10 UNK        -0.0745 
     14 C14        16.5829  -29.8643  -44.3516 C.ar      10 UNK        -0.0972 
     15 C15        16.9068  -30.7970  -42.0167 C.3       10 UNK         0.0209 
     16 S16        18.0406  -30.2530  -40.6899 S.3       10 UNK        -0.2568 
     17 C17        18.2970  -28.4986  -41.1140 C.3       10 UNK        -0.0983 
     18 CA         19.7176  -28.2434  -41.6951 C.3       3 UNK         0.0876 
     19 N          19.6673  -27.3820  -42.8824 N.am      3 UNK        -0.4424 
     20 C          20.7087  -26.9357  -43.5975 C.2       2 UNK         0.4918 
     21 O          21.8809  -27.1572  -43.2966 O.2       2 UNK        -0.4875 
     22 CA         20.4213  -26.1053  -44.8651 C.3       2 UNK         0.0481 
     23 CB         21.0930  -26.7511  -46.0890 C.3       2 UNK        -0.1831 
     24 N          19.0039  -25.8839  -45.1747 N.am      2 UNK        -0.4498 
     25 C          18.1411  -25.1301  -44.4814 C.2       1 UNK         0.5027 
     26 O          18.4283  -24.5831  -43.4132 O.2       1 UNK        -0.4969 
     27 C          20.6916  -27.7508  -40.6062 C.2       3 UNK         0.5005 
     28 O          21.5154  -28.5310  -40.1264 O.2       3 UNK        -0.5279 
     29 N          20.6075  -26.4543  -40.2753 N.am      4 UNK        -0.4463 
     30 CA         21.4474  -25.7983  -39.2692 C.3       4 UNK         0.0283 
     31 CB         20.8601  -24.4157  -38.9431 C.3       4 UNK        -0.1875 
     32 C          22.9249  -25.6685  -39.6806 C.2       4 UNK         0.4949 
     33 O          23.7891  -25.6385  -38.8043 O.2       4 UNK        -0.5039 
     34 N          23.1901  -25.5850  -40.9911 N.am      5 UNK        -0.4663 
     35 CA         24.5392  -25.5114  -41.5524 C.3       5 UNK         0.0242 
     36 CB         24.4935  -24.7894  -42.9099 C.3       5 UNK        -0.1982 
     37 C          25.1648  -26.9061  -41.6957 C.2       5 UNK         0.5017 
     38 O          26.3373  -27.0803  -41.3625 O.2       5 UNK        -0.5012 
     39 N          24.3738  -27.8659  -42.1947 N.am      6 UNK        -0.4439 
     40 CA         24.7835  -29.2493  -42.4300 C.3       6 UNK         0.0297 
     41 CB         23.7403  -29.9474  -43.3150 C.3       6 UNK        -0.2006 
     42 C          24.9938  -30.0456  -41.1354 C.2       6 UNK         0.4892 
     43 O          25.9577  -30.8084  -41.0572 O.2       6 UNK        -0.5089 
     44 N          24.0762  -29.8845  -40.1681 N.am      7 UNK        -0.4243 
     45 CA         23.9705  -30.5717  -38.8713 C.3       7 UNK         0.0196 
     46 CB         25.1987  -30.2988  -37.9814 C.3       7 UNK        -0.2007 
     47 C          23.6743  -32.0810  -38.9726 C.2       7 UNK         0.5020 
     48 O          22.7717  -32.5662  -38.2906 O.2       7 UNK        -0.5147 
     49 N          24.4188  -32.7905  -39.8249 N.am      8 UNK        -0.4734 
     50 CA         24.2767  -34.2101  -40.1321 C.3       8 UNK         0.0238 
     51 CB         25.5166  -34.9627  -39.6132 C.3       8 UNK        -0.1912 
     52 C          24.0797  -34.3565  -41.6480 C.2       8 UNK         0.5038 
     53 O          24.9709  -34.8440  -42.3459 O.2       8 UNK        -0.5046 
     54 N          22.9210  -33.8899  -42.1316 N.am      9 UNK        -0.4200 
     55 CA         22.5018  -33.9669  -43.5426 C.3       9 UNK         0.0839 
     56 C          22.2464  -35.4173  -44.0540 C.2       9 UNK         0.5513 
     57 N          21.9062  -36.3673  -43.1901 N.am      9 UNK        -0.7519 
     58 O          22.3774  -35.6897  -45.2442 O.2       9 UNK        -0.4960 
     59 C59        21.2802  -33.0432  -43.7936 C.3       10 UNK        -0.0876 
     60 S60        21.0533  -32.5564  -45.5419 S.3       10 UNK        -0.2414 
     61 C61        20.6711  -30.7773  -45.4207 C.3       10 UNK         0.0169 
     62 H62        14.4210  -22.7336  -42.6954 H         1 UNK         0.0903 
     63 H63        15.5902  -21.4121  -42.6784 H         1 UNK         0.0903 
     64 H64        14.2822  -21.4196  -43.8647 H         1 UNK         0.0903 
     65 H65        15.3098  -24.5927  -43.5622 H         1 UNK         0.3096 
     66 H66        16.8401  -24.5139  -46.0521 H         1 UNK         0.1121 
     67 H67        14.9591  -26.2630  -45.3688 H         1 UNK         0.0849 
     68 H68        16.2292  -27.0598  -44.4860 H         1 UNK         0.0849 
     69 H69        15.0866  -28.9679  -46.3382 H         1 UNK         0.0865 
     70 H70        16.2066  -29.4119  -47.5983 H         1 UNK         0.0865 
     71 H71        18.7302  -29.6319  -46.9706 H         1 UNK         0.1346 
     72 H72        19.3691  -31.2782  -43.0603 H         1 UNK         0.1412 
     73 H73        15.5666  -29.6149  -44.0777 H         1 UNK         0.1426 
     74 H74        16.7522  -31.8731  -41.9287 H         1 UNK         0.0716 
     75 H75        15.9345  -30.3307  -41.8498 H         1 UNK         0.0716 
     76 H76        18.0980  -27.8958  -40.2254 H         1 UNK         0.0695 
     77 H77        17.5236  -28.2028  -41.8245 H         1 UNK         0.0695 
     78 H78        20.1348  -29.1849  -42.0550 H         1 UNK         0.0983 
     79 H79        18.7472  -27.1376  -43.2132 H         1 UNK         0.3095 
     80 H80        20.8802  -25.1277  -44.7061 H         1 UNK         0.0454 
     81 H81        22.1633  -26.8887  -45.9278 H         1 UNK         0.0851 
     82 H82        20.9826  -26.1296  -46.9776 H         1 UNK         0.0851 
     83 H83        20.6689  -27.7311  -46.3093 H         1 UNK         0.0851 
     84 H84        18.6541  -26.3395  -46.0085 H         1 UNK         0.2976 
     85 H85        19.9179  -25.8822  -40.7430 H         1 UNK         0.3116 
     86 H86        21.4148  -26.4040  -38.3608 H         1 UNK         0.0646 
     87 H87        21.4505  -23.9125  -38.1760 H         1 UNK         0.0847 
     88 H88        20.8439  -23.7658  -39.8190 H         1 UNK         0.0847 
     89 H89        19.8414  -24.4952  -38.5633 H         1 UNK         0.0847 
     90 H90        22.4260  -25.6730  -41.6469 H         1 UNK         0.3040 
     91 H91        25.1752  -24.9277  -40.8825 H         1 UNK         0.1015 
     92 H92        25.4930  -24.7054  -43.3388 H         1 UNK         0.0786 
     93 H93        24.1003  -23.7779  -42.8066 H         1 UNK         0.0786 
     94 H94        23.8724  -25.3174  -43.6344 H         1 UNK         0.0786 
     95 H95        23.4307  -27.6126  -42.4847 H         1 UNK         0.3172 
     96 H96        25.7318  -29.2331  -42.9715 H         1 UNK         0.0595 
     97 H97        22.7609  -29.9657  -42.8355 H         1 UNK         0.0839 
     98 H98        24.0253  -30.9802  -43.5210 H         1 UNK         0.0839 
     99 H99        23.6349  -29.4416  -44.2750 H         1 UNK         0.0839 
    100 H100       23.2959  -29.2593  -40.3579 H         1 UNK         0.2998 
    101 H101       23.1074  -30.1202  -38.3787 H         1 UNK         0.0822 
    102 H102       25.0592  -30.7252  -36.9872 H         1 UNK         0.0787 
    103 H103       26.1099  -30.7329  -38.3937 H         1 UNK         0.0787 
    104 H104       25.3644  -29.2287  -37.8557 H         1 UNK         0.0787 
    105 H105       25.1197  -32.2784  -40.3593 H         1 UNK         0.3055 
    106 H106       23.3936  -34.6286  -39.6438 H         1 UNK         0.1106 
    107 H107       25.6079  -34.8724  -38.5307 H         1 UNK         0.0828 
    108 H108       25.4539  -36.0265  -39.8457 H         1 UNK         0.0828 
    109 H109       26.4374  -34.5831  -40.0582 H         1 UNK         0.0828 
    110 H110       22.2526  -33.5002  -41.4836 H         1 UNK         0.2931 
    111 H111       23.3362  -33.5733  -44.1270 H         1 UNK         0.0412 
    112 H112       21.7982  -36.1593  -42.2105 H         1 UNK         0.3472 
    113 H113       21.7517  -37.3055  -43.5256 H         1 UNK         0.3472 
    114 H114       20.3598  -33.5038  -43.4291 H         1 UNK         0.0970 
    115 H115       21.4130  -32.1312  -43.2118 H         1 UNK         0.0970 
    116 H116       20.9135  -30.3186  -46.3803 H         1 UNK         0.0612 
    117 H117       21.3216  -30.2980  -44.6913 H         1 UNK         0.0612 
@<TRIPOS>BOND
     1    1    2 1    
     2    1   62 1    
     3    1   63 1    
     4    1   64 1    
     5    2    3 2    
     6    2    4 am   BACKBONE|DICT|INTERRES
     7    4    5 1    
     8    4   65 1    
     9    5    6 1    
    10    5   25 1    
    11    5   66 1    
    12    6    7 1    
    13    6   67 1    
    14    6   68 1    
    15    7    8 1    
    16    8    9 1    
    17    8   69 1    
    18    8   70 1    
    19    9   10 ar   
    20    9   14 ar   
    21   10   11 ar   
    22   10   71 1    
    23   11   12 ar   
    24   11   61 1    
    25   12   13 ar   
    26   12   72 1    
    27   13   14 ar   
    28   13   15 1    
    29   14   73 1    
    30   15   16 1    
    31   15   74 1    
    32   15   75 1    
    33   16   17 1    
    34   17   18 1    
    35   17   76 1    
    36   17   77 1    
    37   18   19 1    
    38   18   27 1    
    39   18   78 1    
    40   19   20 am   BACKBONE|DICT|INTERRES
    41   19   79 1    
    42   20   21 2    
    43   20   22 1    
    44   22   23 1    
    45   22   24 1    
    46   22   80 1    
    47   23   81 1    
    48   23   82 1    
    49   23   83 1    
    50   24   25 am   BACKBONE|DICT|INTERRES
    51   24   84 1    
    52   25   26 2    
    53   27   28 2    
    54   27   29 am   BACKBONE|DICT|INTERRES
    55   29   30 1    
    56   29   85 1    
    57   30   31 1    
    58   30   32 1    
    59   30   86 1    
    60   31   87 1    
    61   31   88 1    
    62   31   89 1    
    63   32   33 2    
    64   32   34 am   BACKBONE|DICT|INTERRES
    65   34   35 1    
    66   34   90 1    
    67   35   36 1    
    68   35   37 1    
    69   35   91 1    
    70   36   92 1    
    71   36   93 1    
    72   36   94 1    
    73   37   38 2    
    74   37   39 am   BACKBONE|DICT|INTERRES
    75   39   40 1    
    76   39   95 1    
    77   40   41 1    
    78   40   42 1    
    79   40   96 1    
    80   41   97 1    
    81   41   98 1    
    82   41   99 1    
    83   42   43 2    
    84   42   44 am   BACKBONE|DICT|INTERRES
    85   44   45 1    
    86   44  100 1    
    87   45   46 1    
    88   45   47 1    
    89   45  101 1    
    90   46  102 1    
    91   46  103 1    
    92   46  104 1    
    93   47   48 2    
    94   47   49 am   BACKBONE|DICT|INTERRES
    95   49   50 1    
    96   49  105 1    
    97   50   51 1    
    98   50   52 1    
    99   50  106 1    
   100   51  107 1    
   101   51  108 1    
   102   51  109 1    
   103   52   53 2    
   104   52   54 am   BACKBONE|DICT|INTERRES
   105   54   55 1    
   106   54  110 1    
   107   55   56 1    
   108   55   59 1    
   109   55  111 1    
   110   56   57 am   BACKBONE|DICT|INTERRES
   111   56   58 2    
   112   57  112 1    
   113   57  113 1    
   114   59   60 1    
   115   59  114 1    
   116   59  115 1    
   117   60   61 1    
   118   61  116 1    
   119   61  117 1    
@<TRIPOS>SUBSTRUCTURE
     1 UNK         1 GROUP             0       ****    0 ROOT    
