@<TRIPOS>MOLECULE
3R8
117   119    1
SMALL
USER_CHARGES


@<TRIPOS>ATOM
      1 CA         15.4715  -22.9949  -46.7996 C.3       0 UNK        -0.2013 
      2 C          15.8711  -23.7886  -45.5648 C.2       0 UNK         0.4866 
      3 O          15.6290  -23.3370  -44.4458 O.2       0 UNK        -0.5176 
      4 N          16.4871  -24.9637  -45.7632 N.am      1 UNK        -0.4884 
      5 CA         16.9490  -25.8902  -44.7168 C.3       1 UNK         0.0853 
      6 C6         15.7772  -26.4545  -43.8607 C.3       10 UNK        -0.0849 
      7 S7         16.1109  -28.0628  -43.0580 S.3       10 UNK        -0.2776 
      8 C8         15.9600  -29.2554  -44.4260 C.3       10 UNK         0.0316 
      9 C9         17.2620  -30.0200  -44.6314 C.ar      10 UNK        -0.0863 
     10 C10        17.5070  -31.2049  -43.9287 C.ar      10 UNK        -0.1009 
     11 C11        18.6857  -31.9267  -44.1446 C.ar      10 UNK        -0.0712 
     12 C12        19.6394  -31.4331  -45.0408 C.ar      10 UNK        -0.0894 
     13 C13        19.4154  -30.2463  -45.7455 C.ar      10 UNK        -0.0745 
     14 C14        18.2118  -29.5587  -45.5472 C.ar      10 UNK        -0.0972 
     15 C15        20.4538  -29.7765  -46.7647 C.3       10 UNK         0.0209 
     16 S16        20.5126  -27.9638  -47.0020 S.3       10 UNK        -0.2568 
     17 C17        22.1964  -27.5299  -46.4385 C.3       10 UNK        -0.0983 
     18 CA         22.2534  -26.9047  -45.0226 C.3       3 UNK         0.0876 
     19 N          21.2970  -25.8049  -44.8686 N.am      3 UNK        -0.4424 
     20 C          21.2915  -24.8967  -43.8836 C.2       2 UNK         0.4918 
     21 O          22.1144  -24.8739  -42.9681 O.2       2 UNK        -0.4875 
     22 CA         20.1490  -23.8644  -43.9136 C.3       2 UNK         0.0481 
     23 CB         20.5750  -22.6130  -44.6967 C.3       2 UNK        -0.1831 
     24 N          18.9125  -24.4067  -44.4909 N.am      2 UNK        -0.4498 
     25 C          18.1444  -25.3363  -43.9000 C.2       1 UNK         0.5027 
     26 O          18.3888  -25.7768  -42.7778 O.2       1 UNK        -0.4969 
     27 C          22.1601  -27.9767  -43.9173 C.2       3 UNK         0.5005 
     28 O          23.1316  -28.7086  -43.7241 O.2       3 UNK        -0.5279 
     29 N          21.0431  -28.0269  -43.1738 N.am      4 UNK        -0.4463 
     30 CA         20.8358  -28.9162  -42.0262 C.3       4 UNK         0.0283 
     31 CB         19.4284  -28.7013  -41.4548 C.3       4 UNK        -0.1875 
     32 C          21.8786  -28.7445  -40.9111 C.2       4 UNK         0.4949 
     33 O          22.2100  -29.7260  -40.2496 O.2       4 UNK        -0.5039 
     34 N          22.3982  -27.5202  -40.7419 N.am      5 UNK        -0.4663 
     35 CA         23.4664  -27.2024  -39.7923 C.3       5 UNK         0.0242 
     36 CB         23.5555  -25.6772  -39.6254 C.3       5 UNK        -0.1982 
     37 C          24.8318  -27.7804  -40.2051 C.2       5 UNK         0.5017 
     38 O          25.6283  -28.1183  -39.3295 O.2       5 UNK        -0.5012 
     39 N          25.0750  -27.8891  -41.5188 N.am      6 UNK        -0.4439 
     40 CA         26.2891  -28.4725  -42.0925 C.3       6 UNK         0.0297 
     41 CB         26.5484  -27.8658  -43.4816 C.3       6 UNK        -0.2006 
     42 C          26.1881  -30.0027  -42.1751 C.2       6 UNK         0.4892 
     43 O          27.1580  -30.6928  -41.8610 O.2       6 UNK        -0.5089 
     44 N          25.0121  -30.5013  -42.5807 N.am      7 UNK        -0.4243 
     45 CA         24.6903  -31.9265  -42.6828 C.3       7 UNK         0.0196 
     46 CB         23.4446  -32.0810  -43.5697 C.3       7 UNK        -0.2007 
     47 C          24.4814  -32.6176  -41.3207 C.2       7 UNK         0.5020 
     48 O          24.5254  -33.8468  -41.2664 O.2       7 UNK        -0.5147 
     49 N          24.2582  -31.8261  -40.2604 N.am      8 UNK        -0.4734 
     50 CA         23.9529  -32.2272  -38.8805 C.3       8 UNK         0.0238 
     51 CB         25.1312  -32.9968  -38.2456 C.3       8 UNK        -0.1912 
     52 C          22.6056  -32.9677  -38.7702 C.2       8 UNK         0.5038 
     53 O          22.5016  -33.9661  -38.0540 O.2       8 UNK        -0.5046 
     54 N          21.6020  -32.4605  -39.4942 N.am      9 UNK        -0.4200 
     55 CA         20.2250  -32.9695  -39.5044 C.3       9 UNK         0.0839 
     56 C          19.4389  -32.5144  -38.2473 C.2       9 UNK         0.5513 
     57 N          18.5164  -33.3357  -37.7651 N.am      9 UNK        -0.7519 
     58 O          19.6256  -31.4143  -37.7313 O.2       9 UNK        -0.4960 
     59 C59        19.4787  -32.5662  -40.8016 C.3       10 UNK        -0.0876 
     60 S60        20.2754  -33.2620  -42.2843 S.3       10 UNK        -0.2414 
     61 C61        18.9017  -33.2781  -43.4755 C.3       10 UNK         0.0169 
     62 H62        15.7453  -23.5067  -47.7220 H         1 UNK         0.0903 
     63 H63        14.3937  -22.8344  -46.8089 H         1 UNK         0.0903 
     64 H64        15.9605  -22.0210  -46.7941 H         1 UNK         0.0903 
     65 H65        16.6528  -25.2708  -46.7129 H         1 UNK         0.3096 
     66 H66        17.3714  -26.7273  -45.2685 H         1 UNK         0.1121 
     67 H67        14.8870  -26.5786  -44.4795 H         1 UNK         0.0849 
     68 H68        15.4949  -25.7377  -43.0876 H         1 UNK         0.0849 
     69 H69        15.1511  -29.9518  -44.1997 H         1 UNK         0.0865 
     70 H70        15.6697  -28.7487  -45.3476 H         1 UNK         0.0865 
     71 H71        16.7661  -31.5788  -43.2353 H         1 UNK         0.1346 
     72 H72        20.5482  -31.9952  -45.2085 H         1 UNK         0.1412 
     73 H73        18.0040  -28.6696  -46.1220 H         1 UNK         0.1426 
     74 H74        21.4403  -30.1454  -46.4811 H         1 UNK         0.0716 
     75 H75        20.2214  -30.2385  -47.7249 H         1 UNK         0.0716 
     76 H76        22.5866  -26.8048  -47.1543 H         1 UNK         0.0695 
     77 H77        22.8644  -28.3893  -46.5204 H         1 UNK         0.0695 
     78 H78        23.2480  -26.4668  -44.9099 H         1 UNK         0.0983 
     79 H79        20.5801  -25.7541  -45.5774 H         1 UNK         0.3095 
     80 H80        19.9432  -23.5662  -42.8834 H         1 UNK         0.0454 
     81 H81        19.8028  -21.8442  -44.6665 H         1 UNK         0.0851 
     82 H82        20.7844  -22.8389  -45.7429 H         1 UNK         0.0851 
     83 H83        21.4797  -22.1768  -44.2707 H         1 UNK         0.0851 
     84 H84        18.6405  -24.0709  -45.4037 H         1 UNK         0.2976 
     85 H85        20.2935  -27.3837  -43.3859 H         1 UNK         0.3116 
     86 H86        20.9063  -29.9438  -42.3880 H         1 UNK         0.0646 
     87 H87        18.6695  -29.0227  -42.1657 H         1 UNK         0.0847 
     88 H88        19.2751  -29.2685  -40.5365 H         1 UNK         0.0847 
     89 H89        19.2460  -27.6557  -41.2086 H         1 UNK         0.0847 
     90 H90        22.0696  -26.7672  -41.3325 H         1 UNK         0.3040 
     91 H91        23.2047  -27.6394  -38.8257 H         1 UNK         0.1015 
     92 H92        23.7933  -25.1806  -40.5673 H         1 UNK         0.0786 
     93 H93        24.3319  -25.4071  -38.9081 H         1 UNK         0.0786 
     94 H94        22.6169  -25.2632  -39.2565 H         1 UNK         0.0786 
     95 H95        24.3348  -27.6510  -42.1657 H         1 UNK         0.3172 
     96 H96        27.1404  -28.2237  -41.4549 H         1 UNK         0.0595 
     97 H97        25.7396  -28.0816  -44.1807 H         1 UNK         0.0839 
     98 H98        27.4661  -28.2664  -43.9143 H         1 UNK         0.0839 
     99 H99        26.6634  -26.7833  -43.4260 H         1 UNK         0.0839 
    100 H100       24.2876  -29.8521  -42.8831 H         1 UNK         0.2998 
    101 H101       25.5246  -32.4302  -43.1754 H         1 UNK         0.0822 
    102 H102       23.1637  -33.1296  -43.6768 H         1 UNK         0.0787 
    103 H103       22.5885  -31.5529  -43.1495 H         1 UNK         0.0787 
    104 H104       23.6183  -31.6864  -44.5709 H         1 UNK         0.0787 
    105 H105       24.1685  -30.8346  -40.4433 H         1 UNK         0.3055 
    106 H106       23.8277  -31.3003  -38.3179 H         1 UNK         0.1106 
    107 H107       26.0628  -32.4380  -38.3336 H         1 UNK         0.0828 
    108 H108       24.9560  -33.1688  -37.1829 H         1 UNK         0.0828 
    109 H109       25.2788  -33.9720  -38.7102 H         1 UNK         0.0828 
    110 H110       21.7654  -31.5861  -39.9833 H         1 UNK         0.2931 
    111 H111       20.2777  -34.0604  -39.4819 H         1 UNK         0.0412 
    112 H112       18.3501  -34.2378  -38.1842 H         1 UNK         0.3472 
    113 H113       17.9829  -33.0536  -36.9572 H         1 UNK         0.3472 
    114 H114       19.4328  -31.4843  -40.9072 H         1 UNK         0.0970 
    115 H115       18.4450  -32.9148  -40.7654 H         1 UNK         0.0970 
    116 H116       19.1287  -34.0142  -44.2479 H         1 UNK         0.0612 
    117 H117       17.9909  -33.6278  -42.9873 H         1 UNK         0.0612 
@<TRIPOS>BOND
     1    1    2 1    
     2    1   62 1    
     3    1   63 1    
     4    1   64 1    
     5    2    3 2    
     6    2    4 am   BACKBONE|DICT|INTERRES
     7    4    5 1    
     8    4   65 1    
     9    5    6 1    
    10    5   25 1    
    11    5   66 1    
    12    6    7 1    
    13    6   67 1    
    14    6   68 1    
    15    7    8 1    
    16    8    9 1    
    17    8   69 1    
    18    8   70 1    
    19    9   10 ar   
    20    9   14 ar   
    21   10   11 ar   
    22   10   71 1    
    23   11   12 ar   
    24   11   61 1    
    25   12   13 ar   
    26   12   72 1    
    27   13   14 ar   
    28   13   15 1    
    29   14   73 1    
    30   15   16 1    
    31   15   74 1    
    32   15   75 1    
    33   16   17 1    
    34   17   18 1    
    35   17   76 1    
    36   17   77 1    
    37   18   19 1    
    38   18   27 1    
    39   18   78 1    
    40   19   20 am   BACKBONE|DICT|INTERRES
    41   19   79 1    
    42   20   21 2    
    43   20   22 1    
    44   22   23 1    
    45   22   24 1    
    46   22   80 1    
    47   23   81 1    
    48   23   82 1    
    49   23   83 1    
    50   24   25 am   BACKBONE|DICT|INTERRES
    51   24   84 1    
    52   25   26 2    
    53   27   28 2    
    54   27   29 am   BACKBONE|DICT|INTERRES
    55   29   30 1    
    56   29   85 1    
    57   30   31 1    
    58   30   32 1    
    59   30   86 1    
    60   31   87 1    
    61   31   88 1    
    62   31   89 1    
    63   32   33 2    
    64   32   34 am   BACKBONE|DICT|INTERRES
    65   34   35 1    
    66   34   90 1    
    67   35   36 1    
    68   35   37 1    
    69   35   91 1    
    70   36   92 1    
    71   36   93 1    
    72   36   94 1    
    73   37   38 2    
    74   37   39 am   BACKBONE|DICT|INTERRES
    75   39   40 1    
    76   39   95 1    
    77   40   41 1    
    78   40   42 1    
    79   40   96 1    
    80   41   97 1    
    81   41   98 1    
    82   41   99 1    
    83   42   43 2    
    84   42   44 am   BACKBONE|DICT|INTERRES
    85   44   45 1    
    86   44  100 1    
    87   45   46 1    
    88   45   47 1    
    89   45  101 1    
    90   46  102 1    
    91   46  103 1    
    92   46  104 1    
    93   47   48 2    
    94   47   49 am   BACKBONE|DICT|INTERRES
    95   49   50 1    
    96   49  105 1    
    97   50   51 1    
    98   50   52 1    
    99   50  106 1    
   100   51  107 1    
   101   51  108 1    
   102   51  109 1    
   103   52   53 2    
   104   52   54 am   BACKBONE|DICT|INTERRES
   105   54   55 1    
   106   54  110 1    
   107   55   56 1    
   108   55   59 1    
   109   55  111 1    
   110   56   57 am   BACKBONE|DICT|INTERRES
   111   56   58 2    
   112   57  112 1    
   113   57  113 1    
   114   59   60 1    
   115   59  114 1    
   116   59  115 1    
   117   60   61 1    
   118   61  116 1    
   119   61  117 1    
@<TRIPOS>SUBSTRUCTURE
     1 UNK         1 GROUP             0       ****    0 ROOT    
