@<TRIPOS>MOLECULE
3R8
117   119    1
SMALL
USER_CHARGES


@<TRIPOS>ATOM
      1 CA         16.3385  -25.2992  -50.1121 C.3       0 UNK        -0.2013 
      2 C          17.3066  -26.0976  -49.2518 C.2       0 UNK         0.4866 
      3 O          18.3822  -26.4688  -49.7231 O.2       0 UNK        -0.5176 
      4 N          16.9300  -26.3735  -47.9973 N.am      1 UNK        -0.4884 
      5 CA         17.7509  -27.0899  -47.0163 C.3       1 UNK         0.0853 
      6 C6         16.9366  -27.4823  -45.7594 C.3       10 UNK        -0.0849 
      7 S7         15.5193  -28.5817  -46.0944 S.3       10 UNK        -0.2776 
      8 C8         15.9661  -30.0938  -45.1626 C.3       10 UNK         0.0316 
      9 C9         16.3483  -29.8762  -43.6948 C.ar      10 UNK        -0.0863 
     10 C10        17.2757  -30.7424  -43.1047 C.ar      10 UNK        -0.1009 
     11 C11        17.6750  -30.5633  -41.7774 C.ar      10 UNK        -0.0712 
     12 C12        17.1368  -29.5149  -41.0313 C.ar      10 UNK        -0.0894 
     13 C13        16.2349  -28.6218  -41.6117 C.ar      10 UNK        -0.0745 
     14 C14        15.8198  -28.8248  -42.9317 C.ar      10 UNK        -0.0972 
     15 C15        15.7451  -27.4164  -40.8214 C.3       10 UNK         0.0209 
     16 S16        17.1248  -26.3823  -40.2158 S.3       10 UNK        -0.2568 
     17 C17        17.9374  -25.8555  -41.7652 C.3       10 UNK        -0.0983 
     18 CA         19.3311  -26.5033  -41.9905 C.3       3 UNK         0.0876 
     19 N          19.7980  -26.2514  -43.3561 N.am      3 UNK        -0.4424 
     20 C          20.8669  -26.8085  -43.9433 C.2       2 UNK         0.4918 
     21 O          21.5747  -27.6723  -43.4248 O.2       2 UNK        -0.4875 
     22 CA         21.1314  -26.3650  -45.3925 C.3       2 UNK         0.0481 
     23 CB         22.4975  -26.8336  -45.9259 C.3       2 UNK        -0.1831 
     24 N          20.0591  -26.9087  -46.2261 N.am      2 UNK        -0.4498 
     25 C          18.9482  -26.2370  -46.5539 C.2       1 UNK         0.5027 
     26 O          18.8063  -25.0226  -46.3863 O.2       1 UNK        -0.4969 
     27 C          20.3897  -25.9935  -40.9901 C.2       3 UNK         0.5005 
     28 O          20.6404  -24.7858  -40.9420 O.2       3 UNK        -0.5279 
     29 N          21.0207  -26.9124  -40.2518 N.am      4 UNK        -0.4463 
     30 CA         22.1499  -26.6552  -39.3614 C.3       4 UNK         0.0283 
     31 CB         23.4198  -26.3843  -40.2007 C.3       4 UNK        -0.1875 
     32 C          22.3409  -27.8602  -38.4292 C.2       4 UNK         0.4949 
     33 O          21.5842  -28.8289  -38.5065 O.2       4 UNK        -0.5039 
     34 N          23.3717  -27.7957  -37.5766 N.am      5 UNK        -0.4663 
     35 CA         23.8254  -28.9159  -36.7412 C.3       5 UNK         0.0242 
     36 CB         24.6702  -28.3606  -35.5821 C.3       5 UNK        -0.1982 
     37 C          24.6210  -29.9789  -37.5291 C.2       5 UNK         0.5017 
     38 O          24.8655  -31.0635  -36.9996 O.2       5 UNK        -0.5012 
     39 N          25.0179  -29.6463  -38.7622 N.am      6 UNK        -0.4439 
     40 CA         25.7323  -30.4936  -39.7100 C.3       6 UNK         0.0297 
     41 CB         27.2542  -30.3818  -39.4779 C.3       6 UNK        -0.2006 
     42 C          25.2655  -30.1062  -41.1223 C.2       6 UNK         0.4892 
     43 O          24.0622  -29.9335  -41.3190 O.2       6 UNK        -0.5089 
     44 N          26.1977  -29.9712  -42.0774 N.am      7 UNK        -0.4243 
     45 CA         25.9584  -29.6724  -43.4957 C.3       7 UNK         0.0196 
     46 CB         25.3947  -28.2426  -43.6779 C.3       7 UNK        -0.2007 
     47 C          25.1062  -30.7796  -44.1431 C.2       7 UNK         0.5020 
     48 O          25.5724  -31.9174  -44.2189 O.2       7 UNK        -0.5147 
     49 N          23.8724  -30.4583  -44.5562 N.am      8 UNK        -0.4734 
     50 CA         22.8989  -31.4292  -45.0702 C.3       8 UNK         0.0238 
     51 CB         21.7230  -30.6826  -45.7224 C.3       8 UNK        -0.1912 
     52 C          22.3792  -32.4004  -43.9944 C.2       8 UNK         0.5038 
     53 O          21.9075  -33.4831  -44.3446 O.2       8 UNK        -0.5046 
     54 N          22.4671  -31.9992  -42.7212 N.am      9 UNK        -0.4200 
     55 CA         22.0021  -32.7634  -41.5566 C.3       9 UNK         0.0839 
     56 C          23.0644  -33.7484  -40.9905 C.2       9 UNK         0.5513 
     57 N          24.2727  -33.8189  -41.5392 N.am      9 UNK        -0.7519 
     58 O          22.7824  -34.4739  -40.0406 O.2       9 UNK        -0.4960 
     59 C59        21.4390  -31.8349  -40.4464 C.3       10 UNK        -0.0876 
     60 S60        20.3113  -30.5524  -41.0895 S.3       10 UNK        -0.2414 
     61 C61        18.7375  -31.4528  -41.1587 C.3       10 UNK         0.0169 
     62 H62        15.4238  -25.0508  -49.5740 H         1 UNK         0.0903 
     63 H63        16.8044  -24.3690  -50.4360 H         1 UNK         0.0903 
     64 H64        16.0652  -25.8707  -50.9988 H         1 UNK         0.0903 
     65 H65        16.0380  -26.0422  -47.6586 H         1 UNK         0.3096 
     66 H66        18.1293  -27.9979  -47.4916 H         1 UNK         0.1121 
     67 H67        16.5477  -26.5914  -45.2614 H         1 UNK         0.0849 
     68 H68        17.5936  -27.9610  -45.0309 H         1 UNK         0.0849 
     69 H69        15.1256  -30.7877  -45.2024 H         1 UNK         0.0865 
     70 H70        16.7886  -30.5787  -45.6910 H         1 UNK         0.0865 
     71 H71        17.7061  -31.5472  -43.6854 H         1 UNK         0.1346 
     72 H72        17.4658  -29.3604  -40.0125 H         1 UNK         0.1412 
     73 H73        15.1099  -28.1401  -43.3742 H         1 UNK         0.1426 
     74 H74        15.0764  -26.7983  -41.4226 H         1 UNK         0.0716 
     75 H75        15.1618  -27.7645  -39.9680 H         1 UNK         0.0716 
     76 H76        18.0114  -24.7663  -41.7616 H         1 UNK         0.0695 
     77 H77        17.2780  -26.1005  -42.5993 H         1 UNK         0.0695 
     78 H78        19.2296  -27.5856  -41.8799 H         1 UNK         0.0983 
     79 H79        19.2994  -25.5368  -43.8665 H         1 UNK         0.3095 
     80 H80        21.1278  -25.2733  -45.4160 H         1 UNK         0.0454 
     81 H81        22.6569  -26.4989  -46.9508 H         1 UNK         0.0851 
     82 H82        22.5973  -27.9172  -45.9099 H         1 UNK         0.0851 
     83 H83        23.3077  -26.4235  -45.3220 H         1 UNK         0.0851 
     84 H84        20.0809  -27.9081  -46.3718 H         1 UNK         0.2976 
     85 H85        20.7567  -27.8907  -40.3090 H         1 UNK         0.3116 
     86 H86        21.9239  -25.7853  -38.7415 H         1 UNK         0.0646 
     87 H87        23.2941  -25.5159  -40.8473 H         1 UNK         0.0847 
     88 H88        24.2885  -26.1808  -39.5746 H         1 UNK         0.0847 
     89 H89        23.6626  -27.2337  -40.8404 H         1 UNK         0.0847 
     90 H90        23.9284  -26.9529  -37.5425 H         1 UNK         0.3040 
     91 H91        22.9504  -29.4160  -36.3191 H         1 UNK         0.1015 
     92 H92        25.5665  -27.8534  -35.9415 H         1 UNK         0.0786 
     93 H93        24.9947  -29.1616  -34.9162 H         1 UNK         0.0786 
     94 H94        24.1009  -27.6528  -34.9792 H         1 UNK         0.0786 
     95 H95        24.6950  -28.7656  -39.1361 H         1 UNK         0.3172 
     96 H96        25.4299  -31.5321  -39.5589 H         1 UNK         0.0595 
     97 H97        27.6205  -29.3707  -39.6608 H         1 UNK         0.0839 
     98 H98        27.8079  -31.0648  -40.1231 H         1 UNK         0.0839 
     99 H99        27.5132  -30.6433  -38.4516 H         1 UNK         0.0839 
    100 H100       27.1589  -30.1568  -41.8280 H         1 UNK         0.2998 
    101 H101       26.9302  -29.7078  -43.9906 H         1 UNK         0.0822 
    102 H102       24.4209  -28.1091  -43.2052 H         1 UNK         0.0787 
    103 H103       26.0685  -27.5015  -43.2480 H         1 UNK         0.0787 
    104 H104       25.2861  -27.9976  -44.7351 H         1 UNK         0.0787 
    105 H105       23.5417  -29.5168  -44.3947 H         1 UNK         0.3055 
    106 H106       23.3902  -32.0333  -45.8364 H         1 UNK         0.1106 
    107 H107       22.0520  -30.1010  -46.5830 H         1 UNK         0.0828 
    108 H108       20.9675  -31.3825  -46.0827 H         1 UNK         0.0828 
    109 H109       21.2320  -30.0103  -45.0174 H         1 UNK         0.0828 
    110 H110       22.8919  -31.1027  -42.5063 H         1 UNK         0.2931 
    111 H111       21.1719  -33.3917  -41.8840 H         1 UNK         0.0412 
    112 H112       24.9457  -34.4709  -41.1682 H         1 UNK         0.3472 
    113 H113       24.5077  -33.2470  -42.3369 H         1 UNK         0.3472 
    114 H114       20.9210  -32.4163  -39.6817 H         1 UNK         0.0970 
    115 H115       22.2527  -31.3213  -39.9308 H         1 UNK         0.0970 
    116 H116       18.8632  -32.3674  -41.7400 H         1 UNK         0.0612 
    117 H117       18.4384  -31.7514  -40.1529 H         1 UNK         0.0612 
@<TRIPOS>BOND
     1    1    2 1    
     2    1   62 1    
     3    1   63 1    
     4    1   64 1    
     5    2    3 2    
     6    2    4 am   BACKBONE|DICT|INTERRES
     7    4    5 1    
     8    4   65 1    
     9    5    6 1    
    10    5   25 1    
    11    5   66 1    
    12    6    7 1    
    13    6   67 1    
    14    6   68 1    
    15    7    8 1    
    16    8    9 1    
    17    8   69 1    
    18    8   70 1    
    19    9   10 ar   
    20    9   14 ar   
    21   10   11 ar   
    22   10   71 1    
    23   11   12 ar   
    24   11   61 1    
    25   12   13 ar   
    26   12   72 1    
    27   13   14 ar   
    28   13   15 1    
    29   14   73 1    
    30   15   16 1    
    31   15   74 1    
    32   15   75 1    
    33   16   17 1    
    34   17   18 1    
    35   17   76 1    
    36   17   77 1    
    37   18   19 1    
    38   18   27 1    
    39   18   78 1    
    40   19   20 am   BACKBONE|DICT|INTERRES
    41   19   79 1    
    42   20   21 2    
    43   20   22 1    
    44   22   23 1    
    45   22   24 1    
    46   22   80 1    
    47   23   81 1    
    48   23   82 1    
    49   23   83 1    
    50   24   25 am   BACKBONE|DICT|INTERRES
    51   24   84 1    
    52   25   26 2    
    53   27   28 2    
    54   27   29 am   BACKBONE|DICT|INTERRES
    55   29   30 1    
    56   29   85 1    
    57   30   31 1    
    58   30   32 1    
    59   30   86 1    
    60   31   87 1    
    61   31   88 1    
    62   31   89 1    
    63   32   33 2    
    64   32   34 am   BACKBONE|DICT|INTERRES
    65   34   35 1    
    66   34   90 1    
    67   35   36 1    
    68   35   37 1    
    69   35   91 1    
    70   36   92 1    
    71   36   93 1    
    72   36   94 1    
    73   37   38 2    
    74   37   39 am   BACKBONE|DICT|INTERRES
    75   39   40 1    
    76   39   95 1    
    77   40   41 1    
    78   40   42 1    
    79   40   96 1    
    80   41   97 1    
    81   41   98 1    
    82   41   99 1    
    83   42   43 2    
    84   42   44 am   BACKBONE|DICT|INTERRES
    85   44   45 1    
    86   44  100 1    
    87   45   46 1    
    88   45   47 1    
    89   45  101 1    
    90   46  102 1    
    91   46  103 1    
    92   46  104 1    
    93   47   48 2    
    94   47   49 am   BACKBONE|DICT|INTERRES
    95   49   50 1    
    96   49  105 1    
    97   50   51 1    
    98   50   52 1    
    99   50  106 1    
   100   51  107 1    
   101   51  108 1    
   102   51  109 1    
   103   52   53 2    
   104   52   54 am   BACKBONE|DICT|INTERRES
   105   54   55 1    
   106   54  110 1    
   107   55   56 1    
   108   55   59 1    
   109   55  111 1    
   110   56   57 am   BACKBONE|DICT|INTERRES
   111   56   58 2    
   112   57  112 1    
   113   57  113 1    
   114   59   60 1    
   115   59  114 1    
   116   59  115 1    
   117   60   61 1    
   118   61  116 1    
   119   61  117 1    
@<TRIPOS>SUBSTRUCTURE
     1 UNK         1 GROUP             0       ****    0 ROOT    
