@<TRIPOS>MOLECULE
3R8
117   119    1
SMALL
USER_CHARGES


@<TRIPOS>ATOM
      1 CA         13.5411  -24.2828  -44.5479 C.3       0 UNK        -0.2013 
      2 C          14.6259  -25.0264  -45.3121 C.2       0 UNK         0.4866 
      3 O          15.3227  -24.4245  -46.1291 O.2       0 UNK        -0.5176 
      4 N          14.7759  -26.3318  -45.0534 N.am      1 UNK        -0.4884 
      5 CA         15.7820  -27.2016  -45.6790 C.3       1 UNK         0.0853 
      6 C6         15.3908  -28.6976  -45.5665 C.3       10 UNK        -0.0849 
      7 S7         15.1695  -29.2835  -43.8458 S.3       10 UNK        -0.2776 
      8 C8         16.2938  -30.7162  -43.7750 C.3       10 UNK         0.0316 
      9 C9         17.7425  -30.3369  -43.4871 C.ar      10 UNK        -0.0863 
     10 C10        18.1304  -30.0067  -42.1845 C.ar      10 UNK        -0.1009 
     11 C11        19.4779  -29.7898  -41.8780 C.ar      10 UNK        -0.0712 
     12 C12        20.4379  -29.8774  -42.8894 C.ar      10 UNK        -0.0894 
     13 C13        20.0641  -30.1945  -44.1970 C.ar      10 UNK        -0.0745 
     14 C14        18.7133  -30.4137  -44.4924 C.ar      10 UNK        -0.0972 
     15 C15        21.1287  -30.3888  -45.2681 C.3       10 UNK         0.0209 
     16 S16        21.4604  -28.8701  -46.2159 S.3       10 UNK        -0.2568 
     17 C17        22.5771  -27.9387  -45.1100 C.3       10 UNK        -0.0983 
     18 CA         21.9936  -26.5588  -44.7098 C.3       3 UNK         0.0876 
     19 N          20.7319  -26.7074  -43.9773 N.am      3 UNK        -0.4424 
     20 C          19.7713  -25.7824  -43.8798 C.2       2 UNK         0.4918 
     21 O          19.8517  -24.6423  -44.3397 O.2       2 UNK        -0.4875 
     22 CA         18.5116  -26.2185  -43.1141 C.3       2 UNK         0.0481 
     23 CB         18.2022  -25.2434  -41.9662 C.3       2 UNK        -0.1831 
     24 N          17.3163  -26.3767  -43.9456 N.am      2 UNK        -0.4498 
     25 C          17.2114  -26.9688  -45.1477 C.2       1 UNK         0.5027 
     26 O          18.1592  -27.3619  -45.8269 O.2       1 UNK        -0.4969 
     27 C          23.0438  -25.7031  -43.9620 C.2       3 UNK         0.5005 
     28 O          24.1496  -25.5338  -44.4767 O.2       3 UNK        -0.5279 
     29 N          22.7136  -25.2040  -42.7591 N.am      4 UNK        -0.4463 
     30 CA         23.4916  -24.3246  -41.8673 C.3       4 UNK         0.0283 
     31 CB         23.8594  -22.9998  -42.5641 C.3       4 UNK        -0.1875 
     32 C          24.7324  -24.9682  -41.2181 C.2       4 UNK         0.4949 
     33 O          25.1302  -24.5369  -40.1363 O.2       4 UNK        -0.5039 
     34 N          25.3019  -25.9996  -41.8528 N.am      5 UNK        -0.4663 
     35 CA         26.4380  -26.7876  -41.3639 C.3       5 UNK         0.0242 
     36 CB         26.9733  -27.6464  -42.5222 C.3       5 UNK        -0.1982 
     37 C          26.1111  -27.6787  -40.1497 C.2       5 UNK         0.5017 
     38 O          27.0405  -28.1446  -39.4899 O.2       5 UNK        -0.5012 
     39 N          24.8127  -27.9101  -39.8940 N.am      6 UNK        -0.4439 
     40 CA         24.2473  -28.7734  -38.8477 C.3       6 UNK         0.0297 
     41 CB         24.5417  -28.2071  -37.4423 C.3       6 UNK        -0.2006 
     42 C          24.6709  -30.2471  -39.0098 C.2       6 UNK         0.4892 
     43 O          25.0015  -30.9145  -38.0276 O.2       6 UNK        -0.5089 
     44 N          24.6533  -30.7178  -40.2605 N.am      7 UNK        -0.4243 
     45 CA         24.9535  -32.0822  -40.6713 C.3       7 UNK         0.0196 
     46 CB         26.4208  -32.1704  -41.1248 C.3       7 UNK        -0.2007 
     47 C          23.9989  -32.4489  -41.8111 C.2       7 UNK         0.5020 
     48 O          23.5382  -31.5562  -42.5272 O.2       7 UNK        -0.5147 
     49 N          23.7286  -33.7544  -41.9517 N.am      8 UNK        -0.4734 
     50 CA         22.8030  -34.3671  -42.9187 C.3       8 UNK         0.0238 
     51 CB         23.2871  -34.1437  -44.3686 C.3       8 UNK        -0.1912 
     52 C          21.3286  -33.9557  -42.7142 C.2       8 UNK         0.5038 
     53 O          20.5514  -33.9843  -43.6699 O.2       8 UNK        -0.5046 
     54 N          20.9694  -33.5994  -41.4726 N.am      9 UNK        -0.4200 
     55 CA         19.6264  -33.1412  -41.0818 C.3       9 UNK         0.0839 
     56 C          18.5495  -34.2610  -40.9928 C.2       9 UNK         0.5513 
     57 N          18.9063  -35.5382  -41.0611 N.am      9 UNK        -0.7519 
     58 O          17.3652  -33.9639  -40.8605 O.2       9 UNK        -0.4960 
     59 C59        19.6466  -32.2876  -39.7807 C.3       10 UNK        -0.0876 
     60 S60        20.8778  -30.9346  -39.7831 S.3       10 UNK        -0.2414 
     61 C61        19.9119  -29.5361  -40.4428 C.3       10 UNK         0.0169 
     62 H62        13.9797  -23.4715  -43.9675 H         1 UNK         0.0903 
     63 H63        12.8201  -23.8533  -45.2430 H         1 UNK         0.0903 
     64 H64        13.0024  -24.9373  -43.8627 H         1 UNK         0.0903 
     65 H65        14.1763  -26.7852  -44.3769 H         1 UNK         0.3096 
     66 H66        15.8139  -26.9542  -46.7429 H         1 UNK         0.1121 
     67 H67        16.1267  -29.3193  -46.0804 H         1 UNK         0.0849 
     68 H68        14.4526  -28.8664  -46.0973 H         1 UNK         0.0849 
     69 H69        15.9468  -31.3845  -42.9852 H         1 UNK         0.0865 
     70 H70        16.2176  -31.2924  -44.6985 H         1 UNK         0.0865 
     71 H71        17.3864  -29.9688  -41.4006 H         1 UNK         0.1346 
     72 H72        21.4839  -29.7556  -42.6430 H         1 UNK         0.1412 
     73 H73        18.4258  -30.6843  -45.4990 H         1 UNK         0.1426 
     74 H74        20.8044  -31.1657  -45.9621 H         1 UNK         0.0716 
     75 H75        22.0547  -30.7581  -44.8241 H         1 UNK         0.0716 
     76 H76        23.5189  -27.8171  -45.6485 H         1 UNK         0.0695 
     77 H77        22.8138  -28.5314  -44.2251 H         1 UNK         0.0695 
     78 H78        21.7757  -26.0145  -45.6316 H         1 UNK         0.0983 
     79 H79        20.5345  -27.6373  -43.6340 H         1 UNK         0.3095 
     80 H80        18.7039  -27.1939  -42.6672 H         1 UNK         0.0454 
     81 H81        19.0699  -25.1107  -41.3188 H         1 UNK         0.0851 
     82 H82        17.3886  -25.6101  -41.3402 H         1 UNK         0.0851 
     83 H83        17.9210  -24.2580  -42.3400 H         1 UNK         0.0851 
     84 H84        16.4472  -26.0931  -43.5189 H         1 UNK         0.2976 
     85 H85        21.7902  -25.4361  -42.4224 H         1 UNK         0.3116 
     86 H86        22.8165  -24.0796  -41.0456 H         1 UNK         0.0646 
     87 H87        24.5660  -23.1491  -43.3809 H         1 UNK         0.0847 
     88 H88        22.9764  -22.5058  -42.9696 H         1 UNK         0.0847 
     89 H89        24.3234  -22.3069  -41.8610 H         1 UNK         0.0847 
     90 H90        24.9592  -26.2075  -42.7851 H         1 UNK         0.3040 
     91 H91        27.2230  -26.0945  -41.0533 H         1 UNK         0.1015 
     92 H92        27.8453  -28.2241  -42.2116 H         1 UNK         0.0786 
     93 H93        27.2807  -27.0281  -43.3659 H         1 UNK         0.0786 
     94 H94        26.2243  -28.3545  -42.8797 H         1 UNK         0.0786 
     95 H95        24.1457  -27.4680  -40.5098 H         1 UNK         0.3172 
     96 H96        23.1653  -28.7534  -38.9870 H         1 UNK         0.0595 
     97 H97        25.6044  -28.2491  -37.2015 H         1 UNK         0.0839 
     98 H98        24.0135  -28.7746  -36.6752 H         1 UNK         0.0839 
     99 H99        24.2191  -27.1695  -37.3568 H         1 UNK         0.0839 
    100 H100       24.3010  -30.1327  -41.0070 H         1 UNK         0.2998 
    101 H101       24.7827  -32.7667  -39.8374 H         1 UNK         0.0822 
    102 H102       26.6753  -33.1836  -41.4383 H         1 UNK         0.0787 
    103 H103       26.6219  -31.5059  -41.9663 H         1 UNK         0.0787 
    104 H104       27.1006  -31.8995  -40.3166 H         1 UNK         0.0787 
    105 H105       24.1751  -34.4010  -41.3145 H         1 UNK         0.3055 
    106 H106       22.8342  -35.4415  -42.7300 H         1 UNK         0.1106 
    107 H107       24.3274  -34.4443  -44.4915 H         1 UNK         0.0828 
    108 H108       22.6971  -34.7307  -45.0734 H         1 UNK         0.0828 
    109 H109       23.2014  -33.0991  -44.6690 H         1 UNK         0.0828 
    110 H110       21.6700  -33.5950  -40.7476 H         1 UNK         0.2931 
    111 H111       19.2818  -32.4959  -41.8885 H         1 UNK         0.0412 
    112 H112       19.8741  -35.7939  -41.1714 H         1 UNK         0.3472 
    113 H113       18.1976  -36.2531  -41.0046 H         1 UNK         0.3472 
    114 H114       18.6602  -31.8597  -39.5917 H         1 UNK         0.0970 
    115 H115       19.8628  -32.9247  -38.9214 H         1 UNK         0.0970 
    116 H116       19.0516  -29.3525  -39.7974 H         1 UNK         0.0612 
    117 H117       20.5247  -28.6344  -40.4067 H         1 UNK         0.0612 
@<TRIPOS>BOND
     1    1    2 1    
     2    1   62 1    
     3    1   63 1    
     4    1   64 1    
     5    2    3 2    
     6    2    4 am   BACKBONE|DICT|INTERRES
     7    4    5 1    
     8    4   65 1    
     9    5    6 1    
    10    5   25 1    
    11    5   66 1    
    12    6    7 1    
    13    6   67 1    
    14    6   68 1    
    15    7    8 1    
    16    8    9 1    
    17    8   69 1    
    18    8   70 1    
    19    9   10 ar   
    20    9   14 ar   
    21   10   11 ar   
    22   10   71 1    
    23   11   12 ar   
    24   11   61 1    
    25   12   13 ar   
    26   12   72 1    
    27   13   14 ar   
    28   13   15 1    
    29   14   73 1    
    30   15   16 1    
    31   15   74 1    
    32   15   75 1    
    33   16   17 1    
    34   17   18 1    
    35   17   76 1    
    36   17   77 1    
    37   18   19 1    
    38   18   27 1    
    39   18   78 1    
    40   19   20 am   BACKBONE|DICT|INTERRES
    41   19   79 1    
    42   20   21 2    
    43   20   22 1    
    44   22   23 1    
    45   22   24 1    
    46   22   80 1    
    47   23   81 1    
    48   23   82 1    
    49   23   83 1    
    50   24   25 am   BACKBONE|DICT|INTERRES
    51   24   84 1    
    52   25   26 2    
    53   27   28 2    
    54   27   29 am   BACKBONE|DICT|INTERRES
    55   29   30 1    
    56   29   85 1    
    57   30   31 1    
    58   30   32 1    
    59   30   86 1    
    60   31   87 1    
    61   31   88 1    
    62   31   89 1    
    63   32   33 2    
    64   32   34 am   BACKBONE|DICT|INTERRES
    65   34   35 1    
    66   34   90 1    
    67   35   36 1    
    68   35   37 1    
    69   35   91 1    
    70   36   92 1    
    71   36   93 1    
    72   36   94 1    
    73   37   38 2    
    74   37   39 am   BACKBONE|DICT|INTERRES
    75   39   40 1    
    76   39   95 1    
    77   40   41 1    
    78   40   42 1    
    79   40   96 1    
    80   41   97 1    
    81   41   98 1    
    82   41   99 1    
    83   42   43 2    
    84   42   44 am   BACKBONE|DICT|INTERRES
    85   44   45 1    
    86   44  100 1    
    87   45   46 1    
    88   45   47 1    
    89   45  101 1    
    90   46  102 1    
    91   46  103 1    
    92   46  104 1    
    93   47   48 2    
    94   47   49 am   BACKBONE|DICT|INTERRES
    95   49   50 1    
    96   49  105 1    
    97   50   51 1    
    98   50   52 1    
    99   50  106 1    
   100   51  107 1    
   101   51  108 1    
   102   51  109 1    
   103   52   53 2    
   104   52   54 am   BACKBONE|DICT|INTERRES
   105   54   55 1    
   106   54  110 1    
   107   55   56 1    
   108   55   59 1    
   109   55  111 1    
   110   56   57 am   BACKBONE|DICT|INTERRES
   111   56   58 2    
   112   57  112 1    
   113   57  113 1    
   114   59   60 1    
   115   59  114 1    
   116   59  115 1    
   117   60   61 1    
   118   61  116 1    
   119   61  117 1    
@<TRIPOS>SUBSTRUCTURE
     1 UNK         1 GROUP             0       ****    0 ROOT    
