@<TRIPOS>MOLECULE
3R8
117   119    1
SMALL
USER_CHARGES


@<TRIPOS>ATOM
      1 CA         14.6046  -22.7755  -46.3509 C.3       0 UNK        -0.2013 
      2 C          14.5398  -24.0926  -45.5909 C.2       0 UNK         0.4866 
      3 O          13.4464  -24.5170  -45.2160 O.2       0 UNK        -0.5176 
      4 N          15.7038  -24.7259  -45.3797 N.am      1 UNK        -0.4884 
      5 CA         15.9474  -25.9861  -44.6539 C.3       1 UNK         0.0853 
      6 C6         15.0791  -27.1816  -45.1396 C.3       10 UNK        -0.0849 
      7 S7         15.3306  -27.5549  -46.9066 S.3       10 UNK        -0.2776 
      8 C8         15.8036  -29.3148  -46.8549 C.3       10 UNK         0.0316 
      9 C9         17.2091  -29.5498  -46.3114 C.ar      10 UNK        -0.0863 
     10 C10        17.4234  -30.4768  -45.2864 C.ar      10 UNK        -0.1009 
     11 C11        18.7167  -30.7809  -44.8457 C.ar      10 UNK        -0.0712 
     12 C12        19.8044  -30.1189  -45.4348 C.ar      10 UNK        -0.0894 
     13 C13        19.6031  -29.1781  -46.4503 C.ar      10 UNK        -0.0745 
     14 C14        18.3053  -28.9009  -46.8844 C.ar      10 UNK        -0.0972 
     15 C15        20.7837  -28.4919  -47.1221 C.3       10 UNK         0.0209 
     16 S16        21.1228  -26.8552  -46.4012 S.3       10 UNK        -0.2568 
     17 C17        21.9876  -27.3107  -44.8632 C.3       10 UNK        -0.0983 
     18 CA         21.2638  -26.8031  -43.5916 C.3       3 UNK         0.0876 
     19 N          19.9021  -27.3333  -43.4761 N.am      3 UNK        -0.4424 
     20 C          18.9507  -26.8081  -42.6964 C.2       2 UNK         0.4918 
     21 O          19.1056  -25.7856  -42.0242 O.2       2 UNK        -0.4875 
     22 CA         17.6050  -27.5510  -42.6543 C.3       2 UNK         0.0481 
     23 CB         17.6433  -28.6647  -41.5979 C.3       2 UNK        -0.1831 
     24 N          16.5270  -26.6222  -42.3038 N.am      2 UNK        -0.4498 
     25 C          15.8325  -25.8130  -43.1170 C.2       1 UNK         0.5027 
     26 O          15.0842  -24.9558  -42.6460 O.2       1 UNK        -0.4969 
     27 C          22.0645  -27.1544  -42.3220 C.2       3 UNK         0.5005 
     28 O          22.6736  -28.2227  -42.2702 O.2       3 UNK        -0.5279 
     29 N          22.0405  -26.2625  -41.3214 N.am      4 UNK        -0.4463 
     30 CA         22.5948  -26.4566  -39.9734 C.3       4 UNK         0.0283 
     31 CB         22.3717  -25.1772  -39.1512 C.3       4 UNK        -0.1875 
     32 C          24.0749  -26.8801  -39.9048 C.2       4 UNK         0.4949 
     33 O          24.4684  -27.5297  -38.9361 O.2       4 UNK        -0.5039 
     34 N          24.8651  -26.5061  -40.9186 N.am      5 UNK        -0.4663 
     35 CA         26.2768  -26.8695  -41.0442 C.3       5 UNK         0.0242 
     36 CB         26.9853  -25.8060  -41.8995 C.3       5 UNK        -0.1982 
     37 C          26.5043  -28.2699  -41.6435 C.2       5 UNK         0.5017 
     38 O          27.6058  -28.8019  -41.4945 O.2       5 UNK        -0.5012 
     39 N          25.5017  -28.8464  -42.3238 N.am      6 UNK        -0.4439 
     40 CA         25.6194  -30.1071  -43.0620 C.3       6 UNK         0.0297 
     41 CB         24.6826  -30.0798  -44.2840 C.3       6 UNK        -0.2006 
     42 C          25.3907  -31.3265  -42.1513 C.2       6 UNK         0.4892 
     43 O          24.4471  -32.0913  -42.3630 O.2       6 UNK        -0.5089 
     44 N          26.2809  -31.4841  -41.1608 N.am      7 UNK        -0.4243 
     45 CA         26.3816  -32.6005  -40.2141 C.3       7 UNK         0.0196 
     46 CB         26.9596  -33.8448  -40.9269 C.3       7 UNK        -0.2007 
     47 C          25.0564  -32.8647  -39.4740 C.2       7 UNK         0.5020 
     48 O          24.6635  -32.0509  -38.6377 O.2       7 UNK        -0.5147 
     49 N          24.3838  -33.9767  -39.8029 N.am      8 UNK        -0.4734 
     50 CA         23.1027  -34.4056  -39.2313 C.3       8 UNK         0.0238 
     51 CB         22.7520  -35.8002  -39.7753 C.3       8 UNK        -0.1912 
     52 C          21.9362  -33.4282  -39.4684 C.2       8 UNK         0.5038 
     53 O          20.9828  -33.4444  -38.6884 O.2       8 UNK        -0.5046 
     54 N          22.0307  -32.5943  -40.5125 N.am      9 UNK        -0.4200 
     55 CA         21.0957  -31.4897  -40.7735 C.3       9 UNK         0.0839 
     56 C          21.2885  -30.2651  -39.8318 C.2       9 UNK         0.5513 
     57 N          22.3515  -30.1828  -39.0387 N.am      9 UNK        -0.7519 
     58 O          20.4365  -29.3820  -39.8048 O.2       9 UNK        -0.4960 
     59 C59        21.1210  -31.0612  -42.2614 C.3       10 UNK        -0.0876 
     60 S60        20.5743  -32.3917  -43.3817 S.3       10 UNK        -0.2414 
     61 C61        18.8692  -31.8611  -43.7683 C.3       10 UNK         0.0169 
     62 H62        14.0029  -22.8361  -47.2575 H         1 UNK         0.0903 
     63 H63        14.2113  -21.9675  -45.7345 H         1 UNK         0.0903 
     64 H64        15.6236  -22.5168  -46.6384 H         1 UNK         0.0903 
     65 H65        16.5453  -24.2826  -45.7214 H         1 UNK         0.3096 
     66 H66        16.9878  -26.2149  -44.8838 H         1 UNK         0.1121 
     67 H67        14.0179  -26.9918  -44.9747 H         1 UNK         0.0849 
     68 H68        15.3002  -28.0777  -44.5578 H         1 UNK         0.0849 
     69 H69        15.0600  -29.8679  -46.2786 H         1 UNK         0.0865 
     70 H70        15.7574  -29.7147  -47.8687 H         1 UNK         0.0865 
     71 H71        16.5797  -30.9954  -44.8510 H         1 UNK         0.1346 
     72 H72        20.8155  -30.3455  -45.1297 H         1 UNK         0.1412 
     73 H73        18.1490  -28.1918  -47.6863 H         1 UNK         0.1426 
     74 H74        20.5728  -28.3651  -48.1851 H         1 UNK         0.0716 
     75 H75        21.6777  -29.1154  -47.0683 H         1 UNK         0.0716 
     76 H76        22.9939  -26.8910  -44.9175 H         1 UNK         0.0695 
     77 H77        22.1182  -28.3920  -44.8274 H         1 UNK         0.0695 
     78 H78        21.2048  -25.7145  -43.6642 H         1 UNK         0.0983 
     79 H79        19.7035  -28.1622  -44.0184 H         1 UNK         0.3095 
     80 H80        17.4219  -28.0159  -43.6226 H         1 UNK         0.0454 
     81 H81        17.8436  -28.2717  -40.6000 H         1 UNK         0.0851 
     82 H82        18.4259  -29.3883  -41.8182 H         1 UNK         0.0851 
     83 H83        16.7011  -29.2116  -41.5617 H         1 UNK         0.0851 
     84 H84        16.4254  -26.4592  -41.3128 H         1 UNK         0.2976 
     85 H85        21.4658  -25.4396  -41.4464 H         1 UNK         0.3116 
     86 H86        22.0166  -27.2552  -39.5081 H         1 UNK         0.0646 
     87 H87        22.8879  -24.3216  -39.5883 H         1 UNK         0.0847 
     88 H88        22.7442  -25.2965  -38.1326 H         1 UNK         0.0847 
     89 H89        21.3122  -24.9309  -39.0775 H         1 UNK         0.0847 
     90 H90        24.4576  -25.9702  -41.6710 H         1 UNK         0.3040 
     91 H91        26.7339  -26.8655  -40.0518 H         1 UNK         0.1015 
     92 H92        26.5762  -25.7607  -42.9097 H         1 UNK         0.0786 
     93 H93        28.0509  -26.0226  -41.9893 H         1 UNK         0.0786 
     94 H94        26.8955  -24.8146  -41.4549 H         1 UNK         0.0786 
     95 H95        24.5758  -28.4240  -42.3033 H         1 UNK         0.3172 
     96 H96        26.6355  -30.1945  -43.4528 H         1 UNK         0.0595 
     97 H97        24.7860  -30.9910  -44.8744 H         1 UNK         0.0839 
     98 H98        24.9109  -29.2404  -44.9407 H         1 UNK         0.0839 
     99 H99        23.6374  -30.0010  -43.9949 H         1 UNK         0.0839 
    100 H100       26.9760  -30.7521  -41.0578 H         1 UNK         0.2998 
    101 H101       27.0983  -32.2959  -39.4499 H         1 UNK         0.0822 
    102 H102       27.0645  -34.6836  -40.2371 H         1 UNK         0.0787 
    103 H103       26.3378  -34.1717  -41.7612 H         1 UNK         0.0787 
    104 H104       27.9530  -33.6368  -41.3247 H         1 UNK         0.0787 
    105 H105       24.7729  -34.5619  -40.5283 H         1 UNK         0.3055 
    106 H106       23.2365  -34.4814  -38.1499 H         1 UNK         0.1106 
    107 H107       21.8173  -36.1635  -39.3454 H         1 UNK         0.0828 
    108 H108       22.6294  -35.7909  -40.8591 H         1 UNK         0.0828 
    109 H109       23.5235  -36.5299  -39.5287 H         1 UNK         0.0828 
    110 H110       22.8550  -32.6299  -41.1029 H         1 UNK         0.2931 
    111 H111       20.0885  -31.8571  -40.5669 H         1 UNK         0.0412 
    112 H112       23.0629  -30.9051  -39.0321 H         1 UNK         0.3472 
    113 H113       22.4613  -29.3776  -38.4443 H         1 UNK         0.3472 
    114 H114       22.1332  -30.7759  -42.5408 H         1 UNK         0.0970 
    115 H115       20.5100  -30.1746  -42.4310 H         1 UNK         0.0970 
    116 H116       18.3267  -32.7477  -44.0997 H         1 UNK         0.0612 
    117 H117       18.3797  -31.5343  -42.8505 H         1 UNK         0.0612 
@<TRIPOS>BOND
     1    1    2 1    
     2    1   62 1    
     3    1   63 1    
     4    1   64 1    
     5    2    3 2    
     6    2    4 am   BACKBONE|DICT|INTERRES
     7    4    5 1    
     8    4   65 1    
     9    5    6 1    
    10    5   25 1    
    11    5   66 1    
    12    6    7 1    
    13    6   67 1    
    14    6   68 1    
    15    7    8 1    
    16    8    9 1    
    17    8   69 1    
    18    8   70 1    
    19    9   10 ar   
    20    9   14 ar   
    21   10   11 ar   
    22   10   71 1    
    23   11   12 ar   
    24   11   61 1    
    25   12   13 ar   
    26   12   72 1    
    27   13   14 ar   
    28   13   15 1    
    29   14   73 1    
    30   15   16 1    
    31   15   74 1    
    32   15   75 1    
    33   16   17 1    
    34   17   18 1    
    35   17   76 1    
    36   17   77 1    
    37   18   19 1    
    38   18   27 1    
    39   18   78 1    
    40   19   20 am   BACKBONE|DICT|INTERRES
    41   19   79 1    
    42   20   21 2    
    43   20   22 1    
    44   22   23 1    
    45   22   24 1    
    46   22   80 1    
    47   23   81 1    
    48   23   82 1    
    49   23   83 1    
    50   24   25 am   BACKBONE|DICT|INTERRES
    51   24   84 1    
    52   25   26 2    
    53   27   28 2    
    54   27   29 am   BACKBONE|DICT|INTERRES
    55   29   30 1    
    56   29   85 1    
    57   30   31 1    
    58   30   32 1    
    59   30   86 1    
    60   31   87 1    
    61   31   88 1    
    62   31   89 1    
    63   32   33 2    
    64   32   34 am   BACKBONE|DICT|INTERRES
    65   34   35 1    
    66   34   90 1    
    67   35   36 1    
    68   35   37 1    
    69   35   91 1    
    70   36   92 1    
    71   36   93 1    
    72   36   94 1    
    73   37   38 2    
    74   37   39 am   BACKBONE|DICT|INTERRES
    75   39   40 1    
    76   39   95 1    
    77   40   41 1    
    78   40   42 1    
    79   40   96 1    
    80   41   97 1    
    81   41   98 1    
    82   41   99 1    
    83   42   43 2    
    84   42   44 am   BACKBONE|DICT|INTERRES
    85   44   45 1    
    86   44  100 1    
    87   45   46 1    
    88   45   47 1    
    89   45  101 1    
    90   46  102 1    
    91   46  103 1    
    92   46  104 1    
    93   47   48 2    
    94   47   49 am   BACKBONE|DICT|INTERRES
    95   49   50 1    
    96   49  105 1    
    97   50   51 1    
    98   50   52 1    
    99   50  106 1    
   100   51  107 1    
   101   51  108 1    
   102   51  109 1    
   103   52   53 2    
   104   52   54 am   BACKBONE|DICT|INTERRES
   105   54   55 1    
   106   54  110 1    
   107   55   56 1    
   108   55   59 1    
   109   55  111 1    
   110   56   57 am   BACKBONE|DICT|INTERRES
   111   56   58 2    
   112   57  112 1    
   113   57  113 1    
   114   59   60 1    
   115   59  114 1    
   116   59  115 1    
   117   60   61 1    
   118   61  116 1    
   119   61  117 1    
@<TRIPOS>SUBSTRUCTURE
     1 UNK         1 GROUP             0       ****    0 ROOT    
