@<TRIPOS>MOLECULE
3R8
117   119    1
SMALL
USER_CHARGES


@<TRIPOS>ATOM
      1 CA         19.5629  -28.3488  -38.2980 C.3       0 UNK        -0.2013 
      2 C          19.2231  -28.5399  -39.7691 C.2       0 UNK         0.4866 
      3 O          18.0490  -28.4650  -40.1286 O.2       0 UNK        -0.5176 
      4 N          20.2359  -28.7926  -40.6137 N.am      1 UNK        -0.4884 
      5 CA         20.1247  -28.8829  -42.0780 C.3       1 UNK         0.0853 
      6 C6         21.4932  -29.1615  -42.7631 C.3       10 UNK        -0.0849 
      7 S7         22.0475  -30.8921  -42.5874 S.3       10 UNK        -0.2776 
      8 C8         21.9698  -31.5624  -44.2856 C.3       10 UNK         0.0316 
      9 C9         20.6313  -31.2550  -44.9331 C.ar      10 UNK        -0.0863 
     10 C10        19.4543  -31.6689  -44.3163 C.ar      10 UNK        -0.1009 
     11 C11        18.2150  -31.2334  -44.7813 C.ar      10 UNK        -0.0712 
     12 C12        18.1657  -30.3902  -45.8987 C.ar      10 UNK        -0.0894 
     13 C13        19.3405  -29.9901  -46.5540 C.ar      10 UNK        -0.0745 
     14 C14        20.5671  -30.4764  -46.0878 C.ar      10 UNK        -0.0972 
     15 C15        19.2269  -29.0202  -47.7366 C.3       10 UNK         0.0209 
     16 S16        20.7786  -28.3463  -48.4594 S.3       10 UNK        -0.2568 
     17 C17        21.7517  -27.5307  -47.1311 C.3       10 UNK        -0.0983 
     18 CA         21.1040  -26.3237  -46.4054 C.3       3 UNK         0.0876 
     19 N          19.9143  -26.7315  -45.6668 N.am      3 UNK        -0.4424 
     20 C          18.9269  -25.9389  -45.2325 C.2       2 UNK         0.4918 
     21 O          18.8322  -24.7443  -45.5148 O.2       2 UNK        -0.4875 
     22 CA         17.9210  -26.5827  -44.2580 C.3       2 UNK         0.0481 
     23 CB         16.6519  -27.0339  -44.9958 C.3       2 UNK        -0.1831 
     24 N          18.4990  -27.7121  -43.5145 N.am      2 UNK        -0.4498 
     25 C          19.5239  -27.5881  -42.6575 C.2       1 UNK         0.5027 
     26 O          20.0413  -26.5068  -42.3685 O.2       1 UNK        -0.4969 
     27 C          22.1107  -25.6431  -45.4398 C.2       3 UNK         0.5005 
     28 O          23.1889  -26.1859  -45.1869 O.2       3 UNK        -0.5279 
     29 N          21.7304  -24.4762  -44.8995 N.am      4 UNK        -0.4463 
     30 CA         22.5502  -23.5456  -44.1092 C.3       4 UNK         0.0283 
     31 CB         23.5824  -22.8543  -45.0260 C.3       4 UNK        -0.1875 
     32 C          23.2007  -24.1335  -42.8353 C.2       4 UNK         0.4949 
     33 O          24.2992  -23.7112  -42.4705 O.2       4 UNK        -0.5039 
     34 N          22.5094  -25.0674  -42.1634 N.am      5 UNK        -0.4663 
     35 CA         22.8756  -25.6832  -40.8780 C.3       5 UNK         0.0242 
     36 CB         22.7801  -24.6488  -39.7361 C.3       5 UNK        -0.1982 
     37 C          24.2199  -26.4412  -40.8914 C.2       5 UNK         0.5017 
     38 O          24.9438  -26.4218  -39.8944 O.2       5 UNK        -0.5012 
     39 N          24.5224  -27.1099  -42.0147 N.am      6 UNK        -0.4439 
     40 CA         25.7137  -27.9465  -42.2158 C.3       6 UNK         0.0297 
     41 CB         25.7159  -28.4664  -43.6627 C.3       6 UNK        -0.2006 
     42 C          25.8473  -29.1250  -41.2268 C.2       6 UNK         0.4892 
     43 O          26.9671  -29.4844  -40.8613 O.2       6 UNK        -0.5089 
     44 N          24.7088  -29.6894  -40.8133 N.am      7 UNK        -0.4243 
     45 CA         24.5484  -30.7549  -39.8262 C.3       7 UNK         0.0196 
     46 CB         24.9604  -32.1212  -40.4195 C.3       7 UNK        -0.2007 
     47 C          23.0915  -30.6876  -39.3354 C.2       7 UNK         0.5020 
     48 O          22.5801  -29.5784  -39.1651 O.2       7 UNK        -0.5147 
     49 N          22.4247  -31.8376  -39.1745 N.am      8 UNK        -0.4734 
     50 CA         20.9933  -31.9466  -38.8812 C.3       8 UNK         0.0238 
     51 CB         20.8096  -32.5034  -37.4599 C.3       8 UNK        -0.1912 
     52 C          20.3137  -32.8608  -39.9120 C.2       8 UNK         0.5038 
     53 O          20.9482  -33.8084  -40.3835 O.2       8 UNK        -0.5046 
     54 N          19.0353  -32.5853  -40.2136 N.am      9 UNK        -0.4200 
     55 CA         18.1670  -33.4411  -41.0417 C.3       9 UNK         0.0839 
     56 C          17.8930  -34.8175  -40.3744 C.2       9 UNK         0.5513 
     57 N          17.7852  -35.8791  -41.1615 N.am      9 UNK        -0.7519 
     58 O          17.7311  -34.9209  -39.1600 O.2       9 UNK        -0.4960 
     59 C59        16.8216  -32.7506  -41.4069 C.3       10 UNK        -0.0876 
     60 S60        16.9895  -31.1589  -42.2910 S.3       10 UNK        -0.2414 
     61 C61        16.9489  -31.6595  -44.0484 C.3       10 UNK         0.0169 
     62 H62        19.2279  -29.2064  -37.7156 H         1 UNK         0.0903 
     63 H63        20.6323  -28.2189  -38.1373 H         1 UNK         0.0903 
     64 H64        19.0615  -27.4615  -37.9122 H         1 UNK         0.0903 
     65 H65        21.1679  -28.9149  -40.2249 H         1 UNK         0.3096 
     66 H66        19.4459  -29.7053  -42.3005 H         1 UNK         0.1121 
     67 H67        21.4687  -28.9174  -43.8264 H         1 UNK         0.0849 
     68 H68        22.2569  -28.5113  -42.3423 H         1 UNK         0.0849 
     69 H69        22.7943  -31.1473  -44.8674 H         1 UNK         0.0865 
     70 H70        22.1210  -32.6422  -44.2542 H         1 UNK         0.0865 
     71 H71        19.5154  -32.2776  -43.4280 H         1 UNK         0.1346 
     72 H72        17.2076  -30.0423  -46.2596 H         1 UNK         0.1412 
     73 H73        21.4868  -30.2316  -46.5932 H         1 UNK         0.1426 
     74 H74        18.5820  -28.1848  -47.4658 H         1 UNK         0.0716 
     75 H75        18.7022  -29.5420  -48.5380 H         1 UNK         0.0716 
     76 H76        22.6656  -27.1926  -47.6239 H         1 UNK         0.0695 
     77 H77        22.0938  -28.2605  -46.4008 H         1 UNK         0.0695 
     78 H78        20.8177  -25.5865  -47.1588 H         1 UNK         0.0983 
     79 H79        19.8948  -27.6978  -45.3795 H         1 UNK         0.3095 
     80 H80        17.6350  -25.8201  -43.5306 H         1 UNK         0.0454 
     81 H81        16.8673  -27.7686  -45.7695 H         1 UNK         0.0851 
     82 H82        16.1670  -26.1868  -45.4830 H         1 UNK         0.0851 
     83 H83        15.9253  -27.4694  -44.3095 H         1 UNK         0.0851 
     84 H84        18.1067  -28.6276  -43.6882 H         1 UNK         0.2976 
     85 H85        20.7847  -24.1668  -45.1024 H         1 UNK         0.3116 
     86 H86        21.8639  -22.7751  -43.7552 H         1 UNK         0.0646 
     87 H87        24.3362  -23.5571  -45.3828 H         1 UNK         0.0847 
     88 H88        24.1058  -22.0548  -44.5000 H         1 UNK         0.0847 
     89 H89        23.1045  -22.4041  -45.8959 H         1 UNK         0.0847 
     90 H90        21.6105  -25.3679  -42.5325 H         1 UNK         0.3040 
     91 H91        22.1185  -26.4428  -40.6793 H         1 UNK         0.1015 
     92 H92        21.8058  -24.1602  -39.7253 H         1 UNK         0.0786 
     93 H93        23.5435  -23.8753  -39.8256 H         1 UNK         0.0786 
     94 H94        22.9111  -25.1247  -38.7635 H         1 UNK         0.0786 
     95 H95        23.9145  -26.9879  -42.8142 H         1 UNK         0.3172 
     96 H96        26.5868  -27.3050  -42.0809 H         1 UNK         0.0595 
     97 H97        24.8481  -29.0952  -43.8673 H         1 UNK         0.0839 
     98 H98        26.6062  -29.0647  -43.8616 H         1 UNK         0.0839 
     99 H99        25.7109  -27.6458  -44.3809 H         1 UNK         0.0839 
    100 H100       23.8358  -29.2988  -41.1380 H         1 UNK         0.2998 
    101 H101       25.1864  -30.5321  -38.9689 H         1 UNK         0.0822 
    102 H102       25.9885  -32.1024  -40.7809 H         1 UNK         0.0787 
    103 H103       24.9074  -32.9120  -39.6705 H         1 UNK         0.0787 
    104 H104       24.3239  -32.4088  -41.2572 H         1 UNK         0.0787 
    105 H105       22.8749  -32.7046  -39.4363 H         1 UNK         0.3055 
    106 H106       20.5192  -30.9692  -38.9337 H         1 UNK         0.1106 
    107 H107       19.7523  -32.6010  -37.2099 H         1 UNK         0.0828 
    108 H108       21.2628  -33.4896  -37.3517 H         1 UNK         0.0828 
    109 H109       21.2591  -31.8446  -36.7167 H         1 UNK         0.0828 
    110 H110       18.5794  -31.7994  -39.7758 H         1 UNK         0.2931 
    111 H111       18.7037  -33.6416  -41.9686 H         1 UNK         0.0412 
    112 H112       17.9077  -35.8048  -42.1596 H         1 UNK         0.3472 
    113 H113       17.5905  -36.7780  -40.7477 H         1 UNK         0.3472 
    114 H114       16.1982  -33.4171  -42.0060 H         1 UNK         0.0970 
    115 H115       16.2472  -32.5579  -40.4987 H         1 UNK         0.0970 
    116 H116       16.8404  -32.7408  -44.1380 H         1 UNK         0.0612 
    117 H117       16.0658  -31.2199  -44.5144 H         1 UNK         0.0612 
@<TRIPOS>BOND
     1    1    2 1    
     2    1   62 1    
     3    1   63 1    
     4    1   64 1    
     5    2    3 2    
     6    2    4 am   BACKBONE|DICT|INTERRES
     7    4    5 1    
     8    4   65 1    
     9    5    6 1    
    10    5   25 1    
    11    5   66 1    
    12    6    7 1    
    13    6   67 1    
    14    6   68 1    
    15    7    8 1    
    16    8    9 1    
    17    8   69 1    
    18    8   70 1    
    19    9   10 ar   
    20    9   14 ar   
    21   10   11 ar   
    22   10   71 1    
    23   11   12 ar   
    24   11   61 1    
    25   12   13 ar   
    26   12   72 1    
    27   13   14 ar   
    28   13   15 1    
    29   14   73 1    
    30   15   16 1    
    31   15   74 1    
    32   15   75 1    
    33   16   17 1    
    34   17   18 1    
    35   17   76 1    
    36   17   77 1    
    37   18   19 1    
    38   18   27 1    
    39   18   78 1    
    40   19   20 am   BACKBONE|DICT|INTERRES
    41   19   79 1    
    42   20   21 2    
    43   20   22 1    
    44   22   23 1    
    45   22   24 1    
    46   22   80 1    
    47   23   81 1    
    48   23   82 1    
    49   23   83 1    
    50   24   25 am   BACKBONE|DICT|INTERRES
    51   24   84 1    
    52   25   26 2    
    53   27   28 2    
    54   27   29 am   BACKBONE|DICT|INTERRES
    55   29   30 1    
    56   29   85 1    
    57   30   31 1    
    58   30   32 1    
    59   30   86 1    
    60   31   87 1    
    61   31   88 1    
    62   31   89 1    
    63   32   33 2    
    64   32   34 am   BACKBONE|DICT|INTERRES
    65   34   35 1    
    66   34   90 1    
    67   35   36 1    
    68   35   37 1    
    69   35   91 1    
    70   36   92 1    
    71   36   93 1    
    72   36   94 1    
    73   37   38 2    
    74   37   39 am   BACKBONE|DICT|INTERRES
    75   39   40 1    
    76   39   95 1    
    77   40   41 1    
    78   40   42 1    
    79   40   96 1    
    80   41   97 1    
    81   41   98 1    
    82   41   99 1    
    83   42   43 2    
    84   42   44 am   BACKBONE|DICT|INTERRES
    85   44   45 1    
    86   44  100 1    
    87   45   46 1    
    88   45   47 1    
    89   45  101 1    
    90   46  102 1    
    91   46  103 1    
    92   46  104 1    
    93   47   48 2    
    94   47   49 am   BACKBONE|DICT|INTERRES
    95   49   50 1    
    96   49  105 1    
    97   50   51 1    
    98   50   52 1    
    99   50  106 1    
   100   51  107 1    
   101   51  108 1    
   102   51  109 1    
   103   52   53 2    
   104   52   54 am   BACKBONE|DICT|INTERRES
   105   54   55 1    
   106   54  110 1    
   107   55   56 1    
   108   55   59 1    
   109   55  111 1    
   110   56   57 am   BACKBONE|DICT|INTERRES
   111   56   58 2    
   112   57  112 1    
   113   57  113 1    
   114   59   60 1    
   115   59  114 1    
   116   59  115 1    
   117   60   61 1    
   118   61  116 1    
   119   61  117 1    
@<TRIPOS>SUBSTRUCTURE
     1 UNK         1 GROUP             0       ****    0 ROOT    
