@<TRIPOS>MOLECULE
3R8
117   119    1
SMALL
USER_CHARGES


@<TRIPOS>ATOM
      1 CA         15.2470  -23.9519  -41.1453 C.3       0 UNK        -0.2013 
      2 C          15.8040  -24.0610  -42.5569 C.2       0 UNK         0.4866 
      3 O          15.9849  -23.0420  -43.2248 O.2       0 UNK        -0.5176 
      4 N          16.0678  -25.2891  -43.0188 N.am      1 UNK        -0.4884 
      5 CA         16.6604  -25.5861  -44.3283 C.3       1 UNK         0.0853 
      6 C6         16.5329  -27.0872  -44.6924 C.3       10 UNK        -0.0849 
      7 S7         14.8246  -27.7292  -44.5759 S.3       10 UNK        -0.2776 
      8 C8         14.8547  -29.1563  -45.7167 C.3       10 UNK         0.0316 
      9 C9         16.1040  -30.0134  -45.5532 C.ar      10 UNK        -0.0863 
     10 C10        16.3613  -30.6729  -44.3453 C.ar      10 UNK        -0.1009 
     11 C11        17.5503  -31.3878  -44.1719 C.ar      10 UNK        -0.0712 
     12 C12        18.4565  -31.4855  -45.2284 C.ar      10 UNK        -0.0894 
     13 C13        18.2237  -30.8071  -46.4268 C.ar      10 UNK        -0.0745 
     14 C14        17.0367  -30.0899  -46.5933 C.ar      10 UNK        -0.0972 
     15 C15        19.3117  -30.7594  -47.4890 C.3       10 UNK         0.0209 
     16 S16        20.2832  -29.2145  -47.3814 S.3       10 UNK        -0.2568 
     17 C17        20.7713  -29.1998  -45.6188 C.3       10 UNK        -0.0983 
     18 CA         21.4743  -27.9045  -45.1578 C.3       3 UNK         0.0876 
     19 N          20.6913  -26.7168  -45.5052 N.am      3 UNK        -0.4424 
     20 C          21.0976  -25.4458  -45.4007 C.2       2 UNK         0.4918 
     21 O          22.2215  -25.1145  -45.0225 O.2       2 UNK        -0.4875 
     22 CA         20.0543  -24.3614  -45.7401 C.3       2 UNK         0.0481 
     23 CB         20.2317  -23.8891  -47.1916 C.3       2 UNK        -0.1831 
     24 N          18.6564  -24.7730  -45.5284 N.am      2 UNK        -0.4498 
     25 C          18.1467  -25.1721  -44.3529 C.2       1 UNK         0.5027 
     26 O          18.8227  -25.2814  -43.3273 O.2       1 UNK        -0.4969 
     27 C          21.7764  -28.0164  -43.6460 C.2       3 UNK         0.5005 
     28 O          22.7186  -28.7204  -43.2852 O.2       3 UNK        -0.5279 
     29 N          21.0012  -27.3351  -42.7831 N.am      4 UNK        -0.4463 
     30 CA         21.1107  -27.3942  -41.3175 C.3       4 UNK         0.0283 
     31 CB         19.9132  -26.6690  -40.6832 C.3       4 UNK        -0.1875 
     32 C          22.4381  -26.8614  -40.7414 C.2       4 UNK         0.4949 
     33 O          22.6982  -27.0574  -39.5544 O.2       4 UNK        -0.5039 
     34 N          23.2617  -26.2183  -41.5808 N.am      5 UNK        -0.4663 
     35 CA         24.6530  -25.8747  -41.2863 C.3       5 UNK         0.0242 
     36 CB         25.1623  -24.8992  -42.3596 C.3       5 UNK        -0.1982 
     37 C          25.5759  -27.1076  -41.1939 C.2       5 UNK         0.5017 
     38 O          26.6173  -27.0189  -40.5416 O.2       5 UNK        -0.5012 
     39 N          25.1974  -28.2241  -41.8364 N.am      6 UNK        -0.4439 
     40 CA         25.8912  -29.5085  -41.7371 C.3       6 UNK         0.0297 
     41 CB         25.5198  -30.3864  -42.9434 C.3       6 UNK        -0.2006 
     42 C          25.5257  -30.2245  -40.4280 C.2       6 UNK         0.4892 
     43 O          24.4124  -30.0566  -39.9210 O.2       6 UNK        -0.5089 
     44 N          26.4647  -31.0379  -39.9254 N.am      7 UNK        -0.4243 
     45 CA         26.3183  -31.8476  -38.7136 C.3       7 UNK         0.0196 
     46 CB         27.6233  -32.6162  -38.4497 C.3       7 UNK        -0.2007 
     47 C          25.1272  -32.8137  -38.8160 C.2       7 UNK         0.5020 
     48 O          25.0569  -33.5916  -39.7700 O.2       7 UNK        -0.5147 
     49 N          24.2005  -32.7087  -37.8534 N.am      8 UNK        -0.4734 
     50 CA         22.9417  -33.4616  -37.7526 C.3       8 UNK         0.0238 
     51 CB         23.2282  -34.9410  -37.4149 C.3       8 UNK        -0.1912 
     52 C          22.0142  -33.3046  -38.9784 C.2       8 UNK         0.5038 
     53 O          21.2429  -34.2203  -39.2706 O.2       8 UNK        -0.5046 
     54 N          22.1038  -32.1582  -39.6721 N.am      9 UNK        -0.4200 
     55 CA         21.3995  -31.8615  -40.9314 C.3       9 UNK         0.0839 
     56 C          21.9477  -32.6522  -42.1627 C.2       9 UNK         0.5513 
     57 N          23.1171  -33.2796  -42.0842 N.am      9 UNK        -0.7519 
     58 O          21.3229  -32.6869  -43.2186 O.2       9 UNK        -0.4960 
     59 C59        19.8488  -31.9281  -40.7650 C.3       10 UNK        -0.0876 
     60 S60        18.9398  -30.8058  -41.8796 S.3       10 UNK        -0.2414 
     61 C61        17.9172  -31.9838  -42.8248 C.3       10 UNK         0.0169 
     62 H62        14.2747  -23.4602  -41.1621 H         1 UNK         0.0903 
     63 H63        15.1247  -24.9292  -40.6784 H         1 UNK         0.0903 
     64 H64        15.9179  -23.3606  -40.5226 H         1 UNK         0.0903 
     65 H65        15.9021  -26.0918  -42.4289 H         1 UNK         0.3096 
     66 H66        16.1254  -24.9985  -45.0779 H         1 UNK         0.1121 
     67 H67        17.1611  -27.6985  -44.0399 H         1 UNK         0.0849 
     68 H68        16.8962  -27.2532  -45.7084 H         1 UNK         0.0849 
     69 H69        13.9706  -29.7709  -45.5419 H         1 UNK         0.0865 
     70 H70        14.7708  -28.7867  -46.7399 H         1 UNK         0.0865 
     71 H71        15.6634  -30.5809  -43.5242 H         1 UNK         0.1346 
     72 H72        19.3906  -32.0113  -45.0803 H         1 UNK         0.1412 
     73 H73        16.8678  -29.5486  -47.5145 H         1 UNK         0.1426 
     74 H74        19.9840  -31.6129  -47.3875 H         1 UNK         0.0716 
     75 H75        18.8656  -30.8348  -48.4817 H         1 UNK         0.0716 
     76 H76        21.4008  -30.0725  -45.4310 H         1 UNK         0.0695 
     77 H77        19.8764  -29.3250  -45.0097 H         1 UNK         0.0695 
     78 H78        22.4340  -27.8297  -45.6738 H         1 UNK         0.0983 
     79 H79        19.7630  -26.8934  -45.8579 H         1 UNK         0.3095 
     80 H80        20.2464  -23.5124  -45.0809 H         1 UNK         0.0454 
     81 H81        20.0233  -24.6872  -47.9053 H         1 UNK         0.0851 
     82 H82        21.2539  -23.5523  -47.3702 H         1 UNK         0.0851 
     83 H83        19.5737  -23.0509  -47.4212 H         1 UNK         0.0851 
     84 H84        18.0467  -24.7187  -46.3324 H         1 UNK         0.2976 
     85 H85        20.2671  -26.7364  -43.1482 H         1 UNK         0.3116 
     86 H86        21.0493  -28.4469  -41.0350 H         1 UNK         0.0646 
     87 H87        18.9666  -27.0738  -41.0420 H         1 UNK         0.0847 
     88 H88        19.9197  -26.7781  -39.5980 H         1 UNK         0.0847 
     89 H89        19.9283  -25.6008  -40.9021 H         1 UNK         0.0847 
     90 H90        22.9507  -26.0794  -42.5324 H         1 UNK         0.3040 
     91 H91        24.6831  -25.3710  -40.3175 H         1 UNK         0.1015 
     92 H92        25.1368  -25.3451  -43.3550 H         1 UNK         0.0786 
     93 H93        26.1931  -24.6023  -42.1605 H         1 UNK         0.0786 
     94 H94        24.5631  -23.9887  -42.3851 H         1 UNK         0.0786 
     95 H95        24.2930  -28.2451  -42.3023 H         1 UNK         0.3172 
     96 H96        26.9682  -29.3286  -41.7587 H         1 UNK         0.0595 
     97 H97        24.4644  -30.6620  -42.9325 H         1 UNK         0.0839 
     98 H98        26.0929  -31.3144  -42.9429 H         1 UNK         0.0839 
     99 H99        25.7237  -29.8782  -43.8858 H         1 UNK         0.0839 
    100 H100       27.3332  -31.1410  -40.4298 H         1 UNK         0.2998 
    101 H101       26.1514  -31.1612  -37.8808 H         1 UNK         0.0822 
    102 H102       27.5455  -33.2154  -37.5413 H         1 UNK         0.0787 
    103 H103       27.8637  -33.2962  -39.2682 H         1 UNK         0.0787 
    104 H104       28.4660  -31.9372  -38.3173 H         1 UNK         0.0787 
    105 H105       24.3447  -32.0132  -37.1332 H         1 UNK         0.3055 
    106 H106       22.3925  -33.0331  -36.9125 H         1 UNK         0.1106 
    107 H107       22.3060  -35.4808  -37.1964 H         1 UNK         0.0828 
    108 H108       23.7178  -35.4565  -38.2418 H         1 UNK         0.0828 
    109 H109       23.8680  -35.0318  -36.5372 H         1 UNK         0.0828 
    110 H110       22.8040  -31.4775  -39.4004 H         1 UNK         0.2931 
    111 H111       21.6626  -30.8233  -41.1370 H         1 UNK         0.0412 
    112 H112       23.6585  -33.2842  -41.2269 H         1 UNK         0.3472 
    113 H113       23.4557  -33.7792  -42.8904 H         1 UNK         0.3472 
    114 H114       19.5728  -31.6330  -39.7517 H         1 UNK         0.0970 
    115 H115       19.4914  -32.9531  -40.8751 H         1 UNK         0.0970 
    116 H116       17.0227  -32.2334  -42.2525 H         1 UNK         0.0612 
    117 H117       18.4632  -32.9158  -42.9792 H         1 UNK         0.0612 
@<TRIPOS>BOND
     1    1    2 1    
     2    1   62 1    
     3    1   63 1    
     4    1   64 1    
     5    2    3 2    
     6    2    4 am   BACKBONE|DICT|INTERRES
     7    4    5 1    
     8    4   65 1    
     9    5    6 1    
    10    5   25 1    
    11    5   66 1    
    12    6    7 1    
    13    6   67 1    
    14    6   68 1    
    15    7    8 1    
    16    8    9 1    
    17    8   69 1    
    18    8   70 1    
    19    9   10 ar   
    20    9   14 ar   
    21   10   11 ar   
    22   10   71 1    
    23   11   12 ar   
    24   11   61 1    
    25   12   13 ar   
    26   12   72 1    
    27   13   14 ar   
    28   13   15 1    
    29   14   73 1    
    30   15   16 1    
    31   15   74 1    
    32   15   75 1    
    33   16   17 1    
    34   17   18 1    
    35   17   76 1    
    36   17   77 1    
    37   18   19 1    
    38   18   27 1    
    39   18   78 1    
    40   19   20 am   BACKBONE|DICT|INTERRES
    41   19   79 1    
    42   20   21 2    
    43   20   22 1    
    44   22   23 1    
    45   22   24 1    
    46   22   80 1    
    47   23   81 1    
    48   23   82 1    
    49   23   83 1    
    50   24   25 am   BACKBONE|DICT|INTERRES
    51   24   84 1    
    52   25   26 2    
    53   27   28 2    
    54   27   29 am   BACKBONE|DICT|INTERRES
    55   29   30 1    
    56   29   85 1    
    57   30   31 1    
    58   30   32 1    
    59   30   86 1    
    60   31   87 1    
    61   31   88 1    
    62   31   89 1    
    63   32   33 2    
    64   32   34 am   BACKBONE|DICT|INTERRES
    65   34   35 1    
    66   34   90 1    
    67   35   36 1    
    68   35   37 1    
    69   35   91 1    
    70   36   92 1    
    71   36   93 1    
    72   36   94 1    
    73   37   38 2    
    74   37   39 am   BACKBONE|DICT|INTERRES
    75   39   40 1    
    76   39   95 1    
    77   40   41 1    
    78   40   42 1    
    79   40   96 1    
    80   41   97 1    
    81   41   98 1    
    82   41   99 1    
    83   42   43 2    
    84   42   44 am   BACKBONE|DICT|INTERRES
    85   44   45 1    
    86   44  100 1    
    87   45   46 1    
    88   45   47 1    
    89   45  101 1    
    90   46  102 1    
    91   46  103 1    
    92   46  104 1    
    93   47   48 2    
    94   47   49 am   BACKBONE|DICT|INTERRES
    95   49   50 1    
    96   49  105 1    
    97   50   51 1    
    98   50   52 1    
    99   50  106 1    
   100   51  107 1    
   101   51  108 1    
   102   51  109 1    
   103   52   53 2    
   104   52   54 am   BACKBONE|DICT|INTERRES
   105   54   55 1    
   106   54  110 1    
   107   55   56 1    
   108   55   59 1    
   109   55  111 1    
   110   56   57 am   BACKBONE|DICT|INTERRES
   111   56   58 2    
   112   57  112 1    
   113   57  113 1    
   114   59   60 1    
   115   59  114 1    
   116   59  115 1    
   117   60   61 1    
   118   61  116 1    
   119   61  117 1    
@<TRIPOS>SUBSTRUCTURE
     1 UNK         1 GROUP             0       ****    0 ROOT    
