@<TRIPOS>MOLECULE
3R8
117   119    1
SMALL
USER_CHARGES


@<TRIPOS>ATOM
      1 CA         17.9841  -22.0488  -42.0248 C.3       0 UNK        -0.2013 
      2 C          17.0600  -22.6902  -43.0484 C.2       0 UNK         0.4866 
      3 O          16.5061  -21.9948  -43.8998 O.2       0 UNK        -0.5176 
      4 N          16.9019  -24.0178  -42.9893 N.am      1 UNK        -0.4884 
      5 CA         16.0493  -24.8519  -43.8504 C.3       1 UNK         0.0853 
      6 C6         15.6728  -26.1751  -43.1278 C.3       10 UNK        -0.0849 
      7 S7         17.1243  -27.1128  -42.5257 S.3       10 UNK        -0.2776 
      8 C8         16.9413  -28.6955  -43.4038 C.3       10 UNK         0.0316 
      9 C9         18.2896  -29.3793  -43.5606 C.ar      10 UNK        -0.0863 
     10 C10        18.9186  -29.9642  -42.4584 C.ar      10 UNK        -0.1009 
     11 C11        20.1670  -30.5774  -42.5976 C.ar      10 UNK        -0.0712 
     12 C12        20.7880  -30.5983  -43.8493 C.ar      10 UNK        -0.0894 
     13 C13        20.1717  -30.0108  -44.9573 C.ar      10 UNK        -0.0745 
     14 C14        18.9141  -29.4176  -44.8095 C.ar      10 UNK        -0.0972 
     15 C15        20.8662  -30.0286  -46.3109 C.3       10 UNK         0.0209 
     16 S16        21.9424  -28.5755  -46.5385 S.3       10 UNK        -0.2568 
     17 C17        20.7289  -27.2853  -46.9918 C.3       10 UNK        -0.0983 
     18 CA         20.8840  -25.8843  -46.3257 C.3       3 UNK         0.0876 
     19 N          19.6433  -25.1152  -46.3419 N.am      3 UNK        -0.4424 
     20 C          19.0250  -24.6523  -47.4330 C.2       2 UNK         0.4918 
     21 O          19.4610  -24.8073  -48.5747 O.2       2 UNK        -0.4875 
     22 CA         17.7147  -23.8610  -47.2268 C.3       2 UNK         0.0481 
     23 CB         16.6670  -24.1869  -48.3120 C.3       2 UNK        -0.1831 
     24 N          17.1253  -23.9709  -45.8834 N.am      2 UNK        -0.4498 
     25 C          16.6284  -25.0588  -45.2749 C.2       1 UNK         0.5027 
     26 O          16.6298  -26.1782  -45.7889 O.2       1 UNK        -0.4969 
     27 C          21.3872  -25.8527  -44.8734 C.2       3 UNK         0.5005 
     28 O          22.3090  -25.0891  -44.5820 O.2       3 UNK        -0.5279 
     29 N          20.7263  -26.6147  -43.9849 N.am      4 UNK        -0.4463 
     30 CA         20.9590  -26.6825  -42.5341 C.3       4 UNK         0.0283 
     31 CB         20.4943  -25.3765  -41.8553 C.3       4 UNK        -0.1875 
     32 C          22.4119  -27.0521  -42.1737 C.2       4 UNK         0.4949 
     33 O          23.0622  -26.3394  -41.4058 O.2       4 UNK        -0.5039 
     34 N          22.9070  -28.1497  -42.7613 N.am      5 UNK        -0.4663 
     35 CA         24.2952  -28.6185  -42.6740 C.3       5 UNK         0.0242 
     36 CB         24.5571  -29.6254  -43.8099 C.3       5 UNK        -0.1982 
     37 C          24.6875  -29.1854  -41.2929 C.2       5 UNK         0.5017 
     38 O          25.0108  -30.3685  -41.1850 O.2       5 UNK        -0.5012 
     39 N          24.6550  -28.3303  -40.2613 N.am      6 UNK        -0.4439 
     40 CA         25.1900  -28.5252  -38.9036 C.3       6 UNK         0.0297 
     41 CB         26.7306  -28.4432  -38.9414 C.3       6 UNK        -0.2006 
     42 C          24.6955  -29.7958  -38.1782 C.2       6 UNK         0.4892 
     43 O          25.4403  -30.3756  -37.3862 O.2       6 UNK        -0.5089 
     44 N          23.4563  -30.2117  -38.4795 N.am      7 UNK        -0.4243 
     45 CA         22.7883  -31.4343  -38.0118 C.3       7 UNK         0.0196 
     46 CB         22.5728  -31.4031  -36.4835 C.3       7 UNK        -0.2007 
     47 C          23.4501  -32.7479  -38.4846 C.2       7 UNK         0.5020 
     48 O          23.1234  -33.8090  -37.9503 O.2       7 UNK        -0.5147 
     49 N          24.3165  -32.6917  -39.5109 N.am      8 UNK        -0.4734 
     50 CA         24.9617  -33.8651  -40.1232 C.3       8 UNK         0.0238 
     51 CB         26.1002  -33.4014  -41.0459 C.3       8 UNK        -0.1912 
     52 C          23.9801  -34.7716  -40.8909 C.2       8 UNK         0.5038 
     53 O          24.3091  -35.9231  -41.1775 O.2       8 UNK        -0.5046 
     54 N          22.7912  -34.2344  -41.1835 N.am      9 UNK        -0.4200 
     55 CA         21.6073  -34.9378  -41.6857 C.3       9 UNK         0.0839 
     56 C          21.0051  -35.9914  -40.7071 C.2       9 UNK         0.5513 
     57 N          21.3452  -35.9858  -39.4220 N.am      9 UNK        -0.7519 
     58 O          20.2194  -36.8358  -41.1293 O.2       9 UNK        -0.4960 
     59 C59        20.5368  -33.9214  -42.1664 C.3       10 UNK        -0.0876 
     60 S60        20.0249  -32.7362  -40.8658 S.3       10 UNK        -0.2414 
     61 C61        20.8474  -31.1983  -41.3888 C.3       10 UNK         0.0169 
     62 H62        17.4466  -21.2872  -41.4604 H         1 UNK         0.0903 
     63 H63        18.3795  -22.7778  -41.3176 H         1 UNK         0.0903 
     64 H64        18.8254  -21.5712  -42.5262 H         1 UNK         0.0903 
     65 H65        17.3929  -24.5401  -42.2770 H         1 UNK         0.3096 
     66 H66        15.1154  -24.3066  -44.0060 H         1 UNK         0.1121 
     67 H67        15.0557  -25.9430  -42.2584 H         1 UNK         0.0849 
     68 H68        15.0426  -26.8015  -43.7617 H         1 UNK         0.0849 
     69 H69        16.2562  -29.3412  -42.8526 H         1 UNK         0.0865 
     70 H70        16.4898  -28.5298  -44.3830 H         1 UNK         0.0865 
     71 H71        18.4383  -29.9373  -41.4896 H         1 UNK         0.1346 
     72 H72        21.7506  -31.0755  -43.9649 H         1 UNK         0.1412 
     73 H73        18.4151  -28.9819  -45.6638 H         1 UNK         0.1426 
     74 H74        20.1346  -30.0798  -47.1189 H         1 UNK         0.0716 
     75 H75        21.4751  -30.9297  -46.3998 H         1 UNK         0.0716 
     76 H76        19.7265  -27.6625  -46.8029 H         1 UNK         0.0695 
     77 H77        20.7771  -27.1699  -48.0755 H         1 UNK         0.0695 
     78 H78        21.6219  -25.3301  -46.9105 H         1 UNK         0.0983 
     79 H79        19.2389  -24.9133  -45.4387 H         1 UNK         0.3095 
     80 H80        17.9848  -22.8105  -47.3413 H         1 UNK         0.0454 
     81 H81        17.0468  -23.9550  -49.3077 H         1 UNK         0.0851 
     82 H82        15.7563  -23.6045  -48.1731 H         1 UNK         0.0851 
     83 H83        16.3947  -25.2427  -48.3086 H         1 UNK         0.0851 
     84 H84        17.0549  -23.1007  -45.3605 H         1 UNK         0.2976 
     85 H85        20.0070  -27.2349  -44.3338 H         1 UNK         0.3116 
     86 H86        20.3323  -27.4897  -42.1543 H         1 UNK         0.0646 
     87 H87        21.1008  -24.5224  -42.1583 H         1 UNK         0.0847 
     88 H88        19.4574  -25.1528  -42.0976 H         1 UNK         0.0847 
     89 H89        20.5628  -25.4553  -40.7697 H         1 UNK         0.0847 
     90 H90        22.2967  -28.6665  -43.3789 H         1 UNK         0.3040 
     91 H91        24.9455  -27.7587  -42.8508 H         1 UNK         0.1015 
     92 H92        25.6038  -29.9326  -43.8223 H         1 UNK         0.0786 
     93 H93        24.3406  -29.1921  -44.7860 H         1 UNK         0.0786 
     94 H94        23.9594  -30.5294  -43.6985 H         1 UNK         0.0786 
     95 H95        24.2662  -27.4097  -40.4613 H         1 UNK         0.3172 
     96 H96        24.8281  -27.6832  -38.3120 H         1 UNK         0.0595 
     97 H97        27.1635  -29.2852  -39.4830 H         1 UNK         0.0839 
     98 H98        27.1524  -28.4506  -37.9354 H         1 UNK         0.0839 
     99 H99        27.0686  -27.5254  -39.4226 H         1 UNK         0.0839 
    100 H100       22.9407  -29.6578  -39.1486 H         1 UNK         0.2998 
    101 H101       21.7997  -31.4266  -38.4719 H         1 UNK         0.0822 
    102 H102       21.9306  -32.2240  -36.1619 H         1 UNK         0.0787 
    103 H103       22.0918  -30.4770  -36.1687 H         1 UNK         0.0787 
    104 H104       23.5122  -31.4967  -35.9380 H         1 UNK         0.0787 
    105 H105       24.5412  -31.7897  -39.9248 H         1 UNK         0.3055 
    106 H106       25.3940  -34.4666  -39.3205 H         1 UNK         0.1106 
    107 H107       26.8090  -32.7650  -40.5158 H         1 UNK         0.0828 
    108 H108       26.6578  -34.2540  -41.4359 H         1 UNK         0.0828 
    109 H109       25.7227  -32.8418  -41.9026 H         1 UNK         0.0828 
    110 H110       22.6313  -33.2864  -40.8820 H         1 UNK         0.2931 
    111 H111       21.9326  -35.5016  -42.5620 H         1 UNK         0.0412 
    112 H112       20.9483  -36.6773  -38.8058 H         1 UNK         0.3472 
    113 H113       21.9750  -35.2851  -39.0520 H         1 UNK         0.3472 
    114 H114       20.9172  -33.3739  -43.0290 H         1 UNK         0.0970 
    115 H115       19.6482  -34.4413  -42.5295 H         1 UNK         0.0970 
    116 H116       20.8151  -30.4857  -40.5637 H         1 UNK         0.0612 
    117 H117       21.9033  -31.3891  -41.5865 H         1 UNK         0.0612 
@<TRIPOS>BOND
     1    1    2 1    
     2    1   62 1    
     3    1   63 1    
     4    1   64 1    
     5    2    3 2    
     6    2    4 am   BACKBONE|DICT|INTERRES
     7    4    5 1    
     8    4   65 1    
     9    5    6 1    
    10    5   25 1    
    11    5   66 1    
    12    6    7 1    
    13    6   67 1    
    14    6   68 1    
    15    7    8 1    
    16    8    9 1    
    17    8   69 1    
    18    8   70 1    
    19    9   10 ar   
    20    9   14 ar   
    21   10   11 ar   
    22   10   71 1    
    23   11   12 ar   
    24   11   61 1    
    25   12   13 ar   
    26   12   72 1    
    27   13   14 ar   
    28   13   15 1    
    29   14   73 1    
    30   15   16 1    
    31   15   74 1    
    32   15   75 1    
    33   16   17 1    
    34   17   18 1    
    35   17   76 1    
    36   17   77 1    
    37   18   19 1    
    38   18   27 1    
    39   18   78 1    
    40   19   20 am   BACKBONE|DICT|INTERRES
    41   19   79 1    
    42   20   21 2    
    43   20   22 1    
    44   22   23 1    
    45   22   24 1    
    46   22   80 1    
    47   23   81 1    
    48   23   82 1    
    49   23   83 1    
    50   24   25 am   BACKBONE|DICT|INTERRES
    51   24   84 1    
    52   25   26 2    
    53   27   28 2    
    54   27   29 am   BACKBONE|DICT|INTERRES
    55   29   30 1    
    56   29   85 1    
    57   30   31 1    
    58   30   32 1    
    59   30   86 1    
    60   31   87 1    
    61   31   88 1    
    62   31   89 1    
    63   32   33 2    
    64   32   34 am   BACKBONE|DICT|INTERRES
    65   34   35 1    
    66   34   90 1    
    67   35   36 1    
    68   35   37 1    
    69   35   91 1    
    70   36   92 1    
    71   36   93 1    
    72   36   94 1    
    73   37   38 2    
    74   37   39 am   BACKBONE|DICT|INTERRES
    75   39   40 1    
    76   39   95 1    
    77   40   41 1    
    78   40   42 1    
    79   40   96 1    
    80   41   97 1    
    81   41   98 1    
    82   41   99 1    
    83   42   43 2    
    84   42   44 am   BACKBONE|DICT|INTERRES
    85   44   45 1    
    86   44  100 1    
    87   45   46 1    
    88   45   47 1    
    89   45  101 1    
    90   46  102 1    
    91   46  103 1    
    92   46  104 1    
    93   47   48 2    
    94   47   49 am   BACKBONE|DICT|INTERRES
    95   49   50 1    
    96   49  105 1    
    97   50   51 1    
    98   50   52 1    
    99   50  106 1    
   100   51  107 1    
   101   51  108 1    
   102   51  109 1    
   103   52   53 2    
   104   52   54 am   BACKBONE|DICT|INTERRES
   105   54   55 1    
   106   54  110 1    
   107   55   56 1    
   108   55   59 1    
   109   55  111 1    
   110   56   57 am   BACKBONE|DICT|INTERRES
   111   56   58 2    
   112   57  112 1    
   113   57  113 1    
   114   59   60 1    
   115   59  114 1    
   116   59  115 1    
   117   60   61 1    
   118   61  116 1    
   119   61  117 1    
@<TRIPOS>SUBSTRUCTURE
     1 UNK         1 GROUP             0       ****    0 ROOT    
