@<TRIPOS>MOLECULE
3R8
117   119    1
SMALL
USER_CHARGES


@<TRIPOS>ATOM
      1 CA         14.7536  -22.4534  -43.8596 C.3       0 UNK        -0.2013 
      2 C          15.6019  -23.4350  -44.6542 C.2       0 UNK         0.4866 
      3 O          15.7946  -23.2432  -45.8549 O.2       0 UNK        -0.5176 
      4 N          16.1035  -24.4874  -43.9941 N.am      1 UNK        -0.4884 
      5 CA         16.9462  -25.5329  -44.5879 C.3       1 UNK         0.0853 
      6 C6         17.1692  -26.7088  -43.6082 C.3       10 UNK        -0.0849 
      7 S7         15.6714  -27.7091  -43.3080 S.3       10 UNK        -0.2776 
      8 C8         15.8545  -29.1001  -44.4814 C.3       10 UNK         0.0316 
      9 C9         17.1874  -29.8239  -44.3341 C.ar      10 UNK        -0.0863 
     10 C10        17.4229  -30.6757  -43.2510 C.ar      10 UNK        -0.1009 
     11 C11        18.6707  -31.2877  -43.0890 C.ar      10 UNK        -0.0712 
     12 C12        19.6859  -31.0310  -44.0176 C.ar      10 UNK        -0.0894 
     13 C13        19.4620  -30.1930  -45.1143 C.ar      10 UNK        -0.0745 
     14 C14        18.1983  -29.6147  -45.2764 C.ar      10 UNK        -0.0972 
     15 C15        20.5834  -29.9471  -46.1228 C.3       10 UNK         0.0209 
     16 S16        20.6131  -28.2393  -46.7748 S.3       10 UNK        -0.2568 
     17 C17        22.2909  -27.6554  -46.3543 C.3       10 UNK        -0.0983 
     18 CA         22.3724  -26.7952  -45.0676 C.3       3 UNK         0.0876 
     19 N          21.4018  -25.6907  -45.0542 N.am      3 UNK        -0.4424 
     20 C          21.4288  -24.6427  -44.2194 C.2       2 UNK         0.4918 
     21 O          22.2802  -24.5004  -43.3414 O.2       2 UNK        -0.4875 
     22 CA         20.3038  -23.5969  -44.3507 C.3       2 UNK         0.0481 
     23 CB         20.4663  -22.7483  -45.6271 C.3       2 UNK        -0.1831 
     24 N          18.9492  -24.1577  -44.2279 N.am      2 UNK        -0.4498 
     25 C          18.3148  -25.0000  -45.0585 C.2       1 UNK         0.5027 
     26 O          18.7795  -25.3907  -46.1291 O.2       1 UNK        -0.4969 
     27 C          22.3416  -27.6661  -43.7947 C.2       3 UNK         0.5005 
     28 O          23.3505  -28.3029  -43.4856 O.2       3 UNK        -0.5279 
     29 N          21.2262  -27.6328  -43.0482 N.am      4 UNK        -0.4463 
     30 CA         21.0288  -28.3140  -41.7628 C.3       4 UNK         0.0283 
     31 CB         19.5919  -28.0808  -41.2734 C.3       4 UNK        -0.1875 
     32 C          22.0355  -27.9174  -40.6655 C.2       4 UNK         0.4949 
     33 O          22.2308  -28.6817  -39.7218 O.2       4 UNK        -0.5039 
     34 N          22.6659  -26.7423  -40.8057 N.am      5 UNK        -0.4663 
     35 CA         23.7513  -26.2766  -39.9409 C.3       5 UNK         0.0242 
     36 CB         23.9557  -24.7701  -40.1685 C.3       5 UNK        -0.1982 
     37 C          25.0750  -27.0366  -40.1568 C.2       5 UNK         0.5017 
     38 O          25.9122  -27.0321  -39.2536 O.2       5 UNK        -0.5012 
     39 N          25.2493  -27.6545  -41.3339 N.am      6 UNK        -0.4439 
     40 CA         26.4350  -28.4239  -41.7115 C.3       6 UNK         0.0297 
     41 CB         26.9442  -27.9409  -43.0809 C.3       6 UNK        -0.2006 
     42 C          26.1166  -29.9242  -41.7424 C.2       6 UNK         0.4892 
     43 O          26.8047  -30.7043  -41.0829 O.2       6 UNK        -0.5089 
     44 N          25.0765  -30.3007  -42.4956 N.am      7 UNK        -0.4243 
     45 CA         24.5784  -31.6665  -42.6158 C.3       7 UNK         0.0196 
     46 CB         24.1145  -31.8979  -44.0658 C.3       7 UNK        -0.2007 
     47 C          23.4353  -31.8380  -41.6113 C.2       7 UNK         0.5020 
     48 O          22.2838  -31.5951  -41.9571 O.2       7 UNK        -0.5147 
     49 N          23.7745  -32.2093  -40.3715 N.am      8 UNK        -0.4734 
     50 CA         22.8581  -32.2388  -39.2230 C.3       8 UNK         0.0238 
     51 CB         23.6812  -32.4683  -37.9438 C.3       8 UNK        -0.1912 
     52 C          21.6933  -33.2478  -39.3034 C.2       8 UNK         0.5038 
     53 O          20.7731  -33.1457  -38.4909 O.2       8 UNK        -0.5046 
     54 N          21.7543  -34.2029  -40.2426 N.am      9 UNK        -0.4200 
     55 CA         20.7803  -35.2939  -40.4417 C.3       9 UNK         0.0839 
     56 C          20.7505  -36.3453  -39.2881 C.2       9 UNK         0.5513 
     57 N          21.7690  -36.4252  -38.4396 N.am      9 UNK        -0.7519 
     58 O          19.8090  -37.1266  -39.1754 O.2       9 UNK        -0.4960 
     59 C59        19.3566  -34.7932  -40.8351 C.3       10 UNK        -0.0876 
     60 S60        19.3190  -33.9028  -42.4282 S.3       10 UNK        -0.2414 
     61 C61        18.9305  -32.2036  -41.8987 C.3       10 UNK         0.0169 
     62 H62        15.1995  -21.4597  -43.8933 H         1 UNK         0.0903 
     63 H63        13.7526  -22.3924  -44.2857 H         1 UNK         0.0903 
     64 H64        14.6594  -22.7474  -42.8143 H         1 UNK         0.0903 
     65 H65        15.8788  -24.6099  -43.0165 H         1 UNK         0.3096 
     66 H66        16.4348  -25.9122  -45.4757 H         1 UNK         0.1121 
     67 H67        17.5074  -26.3300  -42.6423 H         1 UNK         0.0849 
     68 H68        17.9745  -27.3543  -43.9535 H         1 UNK         0.0849 
     69 H69        15.0394  -29.8074  -44.3215 H         1 UNK         0.0865 
     70 H70        15.7313  -28.7236  -45.4981 H         1 UNK         0.0865 
     71 H71        16.6392  -30.8437  -42.5249 H         1 UNK         0.1346 
     72 H72        20.6527  -31.4961  -43.8856 H         1 UNK         0.1412 
     73 H73        18.0081  -28.9685  -46.1222 H         1 UNK         0.1426 
     74 H74        21.5470  -30.1849  -45.6716 H         1 UNK         0.0716 
     75 H75        20.4570  -30.6366  -46.9582 H         1 UNK         0.0716 
     76 H76        22.9853  -28.4970  -46.3144 H         1 UNK         0.0695 
     77 H77        22.6301  -27.0514  -47.1972 H         1 UNK         0.0695 
     78 H78        23.3611  -26.3305  -45.0665 H         1 UNK         0.0983 
     79 H79        20.6339  -25.7534  -45.7183 H         1 UNK         0.3095 
     80 H80        20.4111  -22.9183  -43.5029 H         1 UNK         0.0454 
     81 H81        20.3950  -23.3463  -46.5358 H         1 UNK         0.0851 
     82 H82        19.7076  -21.9678  -45.6815 H         1 UNK         0.0851 
     83 H83        21.4391  -22.2554  -45.6428 H         1 UNK         0.0851 
     84 H84        18.4628  -23.9072  -43.3779 H         1 UNK         0.2976 
     85 H85        20.4543  -27.0850  -43.3943 H         1 UNK         0.3116 
     86 H86        21.1491  -29.3804  -41.9446 H         1 UNK         0.0646 
     87 H87        19.3833  -27.0223  -41.1161 H         1 UNK         0.0847 
     88 H88        19.4163  -28.5920  -40.3257 H         1 UNK         0.0847 
     89 H89        18.8641  -28.4742  -41.9816 H         1 UNK         0.0847 
     90 H90        22.4376  -26.1609  -41.6020 H         1 UNK         0.3040 
     91 H91        23.4531  -26.4307  -38.9013 H         1 UNK         0.1015 
     92 H92        23.0458  -24.2090  -39.9544 H         1 UNK         0.0786 
     93 H93        24.2484  -24.5536  -41.1969 H         1 UNK         0.0786 
     94 H94        24.7380  -24.3784  -39.5167 H         1 UNK         0.0786 
     95 H95        24.4806  -27.6591  -41.9975 H         1 UNK         0.3172 
     96 H96        27.2377  -28.2705  -40.9872 H         1 UNK         0.0595 
     97 H97        27.2439  -26.8936  -43.0416 H         1 UNK         0.0839 
     98 H98        26.1869  -28.0406  -43.8596 H         1 UNK         0.0839 
     99 H99        27.8161  -28.5150  -43.3975 H         1 UNK         0.0839 
    100 H100       24.5092  -29.5845  -42.9468 H         1 UNK         0.2998 
    101 H101       25.3648  -32.3898  -42.3891 H         1 UNK         0.0822 
    102 H102       24.9480  -31.8195  -44.7638 H         1 UNK         0.0787 
    103 H103       23.6814  -32.8920  -44.1838 H         1 UNK         0.0787 
    104 H104       23.3582  -31.1729  -44.3688 H         1 UNK         0.0787 
    105 H105       24.7532  -32.3660  -40.1723 H         1 UNK         0.3055 
    106 H106       22.3958  -31.2521  -39.1544 H         1 UNK         0.1106 
    107 H107       23.0432  -32.4605  -37.0587 H         1 UNK         0.0828 
    108 H108       24.1993  -33.4278  -37.9634 H         1 UNK         0.0828 
    109 H109       24.4266  -31.6848  -37.8060 H         1 UNK         0.0828 
    110 H110       22.5459  -34.1988  -40.8679 H         1 UNK         0.2931 
    111 H111       21.1618  -35.8550  -41.2955 H         1 UNK         0.0412 
    112 H112       21.7464  -37.1152  -37.7048 H         1 UNK         0.3472 
    113 H113       22.5575  -35.8046  -38.5261 H         1 UNK         0.3472 
    114 H114       18.9277  -34.1762  -40.0448 H         1 UNK         0.0970 
    115 H115       18.6744  -35.6377  -40.9466 H         1 UNK         0.0970 
    116 H116       19.7548  -31.8059  -41.3067 H         1 UNK         0.0612 
    117 H117       18.0606  -32.2278  -41.2407 H         1 UNK         0.0612 
@<TRIPOS>BOND
     1    1    2 1    
     2    1   62 1    
     3    1   63 1    
     4    1   64 1    
     5    2    3 2    
     6    2    4 am   BACKBONE|DICT|INTERRES
     7    4    5 1    
     8    4   65 1    
     9    5    6 1    
    10    5   25 1    
    11    5   66 1    
    12    6    7 1    
    13    6   67 1    
    14    6   68 1    
    15    7    8 1    
    16    8    9 1    
    17    8   69 1    
    18    8   70 1    
    19    9   10 ar   
    20    9   14 ar   
    21   10   11 ar   
    22   10   71 1    
    23   11   12 ar   
    24   11   61 1    
    25   12   13 ar   
    26   12   72 1    
    27   13   14 ar   
    28   13   15 1    
    29   14   73 1    
    30   15   16 1    
    31   15   74 1    
    32   15   75 1    
    33   16   17 1    
    34   17   18 1    
    35   17   76 1    
    36   17   77 1    
    37   18   19 1    
    38   18   27 1    
    39   18   78 1    
    40   19   20 am   BACKBONE|DICT|INTERRES
    41   19   79 1    
    42   20   21 2    
    43   20   22 1    
    44   22   23 1    
    45   22   24 1    
    46   22   80 1    
    47   23   81 1    
    48   23   82 1    
    49   23   83 1    
    50   24   25 am   BACKBONE|DICT|INTERRES
    51   24   84 1    
    52   25   26 2    
    53   27   28 2    
    54   27   29 am   BACKBONE|DICT|INTERRES
    55   29   30 1    
    56   29   85 1    
    57   30   31 1    
    58   30   32 1    
    59   30   86 1    
    60   31   87 1    
    61   31   88 1    
    62   31   89 1    
    63   32   33 2    
    64   32   34 am   BACKBONE|DICT|INTERRES
    65   34   35 1    
    66   34   90 1    
    67   35   36 1    
    68   35   37 1    
    69   35   91 1    
    70   36   92 1    
    71   36   93 1    
    72   36   94 1    
    73   37   38 2    
    74   37   39 am   BACKBONE|DICT|INTERRES
    75   39   40 1    
    76   39   95 1    
    77   40   41 1    
    78   40   42 1    
    79   40   96 1    
    80   41   97 1    
    81   41   98 1    
    82   41   99 1    
    83   42   43 2    
    84   42   44 am   BACKBONE|DICT|INTERRES
    85   44   45 1    
    86   44  100 1    
    87   45   46 1    
    88   45   47 1    
    89   45  101 1    
    90   46  102 1    
    91   46  103 1    
    92   46  104 1    
    93   47   48 2    
    94   47   49 am   BACKBONE|DICT|INTERRES
    95   49   50 1    
    96   49  105 1    
    97   50   51 1    
    98   50   52 1    
    99   50  106 1    
   100   51  107 1    
   101   51  108 1    
   102   51  109 1    
   103   52   53 2    
   104   52   54 am   BACKBONE|DICT|INTERRES
   105   54   55 1    
   106   54  110 1    
   107   55   56 1    
   108   55   59 1    
   109   55  111 1    
   110   56   57 am   BACKBONE|DICT|INTERRES
   111   56   58 2    
   112   57  112 1    
   113   57  113 1    
   114   59   60 1    
   115   59  114 1    
   116   59  115 1    
   117   60   61 1    
   118   61  116 1    
   119   61  117 1    
@<TRIPOS>SUBSTRUCTURE
     1 UNK         1 GROUP             0       ****    0 ROOT    
