@<TRIPOS>MOLECULE
3R8
117   119    1
SMALL
USER_CHARGES


@<TRIPOS>ATOM
      1 CA         18.5714  -25.1864  -49.8362 C.3       0 UNK        -0.2013 
      2 C          19.2947  -25.7955  -48.6443 C.2       0 UNK         0.4866 
      3 O          20.5182  -25.6907  -48.5510 O.2       0 UNK        -0.5176 
      4 N          18.5501  -26.4384  -47.7372 N.am      1 UNK        -0.4884 
      5 CA         19.0633  -27.0143  -46.4910 C.3       1 UNK         0.0853 
      6 C6         18.0934  -28.0883  -45.9272 C.3       10 UNK        -0.0849 
      7 S7         16.4377  -27.4628  -45.4753 S.3       10 UNK        -0.2776 
      8 C8         15.4819  -29.0082  -45.3858 C.3       10 UNK         0.0316 
      9 C9         16.0164  -29.9815  -44.3409 C.ar      10 UNK        -0.0863 
     10 C10        16.4824  -31.2393  -44.7335 C.ar      10 UNK        -0.1009 
     11 C11        16.8922  -32.1768  -43.7812 C.ar      10 UNK        -0.0712 
     12 C12        16.8481  -31.8403  -42.4228 C.ar      10 UNK        -0.0894 
     13 C13        16.4027  -30.5771  -42.0157 C.ar      10 UNK        -0.0745 
     14 C14        15.9892  -29.6526  -42.9813 C.ar      10 UNK        -0.0972 
     15 C15        16.2879  -30.2403  -40.5323 C.3       10 UNK         0.0209 
     16 S16        17.9000  -30.0274  -39.7072 S.3       10 UNK        -0.2568 
     17 C17        18.4897  -28.4331  -40.3736 C.3       10 UNK        -0.0983 
     18 CA         19.8163  -28.6176  -41.1565 C.3       3 UNK         0.0876 
     19 N          20.0262  -27.6104  -42.1901 N.am      3 UNK        -0.4424 
     20 C          20.2618  -26.3029  -42.0129 C.2       2 UNK         0.4918 
     21 O          20.3105  -25.7625  -40.9074 O.2       2 UNK        -0.4875 
     22 CA         20.4783  -25.4491  -43.2767 C.3       2 UNK         0.0481 
     23 CB         21.8823  -24.8235  -43.2988 C.3       2 UNK        -0.1831 
     24 N          20.2600  -26.2325  -44.5002 N.am      2 UNK        -0.4498 
     25 C          19.3686  -25.9164  -45.4473 C.2       1 UNK         0.5027 
     26 O          18.7637  -24.8403  -45.4892 O.2       1 UNK        -0.4969 
     27 C          21.0957  -28.7831  -40.3090 C.2       3 UNK         0.5005 
     28 O          22.1566  -29.0365  -40.8838 O.2       3 UNK        -0.5279 
     29 N          21.0071  -28.6369  -38.9798 N.am      4 UNK        -0.4463 
     30 CA         22.1232  -28.7755  -38.0345 C.3       4 UNK         0.0283 
     31 CB         21.6200  -28.5098  -36.6075 C.3       4 UNK        -0.1875 
     32 C          23.3411  -27.8855  -38.3484 C.2       4 UNK         0.4949 
     33 O          24.4720  -28.3124  -38.1184 O.2       4 UNK        -0.5039 
     34 N          23.1004  -26.6994  -38.9253 N.am      5 UNK        -0.4663 
     35 CA         24.1382  -25.7650  -39.3727 C.3       5 UNK         0.0242 
     36 CB         23.4942  -24.4017  -39.6672 C.3       5 UNK        -0.1982 
     37 C          24.9577  -26.2608  -40.5817 C.2       5 UNK         0.5017 
     38 O          26.0693  -25.7712  -40.7818 O.2       5 UNK        -0.5012 
     39 N          24.4239  -27.2259  -41.3452 N.am      6 UNK        -0.4439 
     40 CA         25.1197  -27.9118  -42.4397 C.3       6 UNK         0.0297 
     41 CB         24.1406  -28.1142  -43.6107 C.3       6 UNK        -0.2006 
     42 C          25.7105  -29.2647  -41.9973 C.2       6 UNK         0.4892 
     43 O          26.2059  -29.9990  -42.8528 O.2       6 UNK        -0.5089 
     44 N          25.6341  -29.5826  -40.6936 N.am      7 UNK        -0.4243 
     45 CA         25.9244  -30.8862  -40.0840 C.3       7 UNK         0.0196 
     46 CB         27.4099  -31.2777  -40.2446 C.3       7 UNK        -0.2007 
     47 C          24.9398  -31.9676  -40.5730 C.2       7 UNK         0.5020 
     48 O          25.3599  -33.0678  -40.9340 O.2       7 UNK        -0.5147 
     49 N          23.6490  -31.6040  -40.5471 N.am      8 UNK        -0.4734 
     50 CA         22.4504  -32.3171  -40.9989 C.3       8 UNK         0.0238 
     51 CB         22.4583  -33.8273  -40.6859 C.3       8 UNK        -0.1912 
     52 C          22.1532  -32.0330  -42.4788 C.2       8 UNK         0.5038 
     53 O          23.0269  -32.1915  -43.3329 O.2       8 UNK        -0.5046 
     54 N          20.8961  -31.6533  -42.7336 N.am      9 UNK        -0.4200 
     55 CA         20.2830  -31.3914  -44.0423 C.3       9 UNK         0.0839 
     56 C          20.9951  -30.2665  -44.8469 C.2       9 UNK         0.5513 
     57 N          21.5722  -30.5470  -46.0072 N.am      9 UNK        -0.7519 
     58 O          20.9544  -29.1032  -44.4478 O.2       9 UNK        -0.4960 
     59 C59        19.9799  -32.6944  -44.8362 C.3       10 UNK        -0.0876 
     60 S60        19.0748  -33.9254  -43.8299 S.3       10 UNK        -0.2414 
     61 C61        17.3346  -33.5661  -44.2269 C.3       10 UNK         0.0169 
     62 H62        18.9529  -25.6113  -50.7643 H         1 UNK         0.0903 
     63 H63        17.4972  -25.3667  -49.7973 H         1 UNK         0.0903 
     64 H64        18.7334  -24.1091  -49.8623 H         1 UNK         0.0903 
     65 H65        17.5446  -26.4583  -47.8352 H         1 UNK         0.3096 
     66 H66        20.0083  -27.5124  -46.7222 H         1 UNK         0.1121 
     67 H67        18.5132  -28.5606  -45.0396 H         1 UNK         0.0849 
     68 H68        17.9789  -28.8903  -46.6583 H         1 UNK         0.0849 
     69 H69        14.4461  -28.7659  -45.1442 H         1 UNK         0.0865 
     70 H70        15.4607  -29.4685  -46.3750 H         1 UNK         0.0865 
     71 H71        16.4969  -31.5019  -45.7827 H         1 UNK         0.1346 
     72 H72        17.1484  -32.5679  -41.6810 H         1 UNK         0.1412 
     73 H73        15.6182  -28.6832  -42.6768 H         1 UNK         0.1426 
     74 H74        15.6873  -29.3419  -40.3813 H         1 UNK         0.0716 
     75 H75        15.7496  -31.0466  -40.0321 H         1 UNK         0.0716 
     76 H76        18.5773  -27.6964  -39.5736 H         1 UNK         0.0695 
     77 H77        17.7232  -28.0396  -41.0431 H         1 UNK         0.0695 
     78 H78        19.7185  -29.5414  -41.7207 H         1 UNK         0.0983 
     79 H79        20.1153  -27.9928  -43.1240 H         1 UNK         0.3095 
     80 H80        19.7530  -24.6354  -43.2188 H         1 UNK         0.0454 
     81 H81        22.1180  -24.3951  -44.2730 H         1 UNK         0.0851 
     82 H82        22.6562  -25.5462  -43.0484 H         1 UNK         0.0851 
     83 H83        21.9501  -24.0150  -42.5713 H         1 UNK         0.0851 
     84 H84        20.7317  -27.1305  -44.5578 H         1 UNK         0.2976 
     85 H85        20.0985  -28.4403  -38.5838 H         1 UNK         0.3116 
     86 H86        22.4607  -29.8127  -38.0869 H         1 UNK         0.0646 
     87 H87        20.8298  -29.2065  -36.3274 H         1 UNK         0.0847 
     88 H88        22.4253  -28.6292  -35.8811 H         1 UNK         0.0847 
     89 H89        21.2309  -27.4967  -36.4979 H         1 UNK         0.0847 
     90 H90        22.1406  -26.4384  -39.1100 H         1 UNK         0.3040 
     91 H91        24.8446  -25.6325  -38.5499 H         1 UNK         0.1015 
     92 H92        22.7189  -24.4802  -40.4275 H         1 UNK         0.0786 
     93 H93        24.2343  -23.6841  -40.0246 H         1 UNK         0.0786 
     94 H94        23.0402  -23.9775  -38.7714 H         1 UNK         0.0786 
     95 H95        23.5195  -27.6141  -41.0901 H         1 UNK         0.3172 
     96 H96        25.9515  -27.3033  -42.7998 H         1 UNK         0.0595 
     97 H97        23.2597  -28.6744  -43.2989 H         1 UNK         0.0839 
     98 H98        24.6025  -28.6719  -44.4264 H         1 UNK         0.0839 
     99 H99        23.8134  -27.1667  -44.0328 H         1 UNK         0.0839 
    100 H100       25.2397  -28.8956  -40.0617 H         1 UNK         0.2998 
    101 H101       25.7368  -30.7675  -39.0155 H         1 UNK         0.0822 
    102 H102       27.6388  -32.1718  -39.6635 H         1 UNK         0.0787 
    103 H103       27.6678  -31.4943  -41.2814 H         1 UNK         0.0787 
    104 H104       28.0694  -30.4846  -39.8924 H         1 UNK         0.0787 
    105 H105       23.4633  -30.6322  -40.3257 H         1 UNK         0.3055 
    106 H106       21.6428  -31.8845  -40.4060 H         1 UNK         0.1106 
    107 H107       21.4751  -34.2626  -40.8688 H         1 UNK         0.0828 
    108 H108       23.1655  -34.3705  -41.3134 H         1 UNK         0.0828 
    109 H109       22.7113  -34.0198  -39.6434 H         1 UNK         0.0828 
    110 H110       20.2547  -31.5992  -41.9582 H         1 UNK         0.2931 
    111 H111       19.3171  -30.9512  -43.7991 H         1 UNK         0.0412 
    112 H112       22.0153  -29.8049  -46.5242 H         1 UNK         0.3472 
    113 H113       21.6214  -31.4921  -46.3514 H         1 UNK         0.3472 
    114 H114       20.9089  -33.1605  -45.1680 H         1 UNK         0.0970 
    115 H115       19.4043  -32.4730  -45.7367 H         1 UNK         0.0970 
    116 H116       16.7059  -34.3090  -43.7343 H         1 UNK         0.0612 
    117 H117       17.1822  -33.7017  -45.2988 H         1 UNK         0.0612 
@<TRIPOS>BOND
     1    1    2 1    
     2    1   62 1    
     3    1   63 1    
     4    1   64 1    
     5    2    3 2    
     6    2    4 am   BACKBONE|DICT|INTERRES
     7    4    5 1    
     8    4   65 1    
     9    5    6 1    
    10    5   25 1    
    11    5   66 1    
    12    6    7 1    
    13    6   67 1    
    14    6   68 1    
    15    7    8 1    
    16    8    9 1    
    17    8   69 1    
    18    8   70 1    
    19    9   10 ar   
    20    9   14 ar   
    21   10   11 ar   
    22   10   71 1    
    23   11   12 ar   
    24   11   61 1    
    25   12   13 ar   
    26   12   72 1    
    27   13   14 ar   
    28   13   15 1    
    29   14   73 1    
    30   15   16 1    
    31   15   74 1    
    32   15   75 1    
    33   16   17 1    
    34   17   18 1    
    35   17   76 1    
    36   17   77 1    
    37   18   19 1    
    38   18   27 1    
    39   18   78 1    
    40   19   20 am   BACKBONE|DICT|INTERRES
    41   19   79 1    
    42   20   21 2    
    43   20   22 1    
    44   22   23 1    
    45   22   24 1    
    46   22   80 1    
    47   23   81 1    
    48   23   82 1    
    49   23   83 1    
    50   24   25 am   BACKBONE|DICT|INTERRES
    51   24   84 1    
    52   25   26 2    
    53   27   28 2    
    54   27   29 am   BACKBONE|DICT|INTERRES
    55   29   30 1    
    56   29   85 1    
    57   30   31 1    
    58   30   32 1    
    59   30   86 1    
    60   31   87 1    
    61   31   88 1    
    62   31   89 1    
    63   32   33 2    
    64   32   34 am   BACKBONE|DICT|INTERRES
    65   34   35 1    
    66   34   90 1    
    67   35   36 1    
    68   35   37 1    
    69   35   91 1    
    70   36   92 1    
    71   36   93 1    
    72   36   94 1    
    73   37   38 2    
    74   37   39 am   BACKBONE|DICT|INTERRES
    75   39   40 1    
    76   39   95 1    
    77   40   41 1    
    78   40   42 1    
    79   40   96 1    
    80   41   97 1    
    81   41   98 1    
    82   41   99 1    
    83   42   43 2    
    84   42   44 am   BACKBONE|DICT|INTERRES
    85   44   45 1    
    86   44  100 1    
    87   45   46 1    
    88   45   47 1    
    89   45  101 1    
    90   46  102 1    
    91   46  103 1    
    92   46  104 1    
    93   47   48 2    
    94   47   49 am   BACKBONE|DICT|INTERRES
    95   49   50 1    
    96   49  105 1    
    97   50   51 1    
    98   50   52 1    
    99   50  106 1    
   100   51  107 1    
   101   51  108 1    
   102   51  109 1    
   103   52   53 2    
   104   52   54 am   BACKBONE|DICT|INTERRES
   105   54   55 1    
   106   54  110 1    
   107   55   56 1    
   108   55   59 1    
   109   55  111 1    
   110   56   57 am   BACKBONE|DICT|INTERRES
   111   56   58 2    
   112   57  112 1    
   113   57  113 1    
   114   59   60 1    
   115   59  114 1    
   116   59  115 1    
   117   60   61 1    
   118   61  116 1    
   119   61  117 1    
@<TRIPOS>SUBSTRUCTURE
     1 UNK         1 GROUP             0       ****    0 ROOT    
