@<TRIPOS>MOLECULE
3R8
117   119    1
SMALL
USER_CHARGES


@<TRIPOS>ATOM
      1 CA         12.9041  -23.9830  -43.3842 C.3       0 UNK        -0.2013 
      2 C          14.0651  -24.3688  -44.2887 C.2       0 UNK         0.4866 
      3 O          14.2975  -23.7087  -45.3022 O.2       0 UNK        -0.5176 
      4 N          14.7895  -25.4379  -43.9364 N.am      1 UNK        -0.4884 
      5 CA         15.9679  -25.9287  -44.6600 C.3       1 UNK         0.0853 
      6 C6         16.3661  -27.3563  -44.2102 C.3       10 UNK        -0.0849 
      7 S7         15.0337  -28.5759  -44.4832 S.3       10 UNK        -0.2776 
      8 C8         15.7040  -29.5934  -45.8402 C.3       10 UNK         0.0316 
      9 C9         16.9303  -30.3870  -45.4086 C.ar      10 UNK        -0.0863 
     10 C10        16.8059  -31.4228  -44.4777 C.ar      10 UNK        -0.1009 
     11 C11        17.9300  -32.1417  -44.0628 C.ar      10 UNK        -0.0712 
     12 C12        19.1867  -31.8167  -44.5833 C.ar      10 UNK        -0.0894 
     13 C13        19.3251  -30.7914  -45.5243 C.ar      10 UNK        -0.0745 
     14 C14        18.1885  -30.0889  -45.9413 C.ar      10 UNK        -0.0972 
     15 C15        20.7019  -30.4739  -46.1024 C.3       10 UNK         0.0209 
     16 S16        21.0803  -28.6908  -46.1578 S.3       10 UNK        -0.2568 
     17 C17        21.1286  -28.2827  -44.3829 C.3       10 UNK        -0.0983 
     18 CA         21.3915  -26.7790  -44.1411 C.3       3 UNK         0.0876 
     19 N          20.3382  -25.9517  -44.7337 N.am      3 UNK        -0.4424 
     20 C          20.3769  -24.6217  -44.8823 C.2       2 UNK         0.4918 
     21 O          21.3314  -23.9216  -44.5419 O.2       2 UNK        -0.4875 
     22 CA         19.1607  -23.9559  -45.5557 C.3       2 UNK         0.0481 
     23 CB         19.4984  -23.5784  -47.0074 C.3       2 UNK        -0.1831 
     24 N          17.9546  -24.7926  -45.5486 N.am      2 UNK        -0.4498 
     25 C          17.1595  -24.9643  -44.4831 C.2       1 UNK         0.5027 
     26 O          17.3529  -24.4254  -43.3902 O.2       1 UNK        -0.4969 
     27 C          21.5531  -26.4936  -42.6344 C.2       3 UNK         0.5005 
     28 O          20.5579  -26.2665  -41.9411 O.2       3 UNK        -0.5279 
     29 N          22.8001  -26.5334  -42.1541 N.am      4 UNK        -0.4463 
     30 CA         23.1884  -26.2764  -40.7709 C.3       4 UNK         0.0283 
     31 CB         23.2805  -24.7568  -40.5310 C.3       4 UNK        -0.1875 
     32 C          24.5309  -26.9647  -40.4936 C.2       4 UNK         0.4949 
     33 O          25.1840  -27.4356  -41.4300 O.2       4 UNK        -0.5039 
     34 N          24.9198  -26.9969  -39.2111 N.am      5 UNK        -0.4663 
     35 CA         26.1661  -27.5657  -38.6825 C.3       5 UNK         0.0242 
     36 CB         27.3713  -26.6842  -39.0863 C.3       5 UNK        -0.1982 
     37 C          26.3132  -29.0532  -39.0561 C.2       5 UNK         0.5017 
     38 O          25.4512  -29.8493  -38.6842 O.2       5 UNK        -0.5012 
     39 N          27.3671  -29.4039  -39.8046 N.am      6 UNK        -0.4439 
     40 CA         27.6406  -30.7600  -40.2896 C.3       6 UNK         0.0297 
     41 CB         29.0382  -30.7924  -40.9294 C.3       6 UNK        -0.2006 
     42 C          26.5874  -31.3072  -41.2734 C.2       6 UNK         0.4892 
     43 O          26.4870  -32.5262  -41.4155 O.2       6 UNK        -0.5089 
     44 N          25.8276  -30.4177  -41.9289 N.am      7 UNK        -0.4243 
     45 CA         24.7693  -30.7734  -42.8755 C.3       7 UNK         0.0196 
     46 CB         24.7480  -29.7374  -44.0133 C.3       7 UNK        -0.2007 
     47 C          23.3833  -30.8913  -42.2166 C.2       7 UNK         0.5020 
     48 O          22.4279  -31.2134  -42.9233 O.2       7 UNK        -0.5147 
     49 N          23.2646  -30.6296  -40.9044 N.am      8 UNK        -0.4734 
     50 CA         22.0034  -30.6194  -40.1477 C.3       8 UNK         0.0238 
     51 CB         22.2027  -29.8348  -38.8377 C.3       8 UNK        -0.1912 
     52 C          21.4109  -32.0245  -39.8991 C.2       8 UNK         0.5038 
     53 O          21.1743  -32.4025  -38.7494 O.2       8 UNK        -0.5046 
     54 N          21.1588  -32.7537  -40.9900 N.am      9 UNK        -0.4200 
     55 CA         20.5089  -34.0703  -41.0551 C.3       9 UNK         0.0839 
     56 C          21.3361  -35.2054  -40.3772 C.2       9 UNK         0.5513 
     57 N          20.7297  -36.3459  -40.0723 N.am      9 UNK        -0.7519 
     58 O          22.5430  -35.0898  -40.1726 O.2       9 UNK        -0.4960 
     59 C59        19.0101  -34.0283  -40.6187 C.3       10 UNK        -0.0876 
     60 S60        18.0642  -32.6527  -41.3637 S.3       10 UNK        -0.2414 
     61 C61        17.7906  -33.2685  -43.0519 C.3       10 UNK         0.0169 
     62 H62        12.8054  -24.6600  -42.5357 H         1 UNK         0.0903 
     63 H63        13.0488  -22.9744  -42.9980 H         1 UNK         0.0903 
     64 H64        11.9694  -24.0031  -43.9440 H         1 UNK         0.0903 
     65 H65        14.5591  -25.9410  -43.0913 H         1 UNK         0.3096 
     66 H66        15.7117  -25.9627  -45.7216 H         1 UNK         0.1121 
     67 H67        17.2669  -27.6834  -44.7312 H         1 UNK         0.0849 
     68 H68        16.6194  -27.3669  -43.1480 H         1 UNK         0.0849 
     69 H69        14.9316  -30.2866  -46.1765 H         1 UNK         0.0865 
     70 H70        15.9299  -28.9524  -46.6939 H         1 UNK         0.0865 
     71 H71        15.8338  -31.6597  -44.0668 H         1 UNK         0.1346 
     72 H72        20.0589  -32.3657  -44.2545 H         1 UNK         0.1412 
     73 H73        18.2886  -29.3001  -46.6742 H         1 UNK         0.1426 
     74 H74        20.7525  -30.8728  -47.1161 H         1 UNK         0.0716 
     75 H75        21.4864  -30.9761  -45.5338 H         1 UNK         0.0716 
     76 H76        20.1903  -28.5923  -43.9177 H         1 UNK         0.0695 
     77 H77        21.9133  -28.8826  -43.9246 H         1 UNK         0.0695 
     78 H78        22.3277  -26.5099  -44.6359 H         1 UNK         0.0983 
     79 H79        19.5166  -26.4441  -45.0446 H         1 UNK         0.3095 
     80 H80        18.9482  -23.0343  -45.0096 H         1 UNK         0.0454 
     81 H81        19.7233  -24.4572  -47.6131 H         1 UNK         0.0851 
     82 H82        18.6750  -23.0438  -47.4813 H         1 UNK         0.0851 
     83 H83        20.3707  -22.9245  -47.0479 H         1 UNK         0.0851 
     84 H84        17.7256  -25.2588  -46.4155 H         1 UNK         0.2976 
     85 H85        23.5764  -26.7921  -42.7512 H         1 UNK         0.3116 
     86 H86        22.4404  -26.7070  -40.1024 H         1 UNK         0.0646 
     87 H87        23.5535  -24.5314  -39.4996 H         1 UNK         0.0847 
     88 H88        22.3266  -24.2650  -40.7228 H         1 UNK         0.0847 
     89 H89        24.0289  -24.2939  -41.1755 H         1 UNK         0.0847 
     90 H90        24.2955  -26.6107  -38.5161 H         1 UNK         0.3040 
     91 H91        26.0871  -27.5386  -37.5943 H         1 UNK         0.1015 
     92 H92        27.2367  -25.6608  -38.7355 H         1 UNK         0.0786 
     93 H93        27.5117  -26.6403  -40.1671 H         1 UNK         0.0786 
     94 H94        28.2977  -27.0495  -38.6408 H         1 UNK         0.0786 
     95 H95        28.0115  -28.6792  -40.0868 H         1 UNK         0.3172 
     96 H96        27.6479  -31.4245  -39.4230 H         1 UNK         0.0595 
     97 H97        29.8094  -30.4960  -40.2182 H         1 UNK         0.0839 
     98 H98        29.1027  -30.1297  -41.7935 H         1 UNK         0.0839 
     99 H99        29.2874  -31.7978  -41.2721 H         1 UNK         0.0839 
    100 H100       25.9415  -29.4288  -41.7327 H         1 UNK         0.2998 
    101 H101       24.9898  -31.7459  -43.3209 H         1 UNK         0.0822 
    102 H102       25.7183  -29.6698  -44.5054 H         1 UNK         0.0787 
    103 H103       24.0190  -30.0091  -44.7782 H         1 UNK         0.0787 
    104 H104       24.4860  -28.7434  -43.6525 H         1 UNK         0.0787 
    105 H105       24.1029  -30.4204  -40.3751 H         1 UNK         0.3055 
    106 H106       21.2651  -30.0749  -40.7416 H         1 UNK         0.1106 
    107 H107       22.8907  -30.3459  -38.1636 H         1 UNK         0.0828 
    108 H108       22.5952  -28.8370  -39.0218 H         1 UNK         0.0828 
    109 H109       21.2574  -29.7158  -38.3066 H         1 UNK         0.0828 
    110 H110       21.4492  -32.3540  -41.8787 H         1 UNK         0.2931 
    111 H111       20.5300  -34.3235  -42.1149 H         1 UNK         0.0412 
    112 H112       21.2705  -37.0869  -39.6535 H         1 UNK         0.3472 
    113 H113       19.7485  -36.4865  -40.2527 H         1 UNK         0.3472 
    114 H114       18.9400  -33.9296  -39.5340 H         1 UNK         0.0970 
    115 H115       18.5040  -34.9612  -40.8709 H         1 UNK         0.0970 
    116 H116       16.7986  -33.7186  -43.1117 H         1 UNK         0.0612 
    117 H117       18.4997  -34.0613  -43.2918 H         1 UNK         0.0612 
@<TRIPOS>BOND
     1    1    2 1    
     2    1   62 1    
     3    1   63 1    
     4    1   64 1    
     5    2    3 2    
     6    2    4 am   BACKBONE|DICT|INTERRES
     7    4    5 1    
     8    4   65 1    
     9    5    6 1    
    10    5   25 1    
    11    5   66 1    
    12    6    7 1    
    13    6   67 1    
    14    6   68 1    
    15    7    8 1    
    16    8    9 1    
    17    8   69 1    
    18    8   70 1    
    19    9   10 ar   
    20    9   14 ar   
    21   10   11 ar   
    22   10   71 1    
    23   11   12 ar   
    24   11   61 1    
    25   12   13 ar   
    26   12   72 1    
    27   13   14 ar   
    28   13   15 1    
    29   14   73 1    
    30   15   16 1    
    31   15   74 1    
    32   15   75 1    
    33   16   17 1    
    34   17   18 1    
    35   17   76 1    
    36   17   77 1    
    37   18   19 1    
    38   18   27 1    
    39   18   78 1    
    40   19   20 am   BACKBONE|DICT|INTERRES
    41   19   79 1    
    42   20   21 2    
    43   20   22 1    
    44   22   23 1    
    45   22   24 1    
    46   22   80 1    
    47   23   81 1    
    48   23   82 1    
    49   23   83 1    
    50   24   25 am   BACKBONE|DICT|INTERRES
    51   24   84 1    
    52   25   26 2    
    53   27   28 2    
    54   27   29 am   BACKBONE|DICT|INTERRES
    55   29   30 1    
    56   29   85 1    
    57   30   31 1    
    58   30   32 1    
    59   30   86 1    
    60   31   87 1    
    61   31   88 1    
    62   31   89 1    
    63   32   33 2    
    64   32   34 am   BACKBONE|DICT|INTERRES
    65   34   35 1    
    66   34   90 1    
    67   35   36 1    
    68   35   37 1    
    69   35   91 1    
    70   36   92 1    
    71   36   93 1    
    72   36   94 1    
    73   37   38 2    
    74   37   39 am   BACKBONE|DICT|INTERRES
    75   39   40 1    
    76   39   95 1    
    77   40   41 1    
    78   40   42 1    
    79   40   96 1    
    80   41   97 1    
    81   41   98 1    
    82   41   99 1    
    83   42   43 2    
    84   42   44 am   BACKBONE|DICT|INTERRES
    85   44   45 1    
    86   44  100 1    
    87   45   46 1    
    88   45   47 1    
    89   45  101 1    
    90   46  102 1    
    91   46  103 1    
    92   46  104 1    
    93   47   48 2    
    94   47   49 am   BACKBONE|DICT|INTERRES
    95   49   50 1    
    96   49  105 1    
    97   50   51 1    
    98   50   52 1    
    99   50  106 1    
   100   51  107 1    
   101   51  108 1    
   102   51  109 1    
   103   52   53 2    
   104   52   54 am   BACKBONE|DICT|INTERRES
   105   54   55 1    
   106   54  110 1    
   107   55   56 1    
   108   55   59 1    
   109   55  111 1    
   110   56   57 am   BACKBONE|DICT|INTERRES
   111   56   58 2    
   112   57  112 1    
   113   57  113 1    
   114   59   60 1    
   115   59  114 1    
   116   59  115 1    
   117   60   61 1    
   118   61  116 1    
   119   61  117 1    
@<TRIPOS>SUBSTRUCTURE
     1 UNK         1 GROUP             0       ****    0 ROOT    
