@<TRIPOS>MOLECULE
3R8
117   119    1
SMALL
USER_CHARGES


@<TRIPOS>ATOM
      1 CA         19.4744  -27.2265  -41.1317 C.3       0 UNK        -0.2013 
      2 C          18.8087  -26.7796  -42.4233 C.2       0 UNK         0.4866 
      3 O          19.3901  -26.9374  -43.4967 O.2       0 UNK        -0.5176 
      4 N          17.6035  -26.2034  -42.3182 N.am      1 UNK        -0.4884 
      5 CA         16.7755  -25.6949  -43.4238 C.3       1 UNK         0.0853 
      6 C6         16.1528  -26.8263  -44.2946 C.3       10 UNK        -0.0849 
      7 S7         15.2100  -28.0457  -43.3162 S.3       10 UNK        -0.2776 
      8 C8         15.5611  -29.5965  -44.2120 C.3       10 UNK         0.0316 
      9 C9         17.0405  -29.9599  -44.1978 C.ar      10 UNK        -0.0863 
     10 C10        17.6710  -30.2885  -42.9951 C.ar      10 UNK        -0.1009 
     11 C11        19.0286  -30.6186  -42.9709 C.ar      10 UNK        -0.0712 
     12 C12        19.7599  -30.6167  -44.1630 C.ar      10 UNK        -0.0894 
     13 C13        19.1404  -30.2918  -45.3748 C.ar      10 UNK        -0.0745 
     14 C14        17.7792  -29.9712  -45.3858 C.ar      10 UNK        -0.0972 
     15 C15        19.9340  -30.3071  -46.6760 C.3       10 UNK         0.0209 
     16 S16        20.1453  -28.6436  -47.3922 S.3       10 UNK        -0.2568 
     17 C17        21.2844  -27.8748  -46.1945 C.3       10 UNK        -0.0983 
     18 CA         21.3524  -26.3314  -46.3334 C.3       3 UNK         0.0876 
     19 N          20.0375  -25.6904  -46.2391 N.am      3 UNK        -0.4424 
     20 C          19.7592  -24.4515  -46.6719 C.2       2 UNK         0.4918 
     21 O          20.5871  -23.7183  -47.2136 O.2       2 UNK        -0.4875 
     22 CA         18.3152  -23.9373  -46.5066 C.3       2 UNK         0.0481 
     23 CB         17.6042  -23.9005  -47.8695 C.3       2 UNK        -0.1831 
     24 N          17.5221  -24.7488  -45.5821 N.am      2 UNK        -0.4498 
     25 C          17.5440  -24.6305  -44.2468 C.2       1 UNK         0.5027 
     26 O          18.1546  -23.7364  -43.6557 O.2       1 UNK        -0.4969 
     27 C          22.3102  -25.7325  -45.2884 C.2       3 UNK         0.5005 
     28 O          23.3991  -25.2794  -45.6441 O.2       3 UNK        -0.5279 
     29 N          21.8640  -25.7379  -44.0217 N.am      4 UNK        -0.4463 
     30 CA         22.5210  -25.1911  -42.8267 C.3       4 UNK         0.0283 
     31 CB         22.5396  -23.6499  -42.8894 C.3       4 UNK        -0.1875 
     32 C          23.9134  -25.7899  -42.5324 C.2       4 UNK         0.4949 
     33 O          24.7447  -25.1242  -41.9132 O.2       4 UNK        -0.5039 
     34 N          24.1498  -27.0302  -42.9830 N.am      5 UNK        -0.4663 
     35 CA         25.4320  -27.7276  -42.8600 C.3       5 UNK         0.0242 
     36 CB         25.4565  -28.9237  -43.8265 C.3       5 UNK        -0.1982 
     37 C          25.7298  -28.1811  -41.4226 C.2       5 UNK         0.5017 
     38 O          26.8540  -28.0043  -40.9520 O.2       5 UNK        -0.5012 
     39 N          24.7168  -28.7503  -40.7608 N.am      6 UNK        -0.4439 
     40 CA         24.7436  -29.2898  -39.4044 C.3       6 UNK         0.0297 
     41 CB         25.6764  -30.5185  -39.3216 C.3       6 UNK        -0.2006 
     42 C          23.3121  -29.6896  -39.0278 C.2       6 UNK         0.4892 
     43 O          22.4525  -29.7856  -39.9081 O.2       6 UNK        -0.5089 
     44 N          23.0936  -29.9540  -37.7328 N.am      7 UNK        -0.4243 
     45 CA         21.8543  -30.5428  -37.2121 C.3       7 UNK         0.0196 
     46 CB         21.7885  -30.3295  -35.6911 C.3       7 UNK        -0.2007 
     47 C          21.7226  -32.0394  -37.5546 C.2       7 UNK         0.5020 
     48 O          20.6044  -32.5461  -37.6385 O.2       7 UNK        -0.5147 
     49 N          22.8610  -32.7180  -37.7536 N.am      8 UNK        -0.4734 
     50 CA         22.9453  -34.0785  -38.2786 C.3       8 UNK         0.0238 
     51 CB         24.2385  -34.7380  -37.7657 C.3       8 UNK        -0.1912 
     52 C          22.9064  -34.0055  -39.8121 C.2       8 UNK         0.5038 
     53 O          23.9417  -33.7634  -40.4353 O.2       8 UNK        -0.5046 
     54 N          21.7049  -34.1523  -40.3801 N.am      9 UNK        -0.4200 
     55 CA         21.4248  -33.9673  -41.8142 C.3       9 UNK         0.0839 
     56 C          21.9988  -35.0669  -42.7544 C.2       9 UNK         0.5513 
     57 N          22.4662  -36.2012  -42.2471 N.am      9 UNK        -0.7519 
     58 O          22.0196  -34.8841  -43.9687 O.2       9 UNK        -0.4960 
     59 C59        19.9121  -33.7467  -42.0898 C.3       10 UNK        -0.0876 
     60 S60        19.1233  -32.5401  -40.9687 S.3       10 UNK        -0.2414 
     61 C61        19.7025  -30.9566  -41.6501 C.3       10 UNK         0.0169 
     62 H62        18.7694  -27.7616  -40.4961 H         1 UNK         0.0903 
     63 H63        20.3122  -27.8914  -41.3423 H         1 UNK         0.0903 
     64 H64        19.8544  -26.3656  -40.5826 H         1 UNK         0.0903 
     65 H65        17.2019  -26.0820  -41.3992 H         1 UNK         0.3096 
     66 H66        15.9509  -25.1537  -42.9569 H         1 UNK         0.1121 
     67 H67        15.4627  -26.4123  -45.0320 H         1 UNK         0.0849 
     68 H68        16.9362  -27.3398  -44.8530 H         1 UNK         0.0849 
     69 H69        14.9925  -30.4060  -43.7521 H         1 UNK         0.0865 
     70 H70        15.1911  -29.5080  -45.2347 H         1 UNK         0.0865 
     71 H71        17.1050  -30.2807  -42.0736 H         1 UNK         0.1346 
     72 H72        20.8115  -30.8675  -44.1470 H         1 UNK         0.1412 
     73 H73        17.3009  -29.7202  -46.3228 H         1 UNK         0.1426 
     74 H74        19.4133  -30.9356  -47.3998 H         1 UNK         0.0716 
     75 H75        20.9156  -30.7606  -46.5298 H         1 UNK         0.0716 
     76 H76        20.9713  -28.1590  -45.1893 H         1 UNK         0.0695 
     77 H77        22.2734  -28.3131  -46.3414 H         1 UNK         0.0695 
     78 H78        21.7642  -26.1064  -47.3200 H         1 UNK         0.0983 
     79 H79        19.3252  -26.2186  -45.7546 H         1 UNK         0.3095 
     80 H80        18.3707  -22.9147  -46.1274 H         1 UNK         0.0454 
     81 H81        18.1470  -23.2711  -48.5762 H         1 UNK         0.0851 
     82 H82        17.5261  -24.8938  -48.3132 H         1 UNK         0.0851 
     83 H83        16.5980  -23.4903  -47.7821 H         1 UNK         0.0851 
     84 H84        16.9866  -25.4994  -45.9936 H         1 UNK         0.2976 
     85 H85        20.9477  -26.1593  -43.8585 H         1 UNK         0.3116 
     86 H86        21.8921  -25.4762  -41.9827 H         1 UNK         0.0646 
     87 H87        22.8948  -23.2208  -41.9517 H         1 UNK         0.0847 
     88 H88        21.5415  -23.2494  -43.0686 H         1 UNK         0.0847 
     89 H89        23.1941  -23.2871  -43.6826 H         1 UNK         0.0847 
     90 H90        23.4128  -27.5022  -43.4852 H         1 UNK         0.3040 
     91 H91        26.2241  -27.0361  -43.1571 H         1 UNK         0.1015 
     92 H92        25.3317  -28.5999  -44.8601 H         1 UNK         0.0786 
     93 H93        24.6694  -29.6451  -43.6031 H         1 UNK         0.0786 
     94 H94        26.4090  -29.4523  -43.7671 H         1 UNK         0.0786 
     95 H95        23.8117  -28.8389  -41.2083 H         1 UNK         0.3172 
     96 H96        25.0856  -28.5102  -38.7210 H         1 UNK         0.0595 
     97 H97        26.7069  -30.2647  -39.5680 H         1 UNK         0.0839 
     98 H98        25.3576  -31.3097  -40.0021 H         1 UNK         0.0839 
     99 H99        25.6924  -30.9401  -38.3164 H         1 UNK         0.0839 
    100 H100       23.8462  -29.8200  -37.0721 H         1 UNK         0.2998 
    101 H101       21.0067  -30.0259  -37.6684 H         1 UNK         0.0822 
    102 H102       21.8154  -29.2696  -35.4374 H         1 UNK         0.0787 
    103 H103       20.8626  -30.7357  -35.2811 H         1 UNK         0.0787 
    104 H104       22.6154  -30.8207  -35.1766 H         1 UNK         0.0787 
    105 H105       23.7311  -32.2122  -37.6852 H         1 UNK         0.3055 
    106 H106       22.0980  -34.6706  -37.9244 H         1 UNK         0.1106 
    107 H107       25.1285  -34.1802  -38.0602 H         1 UNK         0.0828 
    108 H108       24.2381  -34.8151  -36.6783 H         1 UNK         0.0828 
    109 H109       24.3424  -35.7490  -38.1617 H         1 UNK         0.0828 
    110 H110       20.8970  -34.2916  -39.7900 H         1 UNK         0.2931 
    111 H111       21.9351  -33.0474  -42.1060 H         1 UNK         0.0412 
    112 H112       22.8378  -36.9043  -42.8667 H         1 UNK         0.3472 
    113 H113       22.4560  -36.3587  -41.2522 H         1 UNK         0.3472 
    114 H114       19.3711  -34.6888  -41.9831 H         1 UNK         0.0970 
    115 H115       19.7516  -33.4273  -43.1212 H         1 UNK         0.0970 
    116 H116       20.7878  -30.9762  -41.7547 H         1 UNK         0.0612 
    117 H117       19.4827  -30.1736  -40.9245 H         1 UNK         0.0612 
@<TRIPOS>BOND
     1    1    2 1    
     2    1   62 1    
     3    1   63 1    
     4    1   64 1    
     5    2    3 2    
     6    2    4 am   BACKBONE|DICT|INTERRES
     7    4    5 1    
     8    4   65 1    
     9    5    6 1    
    10    5   25 1    
    11    5   66 1    
    12    6    7 1    
    13    6   67 1    
    14    6   68 1    
    15    7    8 1    
    16    8    9 1    
    17    8   69 1    
    18    8   70 1    
    19    9   10 ar   
    20    9   14 ar   
    21   10   11 ar   
    22   10   71 1    
    23   11   12 ar   
    24   11   61 1    
    25   12   13 ar   
    26   12   72 1    
    27   13   14 ar   
    28   13   15 1    
    29   14   73 1    
    30   15   16 1    
    31   15   74 1    
    32   15   75 1    
    33   16   17 1    
    34   17   18 1    
    35   17   76 1    
    36   17   77 1    
    37   18   19 1    
    38   18   27 1    
    39   18   78 1    
    40   19   20 am   BACKBONE|DICT|INTERRES
    41   19   79 1    
    42   20   21 2    
    43   20   22 1    
    44   22   23 1    
    45   22   24 1    
    46   22   80 1    
    47   23   81 1    
    48   23   82 1    
    49   23   83 1    
    50   24   25 am   BACKBONE|DICT|INTERRES
    51   24   84 1    
    52   25   26 2    
    53   27   28 2    
    54   27   29 am   BACKBONE|DICT|INTERRES
    55   29   30 1    
    56   29   85 1    
    57   30   31 1    
    58   30   32 1    
    59   30   86 1    
    60   31   87 1    
    61   31   88 1    
    62   31   89 1    
    63   32   33 2    
    64   32   34 am   BACKBONE|DICT|INTERRES
    65   34   35 1    
    66   34   90 1    
    67   35   36 1    
    68   35   37 1    
    69   35   91 1    
    70   36   92 1    
    71   36   93 1    
    72   36   94 1    
    73   37   38 2    
    74   37   39 am   BACKBONE|DICT|INTERRES
    75   39   40 1    
    76   39   95 1    
    77   40   41 1    
    78   40   42 1    
    79   40   96 1    
    80   41   97 1    
    81   41   98 1    
    82   41   99 1    
    83   42   43 2    
    84   42   44 am   BACKBONE|DICT|INTERRES
    85   44   45 1    
    86   44  100 1    
    87   45   46 1    
    88   45   47 1    
    89   45  101 1    
    90   46  102 1    
    91   46  103 1    
    92   46  104 1    
    93   47   48 2    
    94   47   49 am   BACKBONE|DICT|INTERRES
    95   49   50 1    
    96   49  105 1    
    97   50   51 1    
    98   50   52 1    
    99   50  106 1    
   100   51  107 1    
   101   51  108 1    
   102   51  109 1    
   103   52   53 2    
   104   52   54 am   BACKBONE|DICT|INTERRES
   105   54   55 1    
   106   54  110 1    
   107   55   56 1    
   108   55   59 1    
   109   55  111 1    
   110   56   57 am   BACKBONE|DICT|INTERRES
   111   56   58 2    
   112   57  112 1    
   113   57  113 1    
   114   59   60 1    
   115   59  114 1    
   116   59  115 1    
   117   60   61 1    
   118   61  116 1    
   119   61  117 1    
@<TRIPOS>SUBSTRUCTURE
     1 UNK         1 GROUP             0       ****    0 ROOT    
