@<TRIPOS>MOLECULE
3R8
117   119    1
SMALL
USER_CHARGES


@<TRIPOS>ATOM
      1 CA         15.9122  -22.2662  -42.7956 C.3       0 UNK        -0.2013 
      2 C          16.1372  -23.2294  -43.9515 C.2       0 UNK         0.4866 
      3 O          15.7476  -22.9284  -45.0797 O.2       0 UNK        -0.5176 
      4 N          16.7537  -24.3851  -43.6717 N.am      1 UNK        -0.4884 
      5 CA         17.1063  -25.4291  -44.6421 C.3       1 UNK         0.0853 
      6 C6         17.6481  -26.7085  -43.9586 C.3       10 UNK        -0.0849 
      7 S7         16.3221  -27.7125  -43.2070 S.3       10 UNK        -0.2776 
      8 C8         15.9828  -28.9586  -44.4997 C.3       10 UNK         0.0316 
      9 C9         17.1725  -29.8794  -44.7385 C.ar      10 UNK        -0.0863 
     10 C10        17.4073  -30.9718  -43.8989 C.ar      10 UNK        -0.1009 
     11 C11        18.5293  -31.7856  -44.0886 C.ar      10 UNK        -0.0712 
     12 C12        19.4204  -31.4943  -45.1298 C.ar      10 UNK        -0.0894 
     13 C13        19.1954  -30.4069  -45.9795 C.ar      10 UNK        -0.0745 
     14 C14        18.0485  -29.6288  -45.7969 C.ar      10 UNK        -0.0972 
     15 C15        20.1691  -30.0985  -47.1130 C.3       10 UNK         0.0209 
     16 S16        20.5247  -28.3134  -47.2878 S.3       10 UNK        -0.2568 
     17 C17        22.1538  -28.1026  -46.4842 C.3       10 UNK        -0.0983 
     18 CA         22.1438  -27.3523  -45.1226 C.3       3 UNK         0.0876 
     19 N          21.1589  -26.2596  -45.0685 N.am      3 UNK        -0.4424 
     20 C          21.0247  -25.3542  -44.0861 C.2       2 UNK         0.4918 
     21 O          21.6925  -25.3751  -43.0527 O.2       2 UNK        -0.4875 
     22 CA         19.9590  -24.2534  -44.2593 C.3       2 UNK         0.0481 
     23 CB         20.6119  -22.8630  -44.1973 C.3       2 UNK        -0.1831 
     24 N          19.2280  -24.3700  -45.5271 N.am      2 UNK        -0.4498 
     25 C          18.0362  -24.9376  -45.7818 C.2       1 UNK         0.5027 
     26 O          17.6469  -25.0679  -46.9410 O.2       1 UNK        -0.4969 
     27 C          22.1185  -28.3195  -43.9202 C.2       3 UNK         0.5005 
     28 O          23.1604  -28.8973  -43.6045 O.2       3 UNK        -0.5279 
     29 N          20.9825  -28.4161  -43.2141 N.am      4 UNK        -0.4463 
     30 CA         20.8408  -29.1316  -41.9419 C.3       4 UNK         0.0283 
     31 CB         19.3959  -29.0150  -41.4385 C.3       4 UNK        -0.1875 
     32 C          21.8076  -28.6601  -40.8416 C.2       4 UNK         0.4949 
     33 O          22.2192  -29.4773  -40.0210 O.2       4 UNK        -0.5039 
     34 N          22.1841  -27.3723  -40.8535 N.am      5 UNK        -0.4663 
     35 CA         23.1552  -26.7981  -39.9178 C.3       5 UNK         0.0242 
     36 CB         23.0781  -25.2644  -39.9815 C.3       5 UNK        -0.1982 
     37 C          24.5964  -27.2759  -40.1717 C.2       5 UNK         0.5017 
     38 O          25.3917  -27.2996  -39.2321 O.2       5 UNK        -0.5012 
     39 N          24.9053  -27.6443  -41.4227 N.am      6 UNK        -0.4439 
     40 CA         26.2004  -28.1864  -41.8318 C.3       6 UNK         0.0297 
     41 CB         26.5121  -27.7439  -43.2715 C.3       6 UNK        -0.2006 
     42 C          26.2207  -29.7173  -41.7164 C.2       6 UNK         0.4892 
     43 O          27.1943  -30.2728  -41.2071 O.2       6 UNK        -0.5089 
     44 N          25.1516  -30.3685  -42.1951 N.am      7 UNK        -0.4243 
     45 CA         25.0035  -31.8250  -42.2177 C.3       7 UNK         0.0196 
     46 CB         23.9104  -32.1902  -43.2335 C.3       7 UNK        -0.2007 
     47 C          24.7018  -32.4477  -40.8425 C.2       7 UNK         0.5020 
     48 O          24.9833  -33.6310  -40.6542 O.2       7 UNK        -0.5147 
     49 N          24.1245  -31.6601  -39.9219 N.am      8 UNK        -0.4734 
     50 CA         23.6957  -32.0247  -38.5614 C.3       8 UNK         0.0238 
     51 CB         24.8907  -32.4870  -37.7001 C.3       8 UNK        -0.1912 
     52 C          22.5107  -33.0131  -38.5156 C.2       8 UNK         0.5038 
     53 O          22.2568  -33.6109  -37.4680 O.2       8 UNK        -0.5046 
     54 N          21.8029  -33.1607  -39.6403 N.am      9 UNK        -0.4200 
     55 CA         20.5787  -33.9550  -39.7946 C.3       9 UNK         0.0839 
     56 C          19.3285  -33.2702  -39.1743 C.2       9 UNK         0.5513 
     57 N          18.2688  -34.0305  -38.9329 N.am      9 UNK        -0.7519 
     58 O          19.2963  -32.0665  -38.9265 O.2       9 UNK        -0.4960 
     59 C59        20.3629  -34.3624  -41.2777 C.3       10 UNK        -0.0876 
     60 S60        20.4296  -32.9552  -42.4390 S.3       10 UNK        -0.2414 
     61 C61        18.7668  -32.9809  -43.1724 C.3       10 UNK         0.0169 
     62 H62        16.4101  -21.3178  -42.9961 H         1 UNK         0.0903 
     63 H63        14.8472  -22.0723  -42.6705 H         1 UNK         0.0903 
     64 H64        16.2979  -22.6586  -41.8548 H         1 UNK         0.0903 
     65 H65        17.0122  -24.5787  -42.7149 H         1 UNK         0.3096 
     66 H66        16.1721  -25.6995  -45.1403 H         1 UNK         0.1121 
     67 H67        18.3507  -26.4541  -43.1654 H         1 UNK         0.0849 
     68 H68        18.2157  -27.3175  -44.6577 H         1 UNK         0.0849 
     69 H69        15.1180  -29.5519  -44.1990 H         1 UNK         0.0865 
     70 H70        15.6952  -28.4534  -45.4232 H         1 UNK         0.0865 
     71 H71        16.7237  -31.1752  -43.0859 H         1 UNK         0.1346 
     72 H72        20.2922  -32.1177  -45.2744 H         1 UNK         0.1412 
     73 H73        17.8536  -28.8005  -46.4645 H         1 UNK         0.1426 
     74 H74        21.0996  -30.6545  -46.9919 H         1 UNK         0.0716 
     75 H75        19.7242  -30.4506  -48.0445 H         1 UNK         0.0716 
     76 H76        22.7555  -27.5233  -47.1863 H         1 UNK         0.0695 
     77 H77        22.6677  -29.0633  -46.4125 H         1 UNK         0.0695 
     78 H78        23.1154  -26.8597  -45.0392 H         1 UNK         0.0983 
     79 H79        20.5630  -26.1840  -45.8806 H         1 UNK         0.3095 
     80 H80        19.2881  -24.3298  -43.4070 H         1 UNK         0.0454 
     81 H81        19.8652  -22.0723  -44.2734 H         1 UNK         0.0851 
     82 H82        21.3371  -22.7182  -44.9989 H         1 UNK         0.0851 
     83 H83        21.1378  -22.7167  -43.2526 H         1 UNK         0.0851 
     84 H84        19.7368  -24.0271  -46.3296 H         1 UNK         0.2976 
     85 H85        20.1700  -27.9283  -43.5553 H         1 UNK         0.3116 
     86 H86        21.0566  -30.1813  -42.1386 H         1 UNK         0.0646 
     87 H87        18.6875  -29.3815  -42.1766 H         1 UNK         0.0847 
     88 H88        19.2515  -29.6092  -40.5347 H         1 UNK         0.0847 
     89 H89        19.1287  -27.9851  -41.1997 H         1 UNK         0.0847 
     90 H90        21.8327  -26.7562  -41.5803 H         1 UNK         0.3040 
     91 H91        22.8806  -27.1124  -38.9081 H         1 UNK         0.1015 
     92 H92        23.3668  -24.8858  -40.9628 H         1 UNK         0.0786 
     93 H93        23.7459  -24.8099  -39.2483 H         1 UNK         0.0786 
     94 H94        22.0706  -24.9073  -39.7675 H         1 UNK         0.0786 
     95 H95        24.1689  -27.6482  -42.1173 H         1 UNK         0.3172 
     96 H96        26.9851  -27.7881  -41.1848 H         1 UNK         0.0595 
     97 H97        25.7692  -28.1072  -43.9826 H         1 UNK         0.0839 
     98 H98        27.4826  -28.1242  -43.5930 H         1 UNK         0.0839 
     99 H99        26.5482  -26.6574  -43.3519 H         1 UNK         0.0839 
    100 H100       24.4092  -29.8313  -42.6399 H         1 UNK         0.2998 
    101 H101       25.9443  -32.2583  -42.5644 H         1 UNK         0.0822 
    102 H102       23.7129  -33.2632  -43.2393 H         1 UNK         0.0787 
    103 H103       22.9731  -31.6820  -43.0086 H         1 UNK         0.0787 
    104 H104       24.2022  -31.9076  -44.2451 H         1 UNK         0.0787 
    105 H105       23.8633  -30.7194  -40.1996 H         1 UNK         0.3055 
    106 H106       23.3160  -31.1031  -38.1170 H         1 UNK         0.1106 
    107 H107       25.7103  -31.7697  -37.7414 H         1 UNK         0.0828 
    108 H108       24.6024  -32.5867  -36.6530 H         1 UNK         0.0828 
    109 H109       25.2740  -33.4554  -38.0220 H         1 UNK         0.0828 
    110 H110       22.0554  -32.5951  -40.4369 H         1 UNK         0.2931 
    111 H111       20.7300  -34.8781  -39.2312 H         1 UNK         0.0412 
    112 H112       18.2793  -35.0204  -39.1239 H         1 UNK         0.3472 
    113 H113       17.4442  -33.6068  -38.5367 H         1 UNK         0.3472 
    114 H114       21.1472  -35.0614  -41.5722 H         1 UNK         0.0970 
    115 H115       19.4281  -34.9116  -41.4027 H         1 UNK         0.0970 
    116 H116       18.6385  -33.9012  -43.7436 H         1 UNK         0.0612 
    117 H117       18.0301  -33.0011  -42.3675 H         1 UNK         0.0612 
@<TRIPOS>BOND
     1    1    2 1    
     2    1   62 1    
     3    1   63 1    
     4    1   64 1    
     5    2    3 2    
     6    2    4 am   BACKBONE|DICT|INTERRES
     7    4    5 1    
     8    4   65 1    
     9    5    6 1    
    10    5   25 1    
    11    5   66 1    
    12    6    7 1    
    13    6   67 1    
    14    6   68 1    
    15    7    8 1    
    16    8    9 1    
    17    8   69 1    
    18    8   70 1    
    19    9   10 ar   
    20    9   14 ar   
    21   10   11 ar   
    22   10   71 1    
    23   11   12 ar   
    24   11   61 1    
    25   12   13 ar   
    26   12   72 1    
    27   13   14 ar   
    28   13   15 1    
    29   14   73 1    
    30   15   16 1    
    31   15   74 1    
    32   15   75 1    
    33   16   17 1    
    34   17   18 1    
    35   17   76 1    
    36   17   77 1    
    37   18   19 1    
    38   18   27 1    
    39   18   78 1    
    40   19   20 am   BACKBONE|DICT|INTERRES
    41   19   79 1    
    42   20   21 2    
    43   20   22 1    
    44   22   23 1    
    45   22   24 1    
    46   22   80 1    
    47   23   81 1    
    48   23   82 1    
    49   23   83 1    
    50   24   25 am   BACKBONE|DICT|INTERRES
    51   24   84 1    
    52   25   26 2    
    53   27   28 2    
    54   27   29 am   BACKBONE|DICT|INTERRES
    55   29   30 1    
    56   29   85 1    
    57   30   31 1    
    58   30   32 1    
    59   30   86 1    
    60   31   87 1    
    61   31   88 1    
    62   31   89 1    
    63   32   33 2    
    64   32   34 am   BACKBONE|DICT|INTERRES
    65   34   35 1    
    66   34   90 1    
    67   35   36 1    
    68   35   37 1    
    69   35   91 1    
    70   36   92 1    
    71   36   93 1    
    72   36   94 1    
    73   37   38 2    
    74   37   39 am   BACKBONE|DICT|INTERRES
    75   39   40 1    
    76   39   95 1    
    77   40   41 1    
    78   40   42 1    
    79   40   96 1    
    80   41   97 1    
    81   41   98 1    
    82   41   99 1    
    83   42   43 2    
    84   42   44 am   BACKBONE|DICT|INTERRES
    85   44   45 1    
    86   44  100 1    
    87   45   46 1    
    88   45   47 1    
    89   45  101 1    
    90   46  102 1    
    91   46  103 1    
    92   46  104 1    
    93   47   48 2    
    94   47   49 am   BACKBONE|DICT|INTERRES
    95   49   50 1    
    96   49  105 1    
    97   50   51 1    
    98   50   52 1    
    99   50  106 1    
   100   51  107 1    
   101   51  108 1    
   102   51  109 1    
   103   52   53 2    
   104   52   54 am   BACKBONE|DICT|INTERRES
   105   54   55 1    
   106   54  110 1    
   107   55   56 1    
   108   55   59 1    
   109   55  111 1    
   110   56   57 am   BACKBONE|DICT|INTERRES
   111   56   58 2    
   112   57  112 1    
   113   57  113 1    
   114   59   60 1    
   115   59  114 1    
   116   59  115 1    
   117   60   61 1    
   118   61  116 1    
   119   61  117 1    
@<TRIPOS>SUBSTRUCTURE
     1 UNK         1 GROUP             0       ****    0 ROOT    
