@<TRIPOS>MOLECULE
3R8
117   119    1
SMALL
USER_CHARGES


@<TRIPOS>ATOM
      1 CA         17.1156  -22.4196  -41.5910 C.3       0 UNK        -0.2013 
      2 C          17.6301  -22.9671  -42.9138 C.2       0 UNK         0.4866 
      3 O          18.2134  -22.2209  -43.7012 O.2       0 UNK        -0.5176 
      4 N          17.4109  -24.2626  -43.1676 N.am      1 UNK        -0.4884 
      5 CA         17.9194  -24.9911  -44.3338 C.3       1 UNK         0.0853 
      6 C6         17.1548  -26.3233  -44.5641 C.3       10 UNK        -0.0849 
      7 S7         16.9681  -27.3563  -43.0671 S.3       10 UNK        -0.2776 
      8 C8         15.7644  -28.6053  -43.6240 C.3       10 UNK         0.0316 
      9 C9         16.4429  -29.9417  -43.8802 C.ar      10 UNK        -0.0863 
     10 C10        16.3374  -30.9784  -42.9458 C.ar      10 UNK        -0.1009 
     11 C11        16.9736  -32.2046  -43.1679 C.ar      10 UNK        -0.0712 
     12 C12        17.7272  -32.3804  -44.3303 C.ar      10 UNK        -0.0894 
     13 C13        17.8785  -31.3377  -45.2485 C.ar      10 UNK        -0.0745 
     14 C14        17.2007  -30.1333  -45.0385 C.ar      10 UNK        -0.0972 
     15 C15        18.8431  -31.4865  -46.4180 C.3       10 UNK         0.0209 
     16 S16        20.2251  -30.2859  -46.3617 S.3       10 UNK        -0.2568 
     17 C17        20.6624  -30.2068  -44.5837 C.3       10 UNK        -0.0983 
     18 CA         21.6507  -29.0665  -44.2262 C.3       3 UNK         0.0876 
     19 N          21.3262  -27.7959  -44.8782 N.am      3 UNK        -0.4424 
     20 C          22.1212  -26.7181  -44.8871 C.2       2 UNK         0.4918 
     21 O          23.2420  -26.6873  -44.3799 O.2       2 UNK        -0.4875 
     22 CA         21.5572  -25.4472  -45.5454 C.3       2 UNK         0.0481 
     23 CB         21.9392  -25.4034  -47.0330 C.3       2 UNK        -0.1831 
     24 N          20.1035  -25.2938  -45.4074 N.am      2 UNK        -0.4498 
     25 C          19.4454  -25.2050  -44.2413 C.2       1 UNK         0.5027 
     26 O          19.9922  -25.3086  -43.1394 O.2       1 UNK        -0.4969 
     27 C          21.7389  -28.8792  -42.6979 C.2       3 UNK         0.5005 
     28 O          22.7411  -29.2614  -42.0945 O.2       3 UNK        -0.5279 
     29 N          20.7148  -28.2396  -42.1092 N.am      4 UNK        -0.4463 
     30 CA         20.6411  -27.9289  -40.6795 C.3       4 UNK         0.0283 
     31 CB         19.2345  -27.4315  -40.3176 C.3       4 UNK        -0.1875 
     32 C          21.7040  -26.9139  -40.2357 C.2       4 UNK         0.4949 
     33 O          22.2386  -27.0521  -39.1368 O.2       4 UNK        -0.5039 
     34 N          22.0390  -25.9519  -41.1080 N.am      5 UNK        -0.4663 
     35 CA         23.1455  -25.0078  -40.9131 C.3       5 UNK         0.0242 
     36 CB         23.1066  -23.9350  -42.0123 C.3       5 UNK        -0.1982 
     37 C          24.5244  -25.6960  -40.8654 C.2       5 UNK         0.5017 
     38 O          25.3991  -25.2425  -40.1275 O.2       5 UNK        -0.5012 
     39 N          24.6776  -26.7955  -41.6166 N.am      6 UNK        -0.4439 
     40 CA         25.8414  -27.6865  -41.5905 C.3       6 UNK         0.0297 
     41 CB         25.9929  -28.3421  -42.9743 C.3       6 UNK        -0.2006 
     42 C          25.7626  -28.7593  -40.4822 C.2       6 UNK         0.4892 
     43 O          26.7164  -29.5244  -40.3335 O.2       6 UNK        -0.5089 
     44 N          24.6475  -28.8007  -39.7353 N.am      7 UNK        -0.4243 
     45 CA         24.3031  -29.7473  -38.6686 C.3       7 UNK         0.0196 
     46 CB         25.2417  -29.5723  -37.4552 C.3       7 UNK        -0.2007 
     47 C          24.2067  -31.2053  -39.1601 C.2       7 UNK         0.5020 
     48 O          24.7021  -32.1134  -38.4894 O.2       7 UNK        -0.5147 
     49 N          23.5698  -31.4099  -40.3190 N.am      8 UNK        -0.4734 
     50 CA         23.3822  -32.7147  -40.9533 C.3       8 UNK         0.0238 
     51 CB         24.4741  -32.8924  -42.0259 C.3       8 UNK        -0.1912 
     52 C          21.9788  -32.8240  -41.5699 C.2       8 UNK         0.5038 
     53 O          21.2436  -31.8383  -41.6161 O.2       8 UNK        -0.5046 
     54 N          21.6546  -34.0211  -42.0652 N.am      9 UNK        -0.4200 
     55 CA         20.5225  -34.3138  -42.9525 C.3       9 UNK         0.0839 
     56 C          20.9915  -35.3158  -44.0414 C.2       9 UNK         0.5513 
     57 N          20.3029  -35.3801  -45.1724 N.am      9 UNK        -0.7519 
     58 O          21.9596  -36.0546  -43.8645 O.2       9 UNK        -0.4960 
     59 C59        19.2738  -34.8541  -42.1981 C.3       10 UNK        -0.0876 
     60 S60        18.3910  -33.5961  -41.2065 S.3       10 UNK        -0.2414 
     61 C61        16.8500  -33.3348  -42.1525 C.3       10 UNK         0.0169 
     62 H62        16.4115  -21.6071  -41.7689 H         1 UNK         0.0903 
     63 H63        16.6093  -23.1846  -41.0025 H         1 UNK         0.0903 
     64 H64        17.9439  -22.0304  -40.9996 H         1 UNK         0.0903 
     65 H65        16.9559  -24.8418  -42.4755 H         1 UNK         0.3096 
     66 H66        17.7427  -24.3582  -45.2069 H         1 UNK         0.1121 
     67 H67        17.6209  -26.9157  -45.3535 H         1 UNK         0.0849 
     68 H68        16.1542  -26.0867  -44.9296 H         1 UNK         0.0849 
     69 H69        14.9946  -28.7122  -42.8581 H         1 UNK         0.0865 
     70 H70        15.2470  -28.2723  -44.5247 H         1 UNK         0.0865 
     71 H71        15.7621  -30.8294  -42.0422 H         1 UNK         0.1346 
     72 H72        18.2247  -33.3218  -44.4992 H         1 UNK         0.1412 
     73 H73        17.3137  -29.3257  -45.7483 H         1 UNK         0.1426 
     74 H74        18.2981  -31.3583  -47.3541 H         1 UNK         0.0716 
     75 H75        19.2652  -32.4921  -46.4438 H         1 UNK         0.0716 
     76 H76        21.0815  -31.1707  -44.2912 H         1 UNK         0.0695 
     77 H77        19.7500  -30.0872  -43.9997 H         1 UNK         0.0695 
     78 H78        22.6417  -29.3641  -44.5764 H         1 UNK         0.0983 
     79 H79        20.4341  -27.7486  -45.3465 H         1 UNK         0.3095 
     80 H80        22.0209  -24.5905  -45.0530 H         1 UNK         0.0454 
     81 H81        21.4788  -26.2176  -47.5941 H         1 UNK         0.0851 
     82 H82        23.0193  -25.4911  -47.1604 H         1 UNK         0.0851 
     83 H83        21.6377  -24.4630  -47.4944 H         1 UNK         0.0851 
     84 H84        19.5820  -25.2037  -46.2680 H         1 UNK         0.2976 
     85 H85        19.9501  -27.9114  -42.6821 H         1 UNK         0.3116 
     86 H86        20.8228  -28.8571  -40.1327 H         1 UNK         0.0646 
     87 H87        18.4787  -28.1833  -40.5451 H         1 UNK         0.0847 
     88 H88        18.9773  -26.5182  -40.8554 H         1 UNK         0.0847 
     89 H89        19.1605  -27.2131  -39.2515 H         1 UNK         0.0847 
     90 H90        21.4919  -25.8605  -41.9598 H         1 UNK         0.3040 
     91 H91        22.9924  -24.5155  -39.9502 H         1 UNK         0.1015 
     92 H92        23.8629  -23.1694  -41.8343 H         1 UNK         0.0786 
     93 H93        22.1385  -23.4346  -42.0474 H         1 UNK         0.0786 
     94 H94        23.3010  -24.3593  -42.9969 H         1 UNK         0.0786 
     95 H95        23.9113  -27.0787  -42.2169 H         1 UNK         0.3172 
     96 H96        26.7375  -27.0922  -41.4014 H         1 UNK         0.0595 
     97 H97        25.1444  -28.9839  -43.2130 H         1 UNK         0.0839 
     98 H98        26.8904  -28.9602  -43.0195 H         1 UNK         0.0839 
     99 H99        26.0757  -27.5927  -43.7618 H         1 UNK         0.0839 
    100 H100       23.9220  -28.1283  -39.9507 H         1 UNK         0.2998 
    101 H101       23.2976  -29.4786  -38.3420 H         1 UNK         0.0822 
    102 H102       25.2618  -28.5363  -37.1170 H         1 UNK         0.0787 
    103 H103       24.9090  -30.1805  -36.6132 H         1 UNK         0.0787 
    104 H104       26.2647  -29.8704  -37.6868 H         1 UNK         0.0787 
    105 H105       23.1650  -30.6226  -40.8259 H         1 UNK         0.3055 
    106 H106       23.4708  -33.5096  -40.2091 H         1 UNK         0.1106 
    107 H107       24.3946  -32.1328  -42.8050 H         1 UNK         0.0828 
    108 H108       24.4094  -33.8676  -42.5098 H         1 UNK         0.0828 
    109 H109       25.4708  -32.8169  -41.5903 H         1 UNK         0.0828 
    110 H110       22.3291  -34.7734  -42.0154 H         1 UNK         0.2931 
    111 H111       20.2575  -33.3937  -43.4748 H         1 UNK         0.0412 
    112 H112       20.5975  -36.0360  -45.8796 H         1 UNK         0.3472 
    113 H113       19.5002  -34.7979  -45.3411 H         1 UNK         0.3472 
    114 H114       18.5647  -35.3007  -42.8967 H         1 UNK         0.0970 
    115 H115       19.5668  -35.6657  -41.5299 H         1 UNK         0.0970 
    116 H116       16.0546  -33.1081  -41.4410 H         1 UNK         0.0612 
    117 H117       16.5449  -34.2544  -42.6529 H         1 UNK         0.0612 
@<TRIPOS>BOND
     1    1    2 1    
     2    1   62 1    
     3    1   63 1    
     4    1   64 1    
     5    2    3 2    
     6    2    4 am   BACKBONE|DICT|INTERRES
     7    4    5 1    
     8    4   65 1    
     9    5    6 1    
    10    5   25 1    
    11    5   66 1    
    12    6    7 1    
    13    6   67 1    
    14    6   68 1    
    15    7    8 1    
    16    8    9 1    
    17    8   69 1    
    18    8   70 1    
    19    9   10 ar   
    20    9   14 ar   
    21   10   11 ar   
    22   10   71 1    
    23   11   12 ar   
    24   11   61 1    
    25   12   13 ar   
    26   12   72 1    
    27   13   14 ar   
    28   13   15 1    
    29   14   73 1    
    30   15   16 1    
    31   15   74 1    
    32   15   75 1    
    33   16   17 1    
    34   17   18 1    
    35   17   76 1    
    36   17   77 1    
    37   18   19 1    
    38   18   27 1    
    39   18   78 1    
    40   19   20 am   BACKBONE|DICT|INTERRES
    41   19   79 1    
    42   20   21 2    
    43   20   22 1    
    44   22   23 1    
    45   22   24 1    
    46   22   80 1    
    47   23   81 1    
    48   23   82 1    
    49   23   83 1    
    50   24   25 am   BACKBONE|DICT|INTERRES
    51   24   84 1    
    52   25   26 2    
    53   27   28 2    
    54   27   29 am   BACKBONE|DICT|INTERRES
    55   29   30 1    
    56   29   85 1    
    57   30   31 1    
    58   30   32 1    
    59   30   86 1    
    60   31   87 1    
    61   31   88 1    
    62   31   89 1    
    63   32   33 2    
    64   32   34 am   BACKBONE|DICT|INTERRES
    65   34   35 1    
    66   34   90 1    
    67   35   36 1    
    68   35   37 1    
    69   35   91 1    
    70   36   92 1    
    71   36   93 1    
    72   36   94 1    
    73   37   38 2    
    74   37   39 am   BACKBONE|DICT|INTERRES
    75   39   40 1    
    76   39   95 1    
    77   40   41 1    
    78   40   42 1    
    79   40   96 1    
    80   41   97 1    
    81   41   98 1    
    82   41   99 1    
    83   42   43 2    
    84   42   44 am   BACKBONE|DICT|INTERRES
    85   44   45 1    
    86   44  100 1    
    87   45   46 1    
    88   45   47 1    
    89   45  101 1    
    90   46  102 1    
    91   46  103 1    
    92   46  104 1    
    93   47   48 2    
    94   47   49 am   BACKBONE|DICT|INTERRES
    95   49   50 1    
    96   49  105 1    
    97   50   51 1    
    98   50   52 1    
    99   50  106 1    
   100   51  107 1    
   101   51  108 1    
   102   51  109 1    
   103   52   53 2    
   104   52   54 am   BACKBONE|DICT|INTERRES
   105   54   55 1    
   106   54  110 1    
   107   55   56 1    
   108   55   59 1    
   109   55  111 1    
   110   56   57 am   BACKBONE|DICT|INTERRES
   111   56   58 2    
   112   57  112 1    
   113   57  113 1    
   114   59   60 1    
   115   59  114 1    
   116   59  115 1    
   117   60   61 1    
   118   61  116 1    
   119   61  117 1    
@<TRIPOS>SUBSTRUCTURE
     1 UNK         1 GROUP             0       ****    0 ROOT    
