@<TRIPOS>MOLECULE
3R8
117   119    1
SMALL
USER_CHARGES


@<TRIPOS>ATOM
      1 CA         22.0782  -29.7031  -47.9228 C.3       0 UNK        -0.2013 
      2 C          21.0698  -29.0577  -46.9858 C.2       0 UNK         0.4866 
      3 O          20.9591  -29.4628  -45.8287 O.2       0 UNK        -0.5176 
      4 N          20.3344  -28.0457  -47.4644 N.am      1 UNK        -0.4884 
      5 CA         19.3011  -27.3262  -46.7101 C.3       1 UNK         0.0853 
      6 C6         18.1960  -26.7780  -47.6482 C.3       10 UNK        -0.0849 
      7 S7         16.6101  -26.4916  -46.7875 S.3       10 UNK        -0.2776 
      8 C8         15.7624  -28.0937  -46.9839 C.3       10 UNK         0.0316 
      9 C9         16.2071  -29.1051  -45.9354 C.ar      10 UNK        -0.0863 
     10 C10        17.1260  -30.1089  -46.2558 C.ar      10 UNK        -0.1009 
     11 C11        17.5294  -31.0472  -45.2994 C.ar      10 UNK        -0.0712 
     12 C12        16.9753  -30.9832  -44.0124 C.ar      10 UNK        -0.0894 
     13 C13        16.0585  -29.9825  -43.6767 C.ar      10 UNK        -0.0745 
     14 C14        15.6802  -29.0461  -44.6428 C.ar      10 UNK        -0.0972 
     15 C15        15.4513  -29.9255  -42.2794 C.3       10 UNK         0.0209 
     16 S16        16.6884  -29.6716  -40.9636 S.3       10 UNK        -0.2568 
     17 C17        17.4007  -28.0493  -41.3940 C.3       10 UNK        -0.0983 
     18 CA         18.9465  -28.0554  -41.2671 C.3       3 UNK         0.0876 
     19 N          19.5670  -27.1454  -42.2291 N.am      3 UNK        -0.4424 
     20 C          20.8799  -27.0216  -42.4683 C.2       2 UNK         0.4918 
     21 O          21.7636  -27.6594  -41.8897 O.2       2 UNK        -0.4875 
     22 CA         21.2264  -26.0909  -43.6362 C.3       2 UNK         0.0481 
     23 CB         22.7289  -25.7845  -43.7671 C.3       2 UNK        -0.1831 
     24 N          20.7488  -26.7731  -44.8324 N.am      2 UNK        -0.4498 
     25 C          19.9086  -26.2812  -45.7466 C.2       1 UNK         0.5027 
     26 O          19.6071  -25.0892  -45.8289 O.2       1 UNK        -0.4969 
     27 C          19.4030  -27.7297  -39.8322 C.2       3 UNK         0.5005 
     28 O          19.2807  -26.5772  -39.4085 O.2       3 UNK        -0.5279 
     29 N          19.9436  -28.7398  -39.1358 N.am      4 UNK        -0.4463 
     30 CA         20.5599  -28.6742  -37.8043 C.3       4 UNK         0.0283 
     31 CB         19.4930  -28.3922  -36.7255 C.3       4 UNK        -0.1875 
     32 C          21.7618  -27.7069  -37.7170 C.2       4 UNK         0.4949 
     33 O          22.0711  -27.2207  -36.6277 O.2       4 UNK        -0.5039 
     34 N          22.4182  -27.4455  -38.8544 N.am      5 UNK        -0.4663 
     35 CA         23.5526  -26.5364  -38.9892 C.3       5 UNK         0.0242 
     36 CB         23.0583  -25.1856  -39.5481 C.3       5 UNK        -0.1982 
     37 C          24.6528  -27.2120  -39.8235 C.2       5 UNK         0.5017 
     38 O          24.8664  -28.4160  -39.6720 O.2       5 UNK        -0.5012 
     39 N          25.3482  -26.4327  -40.6640 N.am      6 UNK        -0.4439 
     40 CA         26.5762  -26.7960  -41.3846 C.3       6 UNK         0.0297 
     41 CB         27.0312  -25.5944  -42.2293 C.3       6 UNK        -0.2006 
     42 C          26.5116  -28.0611  -42.2612 C.2       6 UNK         0.4892 
     43 O          27.5422  -28.7116  -42.4395 O.2       6 UNK        -0.5089 
     44 N          25.3261  -28.3895  -42.7913 N.am      7 UNK        -0.4243 
     45 CA         25.1017  -29.5895  -43.6035 C.3       7 UNK         0.0196 
     46 CB         23.9056  -29.3528  -44.5376 C.3       7 UNK        -0.2007 
     47 C          24.8678  -30.8561  -42.7630 C.2       7 UNK         0.5020 
     48 O          24.9348  -31.9537  -43.3159 O.2       7 UNK        -0.5147 
     49 N          24.5547  -30.6895  -41.4679 N.am      8 UNK        -0.4734 
     50 CA         24.1876  -31.7250  -40.4906 C.3       8 UNK         0.0238 
     51 CB         25.3731  -32.6776  -40.2267 C.3       8 UNK        -0.1912 
     52 C          22.8851  -32.4864  -40.8215 C.2       8 UNK         0.5038 
     53 O          22.6268  -33.5268  -40.2133 O.2       8 UNK        -0.5046 
     54 N          22.0844  -31.9608  -41.7591 N.am      9 UNK        -0.4200 
     55 CA         20.7672  -32.4890  -42.1341 C.3       9 UNK         0.0839 
     56 C          19.6993  -32.2243  -41.0370 C.2       9 UNK         0.5513 
     57 N          18.6330  -33.0097  -41.0022 N.am      9 UNK        -0.7519 
     58 O          19.8190  -31.3001  -40.2354 O.2       9 UNK        -0.4960 
     59 C59        20.3303  -31.9610  -43.5284 C.3       10 UNK        -0.0876 
     60 S60        19.2433  -33.1473  -44.3910 S.3       10 UNK        -0.2414 
     61 C61        18.5436  -32.1135  -45.7235 C.3       10 UNK         0.0169 
     62 H62        21.9343  -30.7831  -47.9390 H         1 UNK         0.0903 
     63 H63        21.9812  -29.3331  -48.9432 H         1 UNK         0.0903 
     64 H64        23.0923  -29.4994  -47.5809 H         1 UNK         0.0903 
     65 H65        20.4948  -27.7209  -48.4079 H         1 UNK         0.3096 
     66 H66        18.8235  -28.0554  -46.0546 H         1 UNK         0.1121 
     67 H67        18.0126  -27.4799  -48.4633 H         1 UNK         0.0849 
     68 H68        18.5135  -25.8514  -48.1300 H         1 UNK         0.0849 
     69 H69        14.6876  -27.9313  -46.8891 H         1 UNK         0.0865 
     70 H70        15.9154  -28.4819  -47.9920 H         1 UNK         0.0865 
     71 H71        17.5373  -30.1562  -47.2552 H         1 UNK         0.1346 
     72 H72        17.2500  -31.7039  -43.2560 H         1 UNK         0.1412 
     73 H73        14.9681  -28.2710  -44.3932 H         1 UNK         0.1426 
     74 H74        14.9250  -30.8613  -42.0870 H         1 UNK         0.0716 
     75 H75        14.7024  -29.1349  -42.2115 H         1 UNK         0.0716 
     76 H76        16.9396  -27.2762  -40.7759 H         1 UNK         0.0695 
     77 H77        17.1120  -27.8100  -42.4177 H         1 UNK         0.0695 
     78 H78        19.3140  -29.0477  -41.5360 H         1 UNK         0.0983 
     79 H79        18.9323  -26.5656  -42.7569 H         1 UNK         0.3095 
     80 H80        20.6931  -25.1502  -43.4836 H         1 UNK         0.0454 
     81 H81        23.3169  -26.6843  -43.9278 H         1 UNK         0.0851 
     82 H82        23.1110  -25.2965  -42.8712 H         1 UNK         0.0851 
     83 H83        22.9185  -25.1137  -44.6050 H         1 UNK         0.0851 
     84 H84        20.9370  -27.7726  -44.8812 H         1 UNK         0.2976 
     85 H85        19.9545  -29.6653  -39.5688 H         1 UNK         0.3116 
     86 H86        20.9638  -29.6698  -37.6151 H         1 UNK         0.0646 
     87 H87        18.6613  -29.0930  -36.7970 H         1 UNK         0.0847 
     88 H88        19.0897  -27.3826  -36.8102 H         1 UNK         0.0847 
     89 H89        19.9117  -28.4911  -35.7234 H         1 UNK         0.0847 
     90 H90        22.1166  -27.8946  -39.7116 H         1 UNK         0.3040 
     91 H91        23.9993  -26.3552  -38.0093 H         1 UNK         0.1015 
     92 H92        22.6493  -25.2878  -40.5525 H         1 UNK         0.0786 
     93 H93        23.8552  -24.4418  -39.5776 H         1 UNK         0.0786 
     94 H94        22.2694  -24.7725  -38.9188 H         1 UNK         0.0786 
     95 H95        25.0766  -25.4619  -40.7214 H         1 UNK         0.3172 
     96 H96        27.3390  -26.9808  -40.6255 H         1 UNK         0.0595 
     97 H97        26.2861  -25.3225  -42.9782 H         1 UNK         0.0839 
     98 H98        27.9585  -25.8169  -42.7598 H         1 UNK         0.0839 
     99 H99        27.2214  -24.7184  -41.6088 H         1 UNK         0.0839 
    100 H100       24.5212  -27.8213  -42.5693 H         1 UNK         0.2998 
    101 H101       25.9815  -29.7714  -44.2248 H         1 UNK         0.0822 
    102 H102       24.0922  -28.5263  -45.2229 H         1 UNK         0.0787 
    103 H103       23.7059  -30.2340  -45.1491 H         1 UNK         0.0787 
    104 H104       22.9938  -29.1359  -43.9802 H         1 UNK         0.0787 
    105 H105       24.5777  -29.7466  -41.0881 H         1 UNK         0.3055 
    106 H106       23.9844  -31.1923  -39.5599 H         1 UNK         0.1106 
    107 H107       25.5913  -33.3042  -41.0918 H         1 UNK         0.0828 
    108 H108       25.1622  -33.3444  -39.3898 H         1 UNK         0.0828 
    109 H109       26.2777  -32.1238  -39.9758 H         1 UNK         0.0828 
    110 H110       22.3601  -31.0880  -42.1817 H         1 UNK         0.2931 
    111 H111       20.8912  -33.5718  -42.2066 H         1 UNK         0.0412 
    112 H112       17.9246  -32.8419  -40.3056 H         1 UNK         0.3472 
    113 H113       18.5194  -33.7559  -41.6707 H         1 UNK         0.3472 
    114 H114       21.2008  -31.8135  -44.1704 H         1 UNK         0.0970 
    115 H115       19.8497  -30.9831  -43.4559 H         1 UNK         0.0970 
    116 H116       19.3680  -31.6395  -46.2575 H         1 UNK         0.0612 
    117 H117       18.0566  -32.7773  -46.4388 H         1 UNK         0.0612 
@<TRIPOS>BOND
     1    1    2 1    
     2    1   62 1    
     3    1   63 1    
     4    1   64 1    
     5    2    3 2    
     6    2    4 am   BACKBONE|DICT|INTERRES
     7    4    5 1    
     8    4   65 1    
     9    5    6 1    
    10    5   25 1    
    11    5   66 1    
    12    6    7 1    
    13    6   67 1    
    14    6   68 1    
    15    7    8 1    
    16    8    9 1    
    17    8   69 1    
    18    8   70 1    
    19    9   10 ar   
    20    9   14 ar   
    21   10   11 ar   
    22   10   71 1    
    23   11   12 ar   
    24   11   61 1    
    25   12   13 ar   
    26   12   72 1    
    27   13   14 ar   
    28   13   15 1    
    29   14   73 1    
    30   15   16 1    
    31   15   74 1    
    32   15   75 1    
    33   16   17 1    
    34   17   18 1    
    35   17   76 1    
    36   17   77 1    
    37   18   19 1    
    38   18   27 1    
    39   18   78 1    
    40   19   20 am   BACKBONE|DICT|INTERRES
    41   19   79 1    
    42   20   21 2    
    43   20   22 1    
    44   22   23 1    
    45   22   24 1    
    46   22   80 1    
    47   23   81 1    
    48   23   82 1    
    49   23   83 1    
    50   24   25 am   BACKBONE|DICT|INTERRES
    51   24   84 1    
    52   25   26 2    
    53   27   28 2    
    54   27   29 am   BACKBONE|DICT|INTERRES
    55   29   30 1    
    56   29   85 1    
    57   30   31 1    
    58   30   32 1    
    59   30   86 1    
    60   31   87 1    
    61   31   88 1    
    62   31   89 1    
    63   32   33 2    
    64   32   34 am   BACKBONE|DICT|INTERRES
    65   34   35 1    
    66   34   90 1    
    67   35   36 1    
    68   35   37 1    
    69   35   91 1    
    70   36   92 1    
    71   36   93 1    
    72   36   94 1    
    73   37   38 2    
    74   37   39 am   BACKBONE|DICT|INTERRES
    75   39   40 1    
    76   39   95 1    
    77   40   41 1    
    78   40   42 1    
    79   40   96 1    
    80   41   97 1    
    81   41   98 1    
    82   41   99 1    
    83   42   43 2    
    84   42   44 am   BACKBONE|DICT|INTERRES
    85   44   45 1    
    86   44  100 1    
    87   45   46 1    
    88   45   47 1    
    89   45  101 1    
    90   46  102 1    
    91   46  103 1    
    92   46  104 1    
    93   47   48 2    
    94   47   49 am   BACKBONE|DICT|INTERRES
    95   49   50 1    
    96   49  105 1    
    97   50   51 1    
    98   50   52 1    
    99   50  106 1    
   100   51  107 1    
   101   51  108 1    
   102   51  109 1    
   103   52   53 2    
   104   52   54 am   BACKBONE|DICT|INTERRES
   105   54   55 1    
   106   54  110 1    
   107   55   56 1    
   108   55   59 1    
   109   55  111 1    
   110   56   57 am   BACKBONE|DICT|INTERRES
   111   56   58 2    
   112   57  112 1    
   113   57  113 1    
   114   59   60 1    
   115   59  114 1    
   116   59  115 1    
   117   60   61 1    
   118   61  116 1    
   119   61  117 1    
@<TRIPOS>SUBSTRUCTURE
     1 UNK         1 GROUP             0       ****    0 ROOT    
