@<TRIPOS>MOLECULE
3R8
117   119    1
SMALL
USER_CHARGES


@<TRIPOS>ATOM
      1 CA         20.1020  -25.1045  -38.9507 C.3       0 UNK        -0.2013 
      2 C          19.2547  -25.1817  -40.2122 C.2       0 UNK         0.4866 
      3 O          18.4486  -24.2856  -40.4653 O.2       0 UNK        -0.5176 
      4 N          19.4283  -26.2471  -41.0013 N.am      1 UNK        -0.4884 
      5 CA         18.7755  -26.4642  -42.2955 C.3       1 UNK         0.0853 
      6 C6         18.9757  -27.9176  -42.7971 C.3       10 UNK        -0.0849 
      7 S7         18.3195  -29.1789  -41.6510 S.3       10 UNK        -0.2776 
      8 C8         17.6832  -30.4442  -42.7991 C.3       10 UNK         0.0316 
      9 C9         18.7555  -30.9567  -43.7529 C.ar      10 UNK        -0.0863 
     10 C10        19.8095  -31.7432  -43.2766 C.ar      10 UNK        -0.1009 
     11 C11        20.7999  -32.2203  -44.1479 C.ar      10 UNK        -0.0712 
     12 C12        20.7231  -31.8843  -45.5028 C.ar      10 UNK        -0.0894 
     13 C13        19.6796  -31.0941  -45.9920 C.ar      10 UNK        -0.0745 
     14 C14        18.6908  -30.6444  -45.1137 C.ar      10 UNK        -0.0972 
     15 C15        19.6352  -30.7162  -47.4676 C.3       10 UNK         0.0209 
     16 S16        19.7399  -28.9155  -47.7380 S.3       10 UNK        -0.2568 
     17 C17        21.2717  -28.4864  -46.8403 C.3       10 UNK        -0.0983 
     18 CA         21.5275  -26.9575  -46.7870 C.3       3 UNK         0.0876 
     19 N          20.3783  -26.2476  -46.2243 N.am      3 UNK        -0.4424 
     20 C          20.0927  -24.9467  -46.3561 C.2       2 UNK         0.4918 
     21 O          20.7618  -24.1667  -47.0350 O.2       2 UNK        -0.4875 
     22 CA         18.8740  -24.4200  -45.5708 C.3       2 UNK         0.0481 
     23 CB         17.6586  -24.2880  -46.5018 C.3       2 UNK        -0.1831 
     24 N          18.5087  -25.2426  -44.4081 N.am      2 UNK        -0.4498 
     25 C          19.3069  -25.4760  -43.3550 C.2       1 UNK         0.5027 
     26 O          20.4422  -25.0036  -43.2501 O.2       1 UNK        -0.4969 
     27 C          22.8191  -26.6121  -46.0083 C.2       3 UNK         0.5005 
     28 O          23.3960  -27.4809  -45.3540 O.2       3 UNK        -0.5279 
     29 N          23.2356  -25.3393  -46.0762 N.am      4 UNK        -0.4463 
     30 CA         24.4688  -24.7703  -45.5161 C.3       4 UNK         0.0283 
     31 CB         25.6965  -25.2941  -46.2917 C.3       4 UNK        -0.1875 
     32 C          24.6140  -24.9408  -43.9884 C.2       4 UNK         0.4949 
     33 O          25.7171  -25.2033  -43.5067 O.2       4 UNK        -0.5039 
     34 N          23.5027  -24.7708  -43.2551 N.am      5 UNK        -0.4663 
     35 CA         23.3957  -24.8374  -41.7900 C.3       5 UNK         0.0242 
     36 CB         24.2172  -23.7157  -41.1170 C.3       5 UNK        -0.1982 
     37 C          23.6843  -26.2342  -41.2045 C.2       5 UNK         0.5017 
     38 O          24.1715  -26.3348  -40.0765 O.2       5 UNK        -0.5012 
     39 N          23.3549  -27.2881  -41.9651 N.am      6 UNK        -0.4439 
     40 CA         23.3495  -28.6817  -41.5083 C.3       6 UNK         0.0297 
     41 CB         23.1118  -29.5982  -42.7179 C.3       6 UNK        -0.2006 
     42 C          22.2792  -28.9264  -40.4272 C.2       6 UNK         0.4892 
     43 O          21.3263  -28.1528  -40.3255 O.2       6 UNK        -0.5089 
     44 N          22.4382  -29.9984  -39.6459 N.am      7 UNK        -0.4243 
     45 CA         21.5087  -30.3941  -38.5904 C.3       7 UNK         0.0196 
     46 CB         21.7477  -29.5458  -37.3262 C.3       7 UNK        -0.2007 
     47 C          21.6852  -31.8858  -38.2924 C.2       7 UNK         0.5020 
     48 O          22.7568  -32.4360  -38.5566 O.2       7 UNK        -0.5147 
     49 N          20.6325  -32.4956  -37.7267 N.am      8 UNK        -0.4734 
     50 CA         20.5232  -33.9145  -37.3485 C.3       8 UNK         0.0238 
     51 CB         21.5271  -34.2691  -36.2286 C.3       8 UNK        -0.1912 
     52 C          20.5975  -34.8808  -38.5504 C.2       8 UNK         0.5038 
     53 O          21.0957  -36.0001  -38.4112 O.2       8 UNK        -0.5046 
     54 N          20.0887  -34.4327  -39.7034 N.am      9 UNK        -0.4200 
     55 CA         20.0888  -35.1634  -40.9801 C.3       9 UNK         0.0839 
     56 C          18.8629  -34.8517  -41.8845 C.2       9 UNK         0.5513 
     57 N          17.8373  -34.1610  -41.3974 N.am      9 UNK        -0.7519 
     58 O          18.8203  -35.2731  -43.0375 O.2       9 UNK        -0.4960 
     59 C59        21.4573  -35.0805  -41.7155 C.3       10 UNK        -0.0876 
     60 S60        22.1240  -33.3874  -41.9021 S.3       10 UNK        -0.2414 
     61 C61        21.9840  -33.0794  -43.6968 C.3       10 UNK         0.0169 
     62 H62        20.7646  -25.9643  -38.8513 H         1 UNK         0.0903 
     63 H63        20.7168  -24.2049  -38.9671 H         1 UNK         0.0903 
     64 H64        19.4621  -25.0665  -38.0694 H         1 UNK         0.0903 
     65 H65        20.1084  -26.9628  -40.7370 H         1 UNK         0.3096 
     66 H66        17.7071  -26.2794  -42.1645 H         1 UNK         0.1121 
     67 H67        20.0353  -28.1287  -42.9546 H         1 UNK         0.0849 
     68 H68        18.4913  -28.0503  -43.7658 H         1 UNK         0.0849 
     69 H69        17.2900  -31.2804  -42.2194 H         1 UNK         0.0865 
     70 H70        16.8362  -30.0324  -43.3500 H         1 UNK         0.0865 
     71 H71        19.8457  -31.9703  -42.2215 H         1 UNK         0.1346 
     72 H72        21.4899  -32.2346  -46.1806 H         1 UNK         0.1412 
     73 H73        17.8822  -30.0338  -45.4919 H         1 UNK         0.1426 
     74 H74        18.7055  -31.0855  -47.9026 H         1 UNK         0.0716 
     75 H75        20.4446  -31.1991  -48.0175 H         1 UNK         0.0716 
     76 H76        22.1064  -28.9988  -47.3224 H         1 UNK         0.0695 
     77 H77        21.2062  -28.8873  -45.8271 H         1 UNK         0.0695 
     78 H78        21.6722  -26.6117  -47.8130 H         1 UNK         0.0983 
     79 H79        19.7617  -26.8076  -45.6577 H         1 UNK         0.3095 
     80 H80        19.1317  -23.4250  -45.2024 H         1 UNK         0.0454 
     81 H81        17.3379  -25.2562  -46.8885 H         1 UNK         0.0851 
     82 H82        17.8917  -23.6564  -47.3602 H         1 UNK         0.0851 
     83 H83        16.8117  -23.8319  -45.9891 H         1 UNK         0.0851 
     84 H84        17.5908  -25.6645  -44.4293 H         1 UNK         0.2976 
     85 H85        22.6333  -24.6907  -46.5753 H         1 UNK         0.3116 
     86 H86        24.4093  -23.6950  -45.6895 H         1 UNK         0.0646 
     87 H87        25.5912  -25.1273  -47.3635 H         1 UNK         0.0847 
     88 H88        25.8487  -26.3618  -46.1313 H         1 UNK         0.0847 
     89 H89        26.6079  -24.7849  -45.9758 H         1 UNK         0.0847 
     90 H90        22.6260  -24.6068  -43.7365 H         1 UNK         0.3040 
     91 H91        22.3490  -24.6427  -41.5538 H         1 UNK         0.1015 
     92 H92        25.2901  -23.8731  -41.2296 H         1 UNK         0.0786 
     93 H93        24.0083  -23.6670  -40.0475 H         1 UNK         0.0786 
     94 H94        23.9740  -22.7395  -41.5363 H         1 UNK         0.0786 
     95 H95        22.9945  -27.1120  -42.8929 H         1 UNK         0.3172 
     96 H96        24.3297  -28.9045  -41.0828 H         1 UNK         0.0595 
     97 H97        22.1339  -29.4314  -43.1710 H         1 UNK         0.0839 
     98 H98        23.1597  -30.6458  -42.4244 H         1 UNK         0.0839 
     99 H99        23.8677  -29.4469  -43.4884 H         1 UNK         0.0839 
    100 H100       23.2041  -30.6437  -39.7967 H         1 UNK         0.2998 
    101 H101       20.4872  -30.2383  -38.9463 H         1 UNK         0.0822 
    102 H102       21.5774  -28.4863  -37.5188 H         1 UNK         0.0787 
    103 H103       21.0725  -29.8382  -36.5212 H         1 UNK         0.0787 
    104 H104       22.7673  -29.6584  -36.9557 H         1 UNK         0.0787 
    105 H105       19.8093  -31.9376  -37.5408 H         1 UNK         0.3055 
    106 H106       19.5212  -34.0426  -36.9343 H         1 UNK         0.1106 
    107 H107       21.4450  -33.5799  -35.3878 H         1 UNK         0.0828 
    108 H108       22.5581  -34.2448  -36.5841 H         1 UNK         0.0828 
    109 H109       21.3428  -35.2719  -35.8411 H         1 UNK         0.0828 
    110 H110       19.7286  -33.4911  -39.7400 H         1 UNK         0.2931 
    111 H111       19.9383  -36.2165  -40.7353 H         1 UNK         0.0412 
    112 H112       17.0459  -33.9862  -41.9967 H         1 UNK         0.3472 
    113 H113       17.8029  -33.8795  -40.4315 H         1 UNK         0.3472 
    114 H114       21.4156  -35.5866  -42.6811 H         1 UNK         0.0970 
    115 H115       22.1943  -35.6422  -41.1399 H         1 UNK         0.0970 
    116 H116       22.9013  -32.5789  -44.0089 H         1 UNK         0.0612 
    117 H117       21.9632  -34.0265  -44.2359 H         1 UNK         0.0612 
@<TRIPOS>BOND
     1    1    2 1    
     2    1   62 1    
     3    1   63 1    
     4    1   64 1    
     5    2    3 2    
     6    2    4 am   BACKBONE|DICT|INTERRES
     7    4    5 1    
     8    4   65 1    
     9    5    6 1    
    10    5   25 1    
    11    5   66 1    
    12    6    7 1    
    13    6   67 1    
    14    6   68 1    
    15    7    8 1    
    16    8    9 1    
    17    8   69 1    
    18    8   70 1    
    19    9   10 ar   
    20    9   14 ar   
    21   10   11 ar   
    22   10   71 1    
    23   11   12 ar   
    24   11   61 1    
    25   12   13 ar   
    26   12   72 1    
    27   13   14 ar   
    28   13   15 1    
    29   14   73 1    
    30   15   16 1    
    31   15   74 1    
    32   15   75 1    
    33   16   17 1    
    34   17   18 1    
    35   17   76 1    
    36   17   77 1    
    37   18   19 1    
    38   18   27 1    
    39   18   78 1    
    40   19   20 am   BACKBONE|DICT|INTERRES
    41   19   79 1    
    42   20   21 2    
    43   20   22 1    
    44   22   23 1    
    45   22   24 1    
    46   22   80 1    
    47   23   81 1    
    48   23   82 1    
    49   23   83 1    
    50   24   25 am   BACKBONE|DICT|INTERRES
    51   24   84 1    
    52   25   26 2    
    53   27   28 2    
    54   27   29 am   BACKBONE|DICT|INTERRES
    55   29   30 1    
    56   29   85 1    
    57   30   31 1    
    58   30   32 1    
    59   30   86 1    
    60   31   87 1    
    61   31   88 1    
    62   31   89 1    
    63   32   33 2    
    64   32   34 am   BACKBONE|DICT|INTERRES
    65   34   35 1    
    66   34   90 1    
    67   35   36 1    
    68   35   37 1    
    69   35   91 1    
    70   36   92 1    
    71   36   93 1    
    72   36   94 1    
    73   37   38 2    
    74   37   39 am   BACKBONE|DICT|INTERRES
    75   39   40 1    
    76   39   95 1    
    77   40   41 1    
    78   40   42 1    
    79   40   96 1    
    80   41   97 1    
    81   41   98 1    
    82   41   99 1    
    83   42   43 2    
    84   42   44 am   BACKBONE|DICT|INTERRES
    85   44   45 1    
    86   44  100 1    
    87   45   46 1    
    88   45   47 1    
    89   45  101 1    
    90   46  102 1    
    91   46  103 1    
    92   46  104 1    
    93   47   48 2    
    94   47   49 am   BACKBONE|DICT|INTERRES
    95   49   50 1    
    96   49  105 1    
    97   50   51 1    
    98   50   52 1    
    99   50  106 1    
   100   51  107 1    
   101   51  108 1    
   102   51  109 1    
   103   52   53 2    
   104   52   54 am   BACKBONE|DICT|INTERRES
   105   54   55 1    
   106   54  110 1    
   107   55   56 1    
   108   55   59 1    
   109   55  111 1    
   110   56   57 am   BACKBONE|DICT|INTERRES
   111   56   58 2    
   112   57  112 1    
   113   57  113 1    
   114   59   60 1    
   115   59  114 1    
   116   59  115 1    
   117   60   61 1    
   118   61  116 1    
   119   61  117 1    
@<TRIPOS>SUBSTRUCTURE
     1 UNK         1 GROUP             0       ****    0 ROOT    
