@<TRIPOS>MOLECULE
3R8
117   119    1
SMALL
USER_CHARGES


@<TRIPOS>ATOM
      1 CA         17.3605  -26.4696  -40.5893 C.3       0 UNK        -0.2013 
      2 C          17.7230  -26.4267  -42.0650 C.2       0 UNK         0.4866 
      3 O          18.7668  -26.9548  -42.4520 O.2       0 UNK        -0.5176 
      4 N          16.8803  -25.7744  -42.8821 N.am      1 UNK        -0.4884 
      5 CA         16.9236  -25.7131  -44.3575 C.3       1 UNK         0.0853 
      6 C6         16.6881  -27.1017  -45.0117 C.3       10 UNK        -0.0849 
      7 S7         15.1320  -27.9150  -44.5068 S.3       10 UNK        -0.2776 
      8 C8         15.1304  -29.3829  -45.5931 C.3       10 UNK         0.0316 
      9 C9         16.3334  -30.2773  -45.3276 C.ar      10 UNK        -0.0863 
     10 C10        16.2840  -31.2603  -44.3349 C.ar      10 UNK        -0.1009 
     11 C11        17.4123  -32.0344  -44.0437 C.ar      10 UNK        -0.0712 
     12 C12        18.6063  -31.7902  -44.7357 C.ar      10 UNK        -0.0894 
     13 C13        18.6608  -30.8247  -45.7447 C.ar      10 UNK        -0.0745 
     14 C14        17.5119  -30.0947  -46.0554 C.ar      10 UNK        -0.0972 
     15 C15        19.9565  -30.5622  -46.5003 C.3       10 UNK         0.0209 
     16 S16        20.5356  -28.8455  -46.2972 S.3       10 UNK        -0.2568 
     17 C17        21.0387  -28.8390  -44.5467 C.3       10 UNK        -0.0983 
     18 CA         21.8083  -27.5469  -44.1820 C.3       3 UNK         0.0876 
     19 N          20.9657  -26.3510  -44.2688 N.am      3 UNK        -0.4424 
     20 C          21.4120  -25.0923  -44.3887 C.2       2 UNK         0.4918 
     21 O          22.6036  -24.8123  -44.5211 O.2       2 UNK        -0.4875 
     22 CA         20.3819  -23.9437  -44.2829 C.3       2 UNK         0.0481 
     23 CB         20.4989  -22.9533  -45.4598 C.3       2 UNK        -0.1831 
     24 N          18.9971  -24.3954  -44.0756 N.am      2 UNK        -0.4498 
     25 C          18.2025  -25.0534  -44.9347 C.2       1 UNK         0.5027 
     26 O          18.4682  -25.1945  -46.1288 O.2       1 UNK        -0.4969 
     27 C          22.4285  -27.6649  -42.7797 C.2       3 UNK         0.5005 
     28 O          23.5591  -28.1382  -42.6614 O.2       3 UNK        -0.5279 
     29 N          21.7079  -27.1819  -41.7531 N.am      4 UNK        -0.4463 
     30 CA         22.1050  -27.1410  -40.3387 C.3       4 UNK         0.0283 
     31 CB         20.9687  -26.5136  -39.5160 C.3       4 UNK        -0.1875 
     32 C          23.4351  -26.4229  -40.0402 C.2       4 UNK         0.4949 
     33 O          24.0131  -26.6578  -38.9794 O.2       4 UNK        -0.5039 
     34 N          23.9148  -25.5922  -40.9772 N.am      5 UNK        -0.4663 
     35 CA         25.2521  -24.9931  -40.9613 C.3       5 UNK         0.0242 
     36 CB         25.3509  -23.9609  -42.0959 C.3       5 UNK        -0.1982 
     37 C          26.3862  -26.0324  -41.0751 C.2       5 UNK         0.5017 
     38 O          27.4846  -25.7718  -40.5828 O.2       5 UNK        -0.5012 
     39 N          26.0982  -27.1823  -41.7007 N.am      6 UNK        -0.4439 
     40 CA         26.9663  -28.3554  -41.7560 C.3       6 UNK         0.0297 
     41 CB         27.0799  -28.8494  -43.2098 C.3       6 UNK        -0.2006 
     42 C          26.3986  -29.4384  -40.8278 C.2       6 UNK         0.4892 
     43 O          27.0415  -29.7773  -39.8340 O.2       6 UNK        -0.5089 
     44 N          25.1964  -29.9285  -41.1554 N.am      7 UNK        -0.4243 
     45 CA         24.4100  -30.9202  -40.4258 C.3       7 UNK         0.0196 
     46 CB         25.1541  -32.2662  -40.2921 C.3       7 UNK        -0.2007 
     47 C          23.1006  -31.1216  -41.1955 C.2       7 UNK         0.5020 
     48 O          23.1412  -31.4825  -42.3734 O.2       7 UNK        -0.5147 
     49 N          21.9623  -30.9081  -40.5278 N.am      8 UNK        -0.4734 
     50 CA         20.6327  -31.1409  -41.0913 C.3       8 UNK         0.0238 
     51 CB         19.6433  -30.0932  -40.5488 C.3       8 UNK        -0.1912 
     52 C          20.1956  -32.5749  -40.7665 C.2       8 UNK         0.5038 
     53 O          19.4956  -32.7891  -39.7753 O.2       8 UNK        -0.5046 
     54 N          20.6325  -33.5263  -41.6017 N.am      9 UNK        -0.4200 
     55 CA         20.2905  -34.9608  -41.5340 C.3       9 UNK         0.0839 
     56 C          20.8573  -35.7110  -40.2889 C.2       9 UNK         0.5513 
     57 N          21.8408  -35.1676  -39.5817 N.am      9 UNK        -0.7519 
     58 O          20.4267  -36.8183  -39.9761 O.2       9 UNK        -0.4960 
     59 C59        18.7729  -35.2368  -41.7660 C.3       10 UNK        -0.0876 
     60 S60        18.1945  -34.6428  -43.3929 S.3       10 UNK        -0.2414 
     61 C61        17.3397  -33.0922  -42.9468 C.3       10 UNK         0.0169 
     62 H62        17.5217  -27.4722  -40.1938 H         1 UNK         0.0903 
     63 H63        17.9824  -25.7737  -40.0276 H         1 UNK         0.0903 
     64 H64        16.3161  -26.2072  -40.4217 H         1 UNK         0.0903 
     65 H65        16.0621  -25.3415  -42.4749 H         1 UNK         0.3096 
     66 H66        16.1022  -25.0616  -44.6603 H         1 UNK         0.1121 
     67 H67        17.5213  -27.7600  -44.7618 H         1 UNK         0.0849 
     68 H68        16.6728  -27.0206  -46.1003 H         1 UNK         0.0849 
     69 H69        14.2080  -29.9432  -45.4329 H         1 UNK         0.0865 
     70 H70        15.1143  -29.0644  -46.6367 H         1 UNK         0.0865 
     71 H71        15.3697  -31.4083  -43.7762 H         1 UNK         0.1346 
     72 H72        19.4932  -32.3592  -44.4942 H         1 UNK         0.1412 
     73 H73        17.5555  -29.3414  -46.8302 H         1 UNK         0.1426 
     74 H74        19.7902  -30.7534  -47.5612 H         1 UNK         0.0716 
     75 H75        20.7441  -31.2480  -46.1839 H         1 UNK         0.0716 
     76 H76        21.6618  -29.7191  -44.3721 H         1 UNK         0.0695 
     77 H77        20.1509  -28.9562  -43.9214 H         1 UNK         0.0695 
     78 H78        22.6372  -27.4344  -44.8848 H         1 UNK         0.0983 
     79 H79        19.9794  -26.4989  -44.0923 H         1 UNK         0.3095 
     80 H80        20.6437  -23.3974  -43.3757 H         1 UNK         0.0454 
     81 H81        21.4862  -22.4902  -45.4797 H         1 UNK         0.0851 
     82 H82        19.7673  -22.1496  -45.3786 H         1 UNK         0.0851 
     83 H83        20.3576  -23.4425  -46.4236 H         1 UNK         0.0851 
     84 H84        18.6692  -24.3462  -43.1205 H         1 UNK         0.2976 
     85 H85        20.7653  -26.8682  -41.9623 H         1 UNK         0.3116 
     86 H86        22.2313  -28.1732  -40.0108 H         1 UNK         0.0646 
     87 H87        20.0584  -27.1077  -39.5785 H         1 UNK         0.0847 
     88 H88        21.2345  -26.4525  -38.4596 H         1 UNK         0.0847 
     89 H89        20.7375  -25.5024  -39.8528 H         1 UNK         0.0847 
     90 H90        23.3676  -25.4555  -41.8150 H         1 UNK         0.3040 
     91 H91        25.3786  -24.4750  -40.0080 H         1 UNK         0.1015 
     92 H92        26.3295  -23.4786  -42.1014 H         1 UNK         0.0786 
     93 H93        24.6040  -23.1746  -41.9841 H         1 UNK         0.0786 
     94 H94        25.2082  -24.4217  -43.0746 H         1 UNK         0.0786 
     95 H95        25.1488  -27.3210  -42.0398 H         1 UNK         0.3172 
     96 H96        27.9713  -28.1083  -41.4074 H         1 UNK         0.0595 
     97 H97        26.1064  -29.0665  -43.6513 H         1 UNK         0.0839 
     98 H98        27.6764  -29.7609  -43.2663 H         1 UNK         0.0839 
     99 H99        27.5677  -28.1044  -43.8385 H         1 UNK         0.0839 
    100 H100       24.7150  -29.5322  -41.9601 H         1 UNK         0.2998 
    101 H101       24.1953  -30.5238  -39.4315 H         1 UNK         0.0822 
    102 H102       24.5119  -33.0247  -39.8428 H         1 UNK         0.0787 
    103 H103       25.4763  -32.6449  -41.2630 H         1 UNK         0.0787 
    104 H104       26.0350  -32.1833  -39.6564 H         1 UNK         0.0787 
    105 H105       21.9996  -30.6634  -39.5481 H         1 UNK         0.3055 
    106 H106       20.6517  -31.0308  -42.1786 H         1 UNK         0.1106 
    107 H107       19.6325  -30.0613  -39.4589 H         1 UNK         0.0828 
    108 H108       18.6267  -30.3090  -40.8808 H         1 UNK         0.0828 
    109 H109       19.8865  -29.0982  -40.9157 H         1 UNK         0.0828 
    110 H110       21.2594  -33.2613  -42.3490 H         1 UNK         0.2931 
    111 H111       20.8222  -35.4115  -42.3729 H         1 UNK         0.0412 
    112 H112       22.2095  -35.6640  -38.7855 H         1 UNK         0.3472 
    113 H113       22.2055  -34.2629  -39.8292 H         1 UNK         0.3472 
    114 H114       18.1672  -34.8061  -40.9673 H         1 UNK         0.0970 
    115 H115       18.5745  -36.3097  -41.7389 H         1 UNK         0.0970 
    116 H116       17.7589  -32.6666  -42.0381 H         1 UNK         0.0612 
    117 H117       16.3015  -33.3356  -42.7162 H         1 UNK         0.0612 
@<TRIPOS>BOND
     1    1    2 1    
     2    1   62 1    
     3    1   63 1    
     4    1   64 1    
     5    2    3 2    
     6    2    4 am   BACKBONE|DICT|INTERRES
     7    4    5 1    
     8    4   65 1    
     9    5    6 1    
    10    5   25 1    
    11    5   66 1    
    12    6    7 1    
    13    6   67 1    
    14    6   68 1    
    15    7    8 1    
    16    8    9 1    
    17    8   69 1    
    18    8   70 1    
    19    9   10 ar   
    20    9   14 ar   
    21   10   11 ar   
    22   10   71 1    
    23   11   12 ar   
    24   11   61 1    
    25   12   13 ar   
    26   12   72 1    
    27   13   14 ar   
    28   13   15 1    
    29   14   73 1    
    30   15   16 1    
    31   15   74 1    
    32   15   75 1    
    33   16   17 1    
    34   17   18 1    
    35   17   76 1    
    36   17   77 1    
    37   18   19 1    
    38   18   27 1    
    39   18   78 1    
    40   19   20 am   BACKBONE|DICT|INTERRES
    41   19   79 1    
    42   20   21 2    
    43   20   22 1    
    44   22   23 1    
    45   22   24 1    
    46   22   80 1    
    47   23   81 1    
    48   23   82 1    
    49   23   83 1    
    50   24   25 am   BACKBONE|DICT|INTERRES
    51   24   84 1    
    52   25   26 2    
    53   27   28 2    
    54   27   29 am   BACKBONE|DICT|INTERRES
    55   29   30 1    
    56   29   85 1    
    57   30   31 1    
    58   30   32 1    
    59   30   86 1    
    60   31   87 1    
    61   31   88 1    
    62   31   89 1    
    63   32   33 2    
    64   32   34 am   BACKBONE|DICT|INTERRES
    65   34   35 1    
    66   34   90 1    
    67   35   36 1    
    68   35   37 1    
    69   35   91 1    
    70   36   92 1    
    71   36   93 1    
    72   36   94 1    
    73   37   38 2    
    74   37   39 am   BACKBONE|DICT|INTERRES
    75   39   40 1    
    76   39   95 1    
    77   40   41 1    
    78   40   42 1    
    79   40   96 1    
    80   41   97 1    
    81   41   98 1    
    82   41   99 1    
    83   42   43 2    
    84   42   44 am   BACKBONE|DICT|INTERRES
    85   44   45 1    
    86   44  100 1    
    87   45   46 1    
    88   45   47 1    
    89   45  101 1    
    90   46  102 1    
    91   46  103 1    
    92   46  104 1    
    93   47   48 2    
    94   47   49 am   BACKBONE|DICT|INTERRES
    95   49   50 1    
    96   49  105 1    
    97   50   51 1    
    98   50   52 1    
    99   50  106 1    
   100   51  107 1    
   101   51  108 1    
   102   51  109 1    
   103   52   53 2    
   104   52   54 am   BACKBONE|DICT|INTERRES
   105   54   55 1    
   106   54  110 1    
   107   55   56 1    
   108   55   59 1    
   109   55  111 1    
   110   56   57 am   BACKBONE|DICT|INTERRES
   111   56   58 2    
   112   57  112 1    
   113   57  113 1    
   114   59   60 1    
   115   59  114 1    
   116   59  115 1    
   117   60   61 1    
   118   61  116 1    
   119   61  117 1    
@<TRIPOS>SUBSTRUCTURE
     1 UNK         1 GROUP             0       ****    0 ROOT    
