@<TRIPOS>MOLECULE
3R8
117   119    1
SMALL
USER_CHARGES


@<TRIPOS>ATOM
      1 CA         22.5705  -30.2455  -46.2080 C.3       0 UNK        -0.2013 
      2 C          21.4115  -29.3147  -46.5295 C.2       0 UNK         0.4866 
      3 O          21.4758  -28.5627  -47.5002 O.2       0 UNK        -0.5176 
      4 N          20.3647  -29.3368  -45.6950 N.am      1 UNK        -0.4884 
      5 CA         19.1250  -28.5471  -45.7781 C.3       1 UNK         0.0853 
      6 C6         18.3457  -28.7486  -47.1067 C.3       10 UNK        -0.0849 
      7 S7         16.5914  -28.2397  -47.0249 S.3       10 UNK        -0.2776 
      8 C8         15.7583  -29.7319  -46.3846 C.3       10 UNK         0.0316 
      9 C9         16.1276  -30.0487  -44.9387 C.ar      10 UNK        -0.0863 
     10 C10        16.6956  -31.2865  -44.6173 C.ar      10 UNK        -0.1009 
     11 C11        17.0252  -31.5949  -43.2942 C.ar      10 UNK        -0.0712 
     12 C12        16.7899  -30.6518  -42.2900 C.ar      10 UNK        -0.0894 
     13 C13        16.2419  -29.4038  -42.5963 C.ar      10 UNK        -0.0745 
     14 C14        15.8983  -29.1131  -43.9210 C.ar      10 UNK        -0.0972 
     15 C15        16.0086  -28.3847  -41.4870 C.3       10 UNK         0.0209 
     16 S16        17.2674  -27.0646  -41.4550 S.3       10 UNK        -0.2568 
     17 C17        18.8090  -27.9940  -41.1319 C.3       10 UNK        -0.0983 
     18 CA         20.1021  -27.1458  -41.2697 C.3       3 UNK         0.0876 
     19 N          20.1061  -26.3682  -42.5144 N.am      3 UNK        -0.4424 
     20 C          21.1393  -25.7540  -43.1035 C.2       2 UNK         0.4918 
     21 O          22.2161  -25.5442  -42.5451 O.2       2 UNK        -0.4875 
     22 CA         20.9411  -25.3693  -44.5858 C.3       2 UNK         0.0481 
     23 CB         22.2129  -24.7741  -45.2168 C.3       2 UNK        -0.1831 
     24 N          20.5276  -26.5493  -45.3545 N.am      2 UNK        -0.4498 
     25 C          19.2928  -27.0705  -45.3527 C.2       1 UNK         0.5027 
     26 O          18.3290  -26.4631  -44.8853 O.2       1 UNK        -0.4969 
     27 C          20.4544  -26.3630  -39.9881 C.2       3 UNK         0.5005 
     28 O          20.7125  -26.9881  -38.9584 O.2       3 UNK        -0.5279 
     29 N          20.5233  -25.0274  -40.0737 N.am      4 UNK        -0.4463 
     30 CA         21.0973  -24.1561  -39.0455 C.3       4 UNK         0.0283 
     31 CB         20.7597  -22.6937  -39.3771 C.3       4 UNK        -0.1875 
     32 C          22.6220  -24.3314  -38.8837 C.2       4 UNK         0.4949 
     33 O          23.1415  -24.0389  -37.8063 O.2       4 UNK        -0.5039 
     34 N          23.3056  -24.7966  -39.9396 N.am      5 UNK        -0.4663 
     35 CA         24.7446  -25.0680  -39.9572 C.3       5 UNK         0.0242 
     36 CB         25.4556  -24.0184  -40.8284 C.3       5 UNK        -0.1982 
     37 C          25.0338  -26.4878  -40.4629 C.2       5 UNK         0.5017 
     38 O          25.7633  -27.2300  -39.8043 O.2       5 UNK        -0.5012 
     39 N          24.4437  -26.8595  -41.6066 N.am      6 UNK        -0.4439 
     40 CA         24.5741  -28.1680  -42.2482 C.3       6 UNK         0.0297 
     41 CB         24.4009  -28.0031  -43.7695 C.3       6 UNK        -0.2006 
     42 C          23.5674  -29.1617  -41.6465 C.2       6 UNK         0.4892 
     43 O          22.6566  -29.6215  -42.3377 O.2       6 UNK        -0.5089 
     44 N          23.7419  -29.4508  -40.3504 N.am      7 UNK        -0.4243 
     45 CA         22.9009  -30.3594  -39.5656 C.3       7 UNK         0.0196 
     46 CB         23.2433  -30.2016  -38.0761 C.3       7 UNK        -0.2007 
     47 C          23.0135  -31.8327  -39.9971 C.2       7 UNK         0.5020 
     48 O          22.0778  -32.6002  -39.7732 O.2       7 UNK        -0.5147 
     49 N          24.1293  -32.2047  -40.6405 N.am      8 UNK        -0.4734 
     50 CA         24.3570  -33.5122  -41.2652 C.3       8 UNK         0.0238 
     51 CB         25.8738  -33.7682  -41.3457 C.3       8 UNK        -0.1912 
     52 C          23.6641  -33.6010  -42.6416 C.2       8 UNK         0.5038 
     53 O          24.3191  -33.8596  -43.6528 O.2       8 UNK        -0.5046 
     54 N          22.3524  -33.3460  -42.6523 N.am      9 UNK        -0.4200 
     55 CA         21.4863  -33.2963  -43.8373 C.3       9 UNK         0.0839 
     56 C          21.0419  -34.6794  -44.3955 C.2       9 UNK         0.5513 
     57 N          21.3487  -35.7934  -43.7416 N.am      9 UNK        -0.7519 
     58 O          20.4179  -34.7410  -45.4514 O.2       9 UNK        -0.4960 
     59 C59        20.2924  -32.3352  -43.5994 C.3       10 UNK        -0.0876 
     60 S60        19.2563  -32.8073  -42.1708 S.3       10 UNK        -0.2414 
     61 C61        17.6130  -32.9541  -42.9385 C.3       10 UNK         0.0169 
     62 H62        23.5161  -29.7859  -46.4946 H         1 UNK         0.0903 
     63 H63        22.6198  -30.4728  -45.1430 H         1 UNK         0.0903 
     64 H64        22.4667  -31.1802  -46.7583 H         1 UNK         0.0903 
     65 H65        20.4152  -29.9387  -44.8863 H         1 UNK         0.3096 
     66 H66        18.5180  -28.9731  -44.9816 H         1 UNK         0.1121 
     67 H67        18.8259  -28.1963  -47.9160 H         1 UNK         0.0849 
     68 H68        18.3800  -29.7983  -47.4023 H         1 UNK         0.0849 
     69 H69        15.9807  -30.5739  -47.0420 H         1 UNK         0.0865 
     70 H70        14.6796  -29.5802  -46.4415 H         1 UNK         0.0865 
     71 H71        16.8733  -32.0156  -45.3962 H         1 UNK         0.1346 
     72 H72        17.0470  -30.8896  -41.2667 H         1 UNK         0.1412 
     73 H73        15.4700  -28.1497  -44.1636 H         1 UNK         0.1426 
     74 H74        15.9848  -28.8753  -40.5126 H         1 UNK         0.0716 
     75 H75        15.0267  -27.9281  -41.6192 H         1 UNK         0.0716 
     76 H76        18.8639  -28.8102  -41.8531 H         1 UNK         0.0695 
     77 H77        18.7433  -28.4734  -40.1532 H         1 UNK         0.0695 
     78 H78        20.9220  -27.8577  -41.3718 H         1 UNK         0.0983 
     79 H79        19.2456  -26.4280  -43.0498 H         1 UNK         0.3095 
     80 H80        20.1570  -24.6110  -44.6305 H         1 UNK         0.0454 
     81 H81        23.0454  -25.4779  -45.1981 H         1 UNK         0.0851 
     82 H82        22.5318  -23.8786  -44.6817 H         1 UNK         0.0851 
     83 H83        22.0421  -24.4858  -46.2540 H         1 UNK         0.0851 
     84 H84        21.2618  -27.1079  -45.7694 H         1 UNK         0.2976 
     85 H85        20.2883  -24.6008  -40.9583 H         1 UNK         0.3116 
     86 H86        20.6325  -24.4072  -38.0896 H         1 UNK         0.0646 
     87 H87        19.6823  -22.5353  -39.4274 H         1 UNK         0.0847 
     88 H88        21.1914  -22.3846  -40.3299 H         1 UNK         0.0847 
     89 H89        21.1483  -22.0212  -38.6110 H         1 UNK         0.0847 
     90 H90        22.7921  -25.0178  -40.7874 H         1 UNK         0.3040 
     91 H91        25.1544  -25.0042  -38.9465 H         1 UNK         0.1015 
     92 H92        25.3276  -23.0163  -40.4188 H         1 UNK         0.0786 
     93 H93        25.0739  -24.0116  -41.8503 H         1 UNK         0.0786 
     94 H94        26.5278  -24.2130  -40.8793 H         1 UNK         0.0786 
     95 H95        23.7808  -26.2231  -42.0447 H         1 UNK         0.3172 
     96 H96        25.5777  -28.5598  -42.0696 H         1 UNK         0.0595 
     97 H97        23.3956  -27.6731  -44.0318 H         1 UNK         0.0839 
     98 H98        24.5770  -28.9497  -44.2812 H         1 UNK         0.0839 
     99 H99        25.1086  -27.2802  -44.1752 H         1 UNK         0.0839 
    100 H100       24.5015  -28.9878  -39.8642 H         1 UNK         0.2998 
    101 H101       21.8608  -30.0586  -39.7113 H         1 UNK         0.0822 
    102 H102       23.0776  -29.1777  -37.7393 H         1 UNK         0.0787 
    103 H103       22.6166  -30.8487  -37.4607 H         1 UNK         0.0787 
    104 H104       24.2827  -30.4608  -37.8703 H         1 UNK         0.0787 
    105 H105       24.8342  -31.5002  -40.8018 H         1 UNK         0.3055 
    106 H106       23.9205  -34.2902  -40.6344 H         1 UNK         0.1106 
    107 H107       26.0822  -34.7513  -41.7701 H         1 UNK         0.0828 
    108 H108       26.3769  -33.0298  -41.9712 H         1 UNK         0.0828 
    109 H109       26.3339  -33.7411  -40.3578 H         1 UNK         0.0828 
    110 H110       21.8994  -33.1441  -41.7675 H         1 UNK         0.2931 
    111 H111       22.0802  -32.8538  -44.6388 H         1 UNK         0.0412 
    112 H112       21.8572  -35.7518  -42.8733 H         1 UNK         0.3472 
    113 H113       21.0597  -36.6832  -44.1169 H         1 UNK         0.3472 
    114 H114       20.6724  -31.3323  -43.4011 H         1 UNK         0.0970 
    115 H115       19.6816  -32.2497  -44.5000 H         1 UNK         0.0970 
    116 H116       16.9432  -33.4538  -42.2376 H         1 UNK         0.0612 
    117 H117       17.6804  -33.6008  -43.8150 H         1 UNK         0.0612 
@<TRIPOS>BOND
     1    1    2 1    
     2    1   62 1    
     3    1   63 1    
     4    1   64 1    
     5    2    3 2    
     6    2    4 am   BACKBONE|DICT|INTERRES
     7    4    5 1    
     8    4   65 1    
     9    5    6 1    
    10    5   25 1    
    11    5   66 1    
    12    6    7 1    
    13    6   67 1    
    14    6   68 1    
    15    7    8 1    
    16    8    9 1    
    17    8   69 1    
    18    8   70 1    
    19    9   10 ar   
    20    9   14 ar   
    21   10   11 ar   
    22   10   71 1    
    23   11   12 ar   
    24   11   61 1    
    25   12   13 ar   
    26   12   72 1    
    27   13   14 ar   
    28   13   15 1    
    29   14   73 1    
    30   15   16 1    
    31   15   74 1    
    32   15   75 1    
    33   16   17 1    
    34   17   18 1    
    35   17   76 1    
    36   17   77 1    
    37   18   19 1    
    38   18   27 1    
    39   18   78 1    
    40   19   20 am   BACKBONE|DICT|INTERRES
    41   19   79 1    
    42   20   21 2    
    43   20   22 1    
    44   22   23 1    
    45   22   24 1    
    46   22   80 1    
    47   23   81 1    
    48   23   82 1    
    49   23   83 1    
    50   24   25 am   BACKBONE|DICT|INTERRES
    51   24   84 1    
    52   25   26 2    
    53   27   28 2    
    54   27   29 am   BACKBONE|DICT|INTERRES
    55   29   30 1    
    56   29   85 1    
    57   30   31 1    
    58   30   32 1    
    59   30   86 1    
    60   31   87 1    
    61   31   88 1    
    62   31   89 1    
    63   32   33 2    
    64   32   34 am   BACKBONE|DICT|INTERRES
    65   34   35 1    
    66   34   90 1    
    67   35   36 1    
    68   35   37 1    
    69   35   91 1    
    70   36   92 1    
    71   36   93 1    
    72   36   94 1    
    73   37   38 2    
    74   37   39 am   BACKBONE|DICT|INTERRES
    75   39   40 1    
    76   39   95 1    
    77   40   41 1    
    78   40   42 1    
    79   40   96 1    
    80   41   97 1    
    81   41   98 1    
    82   41   99 1    
    83   42   43 2    
    84   42   44 am   BACKBONE|DICT|INTERRES
    85   44   45 1    
    86   44  100 1    
    87   45   46 1    
    88   45   47 1    
    89   45  101 1    
    90   46  102 1    
    91   46  103 1    
    92   46  104 1    
    93   47   48 2    
    94   47   49 am   BACKBONE|DICT|INTERRES
    95   49   50 1    
    96   49  105 1    
    97   50   51 1    
    98   50   52 1    
    99   50  106 1    
   100   51  107 1    
   101   51  108 1    
   102   51  109 1    
   103   52   53 2    
   104   52   54 am   BACKBONE|DICT|INTERRES
   105   54   55 1    
   106   54  110 1    
   107   55   56 1    
   108   55   59 1    
   109   55  111 1    
   110   56   57 am   BACKBONE|DICT|INTERRES
   111   56   58 2    
   112   57  112 1    
   113   57  113 1    
   114   59   60 1    
   115   59  114 1    
   116   59  115 1    
   117   60   61 1    
   118   61  116 1    
   119   61  117 1    
@<TRIPOS>SUBSTRUCTURE
     1 UNK         1 GROUP             0       ****    0 ROOT    
