@<TRIPOS>MOLECULE
3R8
117   119    1
SMALL
USER_CHARGES


@<TRIPOS>ATOM
      1 CA         17.1496  -22.4066  -39.0639 C.3       0 UNK        -0.2013 
      2 C          17.3547  -23.3237  -40.2604 C.2       0 UNK         0.4866 
      3 O          17.5398  -22.8404  -41.3777 O.2       0 UNK        -0.5176 
      4 N          17.3152  -24.6435  -40.0380 N.am      1 UNK        -0.4884 
      5 CA         17.5663  -25.6671  -41.0560 C.3       1 UNK         0.0853 
      6 C6         17.0591  -27.0543  -40.5825 C.3       10 UNK        -0.0849 
      7 S7         16.8625  -28.2399  -41.9542 S.3       10 UNK        -0.2776 
      8 C8         18.3963  -29.2130  -41.8039 C.3       10 UNK         0.0316 
      9 C9         18.6430  -30.0634  -43.0398 C.ar      10 UNK        -0.0863 
     10 C10        18.6840  -31.4581  -42.9508 C.ar      10 UNK        -0.1009 
     11 C11        18.9660  -32.2342  -44.0796 C.ar      10 UNK        -0.0712 
     12 C12        19.1626  -31.6061  -45.3139 C.ar      10 UNK        -0.0894 
     13 C13        19.0932  -30.2139  -45.4195 C.ar      10 UNK        -0.0745 
     14 C14        18.8548  -29.4481  -44.2766 C.ar      10 UNK        -0.0972 
     15 C15        19.2549  -29.5325  -46.7670 C.3       10 UNK         0.0209 
     16 S16        21.0042  -29.1854  -47.1194 S.3       10 UNK        -0.2568 
     17 C17        20.9667  -27.4381  -47.6700 C.3       10 UNK        -0.0983 
     18 CA         21.8965  -26.4816  -46.8649 C.3       3 UNK         0.0876 
     19 N          21.6521  -26.4891  -45.4247 N.am      3 UNK        -0.4424 
     20 C          20.6273  -25.9185  -44.7935 C.2       2 UNK         0.4918 
     21 O          19.6602  -25.4027  -45.3599 O.2       2 UNK        -0.4875 
     22 CA         20.7295  -25.8779  -43.2632 C.3       2 UNK         0.0481 
     23 CB         21.6822  -24.7416  -42.8328 C.3       2 UNK        -0.1831 
     24 N          19.3913  -25.6983  -42.7024 N.am      2 UNK        -0.4498 
     25 C          19.0682  -25.7105  -41.4040 C.2       1 UNK         0.5027 
     26 O          19.8881  -25.7985  -40.4882 O.2       1 UNK        -0.4969 
     27 C          23.4093  -26.7114  -47.0410 C.2       3 UNK         0.5005 
     28 O          24.2016  -25.9799  -46.4420 O.2       3 UNK        -0.5279 
     29 N          23.7930  -27.7493  -47.7965 N.am      4 UNK        -0.4463 
     30 CA         25.1206  -28.3660  -47.7223 C.3       4 UNK         0.0283 
     31 CB         25.3245  -29.2919  -48.9318 C.3       4 UNK        -0.1875 
     32 C          25.3053  -29.1450  -46.4035 C.2       4 UNK         0.4949 
     33 O          26.4276  -29.2374  -45.9061 O.2       4 UNK        -0.5039 
     34 N          24.1985  -29.6677  -45.8553 N.am      5 UNK        -0.4663 
     35 CA         24.1125  -30.2410  -44.5145 C.3       5 UNK         0.0242 
     36 CB         22.9580  -31.2564  -44.4856 C.3       5 UNK        -0.1982 
     37 C          23.8765  -29.1343  -43.4723 C.2       5 UNK         0.5017 
     38 O          23.3982  -28.0491  -43.8154 O.2       5 UNK        -0.5012 
     39 N          24.2003  -29.4433  -42.2133 N.am      6 UNK        -0.4439 
     40 CA         23.9700  -28.5811  -41.0535 C.3       6 UNK         0.0297 
     41 CB         25.0474  -28.9000  -39.9990 C.3       6 UNK        -0.2006 
     42 C          22.5512  -28.7727  -40.4831 C.2       6 UNK         0.4892 
     43 O          21.7482  -29.5288  -41.0369 O.2       6 UNK        -0.5089 
     44 N          22.2785  -28.1065  -39.3518 N.am      7 UNK        -0.4243 
     45 CA         21.0699  -28.2918  -38.5438 C.3       7 UNK         0.0196 
     46 CB         21.0948  -27.3229  -37.3520 C.3       7 UNK        -0.2007 
     47 C          20.9331  -29.7462  -38.0639 C.2       7 UNK         0.5020 
     48 O          21.9363  -30.3691  -37.7071 O.2       7 UNK        -0.5147 
     49 N          19.7015  -30.2726  -38.1225 N.am      8 UNK        -0.4734 
     50 CA         19.3409  -31.6825  -37.8985 C.3       8 UNK         0.0238 
     51 CB         19.5403  -32.0701  -36.4172 C.3       8 UNK        -0.1912 
     52 C          20.0425  -32.6647  -38.8654 C.2       8 UNK         0.5038 
     53 O          20.1740  -33.8462  -38.5422 O.2       8 UNK        -0.5046 
     54 N          20.4731  -32.1596  -40.0310 N.am      9 UNK        -0.4200 
     55 CA         21.2648  -32.8583  -41.0526 C.3       9 UNK         0.0839 
     56 C          22.7578  -33.0784  -40.6595 C.2       9 UNK         0.5513 
     57 N          23.2734  -32.4382  -39.6149 N.am      9 UNK        -0.7519 
     58 O          23.4751  -33.8202  -41.3247 O.2       9 UNK        -0.4960 
     59 C59        20.5564  -34.1347  -41.6011 C.3       10 UNK        -0.0876 
     60 S60        20.6897  -34.3087  -43.4147 S.3       10 UNK        -0.2414 
     61 C61        19.0462  -33.7508  -43.9737 C.3       10 UNK         0.0169 
     62 H62        16.2860  -21.7627  -39.2282 H         1 UNK         0.0903 
     63 H63        16.9847  -22.9664  -38.1434 H         1 UNK         0.0903 
     64 H64        18.0251  -21.7732  -38.9230 H         1 UNK         0.0903 
     65 H65        17.1938  -24.9824  -39.0941 H         1 UNK         0.3096 
     66 H66        17.0051  -25.3821  -41.9493 H         1 UNK         0.1121 
     67 H67        17.6987  -27.4733  -39.8029 H         1 UNK         0.0849 
     68 H68        16.0735  -26.9464  -40.1263 H         1 UNK         0.0849 
     69 H69        19.2531  -28.5532  -41.6661 H         1 UNK         0.0865 
     70 H70        18.3375  -29.8340  -40.9094 H         1 UNK         0.0865 
     71 H71        18.5149  -31.9426  -42.0001 H         1 UNK         0.1346 
     72 H72        19.3672  -32.1998  -46.1943 H         1 UNK         0.1412 
     73 H73        18.8165  -28.3702  -44.3514 H         1 UNK         0.1426 
     74 H74        18.6594  -28.6193  -46.7818 H         1 UNK         0.0716 
     75 H75        18.8534  -30.1656  -47.5595 H         1 UNK         0.0716 
     76 H76        21.2135  -27.4046  -48.7326 H         1 UNK         0.0695 
     77 H77        19.9474  -27.0564  -47.6149 H         1 UNK         0.0695 
     78 H78        21.7143  -25.4665  -47.2244 H         1 UNK         0.0983 
     79 H79        22.3959  -26.9122  -44.8683 H         1 UNK         0.3095 
     80 H80        21.1188  -26.8365  -42.9141 H         1 UNK         0.0454 
     81 H81        22.6525  -24.8361  -43.3226 H         1 UNK         0.0851 
     82 H82        21.2796  -23.7618  -43.0914 H         1 UNK         0.0851 
     83 H83        21.8743  -24.7534  -41.7606 H         1 UNK         0.0851 
     84 H84        18.6671  -25.6004  -43.4040 H         1 UNK         0.2976 
     85 H85        23.0667  -28.2902  -48.2472 H         1 UNK         0.3116 
     86 H86        25.8768  -27.5788  -47.7592 H         1 UNK         0.0646 
     87 H87        26.3160  -29.7465  -48.9098 H         1 UNK         0.0847 
     88 H88        25.2418  -28.7435  -49.8703 H         1 UNK         0.0847 
     89 H89        24.5953  -30.1029  -48.9501 H         1 UNK         0.0847 
     90 H90        23.3135  -29.5019  -46.3143 H         1 UNK         0.3040 
     91 H91        25.0473  -30.7572  -44.2840 H         1 UNK         0.1015 
     92 H92        23.0497  -31.9937  -45.2832 H         1 UNK         0.0786 
     93 H93        21.9868  -30.7698  -44.5883 H         1 UNK         0.0786 
     94 H94        22.9464  -31.8043  -43.5439 H         1 UNK         0.0786 
     95 H95        24.5248  -30.3779  -42.0128 H         1 UNK         0.3172 
     96 H96        24.0737  -27.5358  -41.3523 H         1 UNK         0.0595 
     97 H97        26.0497  -28.8290  -40.4223 H         1 UNK         0.0839 
     98 H98        24.9274  -29.9046  -39.5910 H         1 UNK         0.0839 
     99 H99        25.0106  -28.2026  -39.1617 H         1 UNK         0.0839 
    100 H100       22.9945  -27.5173  -38.9545 H         1 UNK         0.2998 
    101 H101       20.2135  -28.0491  -39.1747 H         1 UNK         0.0822 
    102 H102       21.1370  -26.2862  -37.6876 H         1 UNK         0.0787 
    103 H103       20.1956  -27.4285  -36.7437 H         1 UNK         0.0787 
    104 H104       21.9522  -27.5041  -36.7023 H         1 UNK         0.0787 
    105 H105       18.9383  -29.6719  -38.4025 H         1 UNK         0.3055 
    106 H106       18.2751  -31.7662  -38.1180 H         1 UNK         0.1106 
    107 H107       20.5949  -32.0903  -36.1412 H         1 UNK         0.0828 
    108 H108       19.0326  -31.3719  -35.7519 H         1 UNK         0.0828 
    109 H109       19.1341  -33.0615  -36.2130 H         1 UNK         0.0828 
    110 H110       20.3981  -31.1620  -40.1800 H         1 UNK         0.2931 
    111 H111       21.3083  -32.1321  -41.8639 H         1 UNK         0.0412 
    112 H112       24.2377  -32.5968  -39.3711 H         1 UNK         0.3472 
    113 H113       22.7084  -31.8110  -39.0546 H         1 UNK         0.3472 
    114 H114       19.4981  -34.1321  -41.3390 H         1 UNK         0.0970 
    115 H115       20.9555  -35.0351  -41.1305 H         1 UNK         0.0970 
    116 H116       18.2691  -34.1277  -43.3074 H         1 UNK         0.0612 
    117 H117       18.8461  -34.1996  -44.9478 H         1 UNK         0.0612 
@<TRIPOS>BOND
     1    1    2 1    
     2    1   62 1    
     3    1   63 1    
     4    1   64 1    
     5    2    3 2    
     6    2    4 am   BACKBONE|DICT|INTERRES
     7    4    5 1    
     8    4   65 1    
     9    5    6 1    
    10    5   25 1    
    11    5   66 1    
    12    6    7 1    
    13    6   67 1    
    14    6   68 1    
    15    7    8 1    
    16    8    9 1    
    17    8   69 1    
    18    8   70 1    
    19    9   10 ar   
    20    9   14 ar   
    21   10   11 ar   
    22   10   71 1    
    23   11   12 ar   
    24   11   61 1    
    25   12   13 ar   
    26   12   72 1    
    27   13   14 ar   
    28   13   15 1    
    29   14   73 1    
    30   15   16 1    
    31   15   74 1    
    32   15   75 1    
    33   16   17 1    
    34   17   18 1    
    35   17   76 1    
    36   17   77 1    
    37   18   19 1    
    38   18   27 1    
    39   18   78 1    
    40   19   20 am   BACKBONE|DICT|INTERRES
    41   19   79 1    
    42   20   21 2    
    43   20   22 1    
    44   22   23 1    
    45   22   24 1    
    46   22   80 1    
    47   23   81 1    
    48   23   82 1    
    49   23   83 1    
    50   24   25 am   BACKBONE|DICT|INTERRES
    51   24   84 1    
    52   25   26 2    
    53   27   28 2    
    54   27   29 am   BACKBONE|DICT|INTERRES
    55   29   30 1    
    56   29   85 1    
    57   30   31 1    
    58   30   32 1    
    59   30   86 1    
    60   31   87 1    
    61   31   88 1    
    62   31   89 1    
    63   32   33 2    
    64   32   34 am   BACKBONE|DICT|INTERRES
    65   34   35 1    
    66   34   90 1    
    67   35   36 1    
    68   35   37 1    
    69   35   91 1    
    70   36   92 1    
    71   36   93 1    
    72   36   94 1    
    73   37   38 2    
    74   37   39 am   BACKBONE|DICT|INTERRES
    75   39   40 1    
    76   39   95 1    
    77   40   41 1    
    78   40   42 1    
    79   40   96 1    
    80   41   97 1    
    81   41   98 1    
    82   41   99 1    
    83   42   43 2    
    84   42   44 am   BACKBONE|DICT|INTERRES
    85   44   45 1    
    86   44  100 1    
    87   45   46 1    
    88   45   47 1    
    89   45  101 1    
    90   46  102 1    
    91   46  103 1    
    92   46  104 1    
    93   47   48 2    
    94   47   49 am   BACKBONE|DICT|INTERRES
    95   49   50 1    
    96   49  105 1    
    97   50   51 1    
    98   50   52 1    
    99   50  106 1    
   100   51  107 1    
   101   51  108 1    
   102   51  109 1    
   103   52   53 2    
   104   52   54 am   BACKBONE|DICT|INTERRES
   105   54   55 1    
   106   54  110 1    
   107   55   56 1    
   108   55   59 1    
   109   55  111 1    
   110   56   57 am   BACKBONE|DICT|INTERRES
   111   56   58 2    
   112   57  112 1    
   113   57  113 1    
   114   59   60 1    
   115   59  114 1    
   116   59  115 1    
   117   60   61 1    
   118   61  116 1    
   119   61  117 1    
@<TRIPOS>SUBSTRUCTURE
     1 UNK         1 GROUP             0       ****    0 ROOT    
