@<TRIPOS>MOLECULE
3R8
117   119    1
SMALL
USER_CHARGES


@<TRIPOS>ATOM
      1 CA         16.5462  -22.6074  -46.2573 C.3       0 UNK        -0.2013 
      2 C          16.9043  -24.0585  -45.9722 C.2       0 UNK         0.4866 
      3 O          16.6222  -24.5514  -44.8807 O.2       0 UNK        -0.5176 
      4 N          17.5198  -24.7413  -46.9477 N.am      1 UNK        -0.4884 
      5 CA         17.9904  -26.1311  -46.8716 C.3       1 UNK         0.0853 
      6 C6         16.8234  -27.1477  -46.6989 C.3       10 UNK        -0.0849 
      7 S7         17.2063  -28.8077  -47.3665 S.3       10 UNK        -0.2776 
      8 C8         16.0715  -29.8803  -46.4258 C.3       10 UNK         0.0316 
      9 C9         16.5147  -30.0627  -44.9804 C.ar      10 UNK        -0.0863 
     10 C10        17.4331  -31.0583  -44.6362 C.ar      10 UNK        -0.1009 
     11 C11        17.8284  -31.2338  -43.3045 C.ar      10 UNK        -0.0712 
     12 C12        17.3126  -30.3871  -42.3164 C.ar      10 UNK        -0.0894 
     13 C13        16.3963  -29.3847  -42.6496 C.ar      10 UNK        -0.0745 
     14 C14        15.9836  -29.2499  -43.9785 C.ar      10 UNK        -0.0972 
     15 C15        15.8204  -28.4653  -41.5799 C.3       10 UNK         0.0209 
     16 S16        15.9300  -26.7096  -42.0635 S.3       10 UNK        -0.2568 
     17 C17        17.3333  -26.0678  -41.0953 C.3       10 UNK        -0.0983 
     18 CA         18.6779  -26.8345  -41.2086 C.3       3 UNK         0.0876 
     19 N          19.0943  -27.0544  -42.6041 N.am      3 UNK        -0.4424 
     20 C          20.1737  -27.7568  -42.9847 C.2       2 UNK         0.4918 
     21 O          20.9688  -28.2423  -42.1828 O.2       2 UNK        -0.4875 
     22 CA         20.4523  -27.9227  -44.4910 C.3       2 UNK         0.0481 
     23 CB         20.8445  -29.3664  -44.8463 C.3       2 UNK        -0.1831 
     24 N          19.3394  -27.5192  -45.3501 N.am      2 UNK        -0.4498 
     25 C          19.1462  -26.2944  -45.8513 C.2       1 UNK         0.5027 
     26 O          19.8620  -25.3301  -45.5676 O.2       1 UNK        -0.4969 
     27 C          19.7277  -26.1064  -40.3337 C.2       3 UNK         0.5005 
     28 O          19.6474  -26.1950  -39.1073 O.2       3 UNK        -0.5279 
     29 N          20.6623  -25.3789  -40.9655 N.am      4 UNK        -0.4463 
     30 CA         21.7015  -24.5676  -40.3261 C.3       4 UNK         0.0283 
     31 CB         22.4924  -23.8160  -41.4092 C.3       4 UNK        -0.1875 
     32 C          22.6624  -25.3495  -39.4116 C.2       4 UNK         0.4949 
     33 O          23.1133  -24.7894  -38.4116 O.2       4 UNK        -0.5039 
     34 N          22.9583  -26.6105  -39.7508 N.am      5 UNK        -0.4663 
     35 CA         23.8119  -27.4996  -38.9658 C.3       5 UNK         0.0242 
     36 CB         25.2975  -27.1336  -39.1561 C.3       5 UNK        -0.1982 
     37 C          23.5644  -28.9422  -39.4065 C.2       5 UNK         0.5017 
     38 O          23.4872  -29.1980  -40.6080 O.2       5 UNK        -0.5012 
     39 N          23.5260  -29.8734  -38.4436 N.am      6 UNK        -0.4439 
     40 CA         23.3380  -31.3125  -38.6772 C.3       6 UNK         0.0297 
     41 CB         23.2134  -32.0358  -37.3268 C.3       6 UNK        -0.2006 
     42 C          24.4380  -31.9652  -39.5376 C.2       6 UNK         0.4892 
     43 O          24.1817  -32.9947  -40.1596 O.2       6 UNK        -0.5089 
     44 N          25.6241  -31.3427  -39.5858 N.am      7 UNK        -0.4243 
     45 CA         26.7395  -31.7192  -40.4552 C.3       7 UNK         0.0196 
     46 CB         27.9955  -30.9477  -40.0177 C.3       7 UNK        -0.2007 
     47 C          26.4640  -31.4892  -41.9542 C.2       7 UNK         0.5020 
     48 O          27.1077  -32.1382  -42.7791 O.2       7 UNK        -0.5147 
     49 N          25.5351  -30.5808  -42.2927 N.am      8 UNK        -0.4734 
     50 CA         25.1186  -30.3212  -43.6745 C.3       8 UNK         0.0238 
     51 CB         24.5419  -28.8991  -43.7810 C.3       8 UNK        -0.1912 
     52 C          24.1041  -31.3586  -44.1860 C.2       8 UNK         0.5038 
     53 O          24.0265  -31.5722  -45.3965 O.2       8 UNK        -0.5046 
     54 N          23.3443  -31.9709  -43.2691 N.am      9 UNK        -0.4200 
     55 CA         22.3799  -33.0416  -43.5522 C.3       9 UNK         0.0839 
     56 C          23.0767  -34.3808  -43.9155 C.2       9 UNK         0.5513 
     57 N          22.4305  -35.2106  -44.7233 N.am      9 UNK        -0.7519 
     58 O          24.1704  -34.6934  -43.4498 O.2       9 UNK        -0.4960 
     59 C59        21.3848  -33.2305  -42.3781 C.3       10 UNK        -0.0876 
     60 S60        20.3154  -31.7689  -42.1587 S.3       10 UNK        -0.2414 
     61 C61        18.7812  -32.3644  -42.9372 C.3       10 UNK         0.0169 
     62 H62        17.0453  -21.9519  -45.5441 H         1 UNK         0.0903 
     63 H63        16.8406  -22.3029  -47.2615 H         1 UNK         0.0903 
     64 H64        15.4708  -22.4608  -46.1601 H         1 UNK         0.0903 
     65 H65        17.7493  -24.2611  -47.8074 H         1 UNK         0.3096 
     66 H66        18.4477  -26.3190  -47.8446 H         1 UNK         0.1121 
     67 H67        16.5205  -27.2019  -45.6541 H         1 UNK         0.0849 
     68 H68        15.9430  -26.7936  -47.2378 H         1 UNK         0.0849 
     69 H69        16.0218  -30.8535  -46.9166 H         1 UNK         0.0865 
     70 H70        15.0610  -29.4704  -46.4704 H         1 UNK         0.0865 
     71 H71        17.8317  -31.7036  -45.4073 H         1 UNK         0.1346 
     72 H72        17.6221  -30.5178  -41.2885 H         1 UNK         0.1412 
     73 H73        15.2520  -28.4953  -44.2333 H         1 UNK         0.1426 
     74 H74        16.3026  -28.6209  -40.6141 H         1 UNK         0.0716 
     75 H75        14.7691  -28.7196  -41.4400 H         1 UNK         0.0716 
     76 H76        17.0096  -26.0295  -40.0531 H         1 UNK         0.0695 
     77 H77        17.4702  -25.0286  -41.4025 H         1 UNK         0.0695 
     78 H78        18.5510  -27.8238  -40.7655 H         1 UNK         0.0983 
     79 H79        18.4778  -26.6870  -43.3147 H         1 UNK         0.3095 
     80 H80        21.3175  -27.2937  -44.7098 H         1 UNK         0.0454 
     81 H81        21.1837  -29.4447  -45.8790 H         1 UNK         0.0851 
     82 H82        20.0121  -30.0542  -44.7147 H         1 UNK         0.0851 
     83 H83        21.6556  -29.7246  -44.2142 H         1 UNK         0.0851 
     84 H84        18.6967  -28.2510  -45.6296 H         1 UNK         0.2976 
     85 H85        20.6403  -25.3715  -41.9749 H         1 UNK         0.3116 
     86 H86        21.1933  -23.8285  -39.7033 H         1 UNK         0.0646 
     87 H87        23.2585  -23.1805  -40.9624 H         1 UNK         0.0847 
     88 H88        21.8442  -23.1693  -42.0008 H         1 UNK         0.0847 
     89 H89        22.9969  -24.5027  -42.0904 H         1 UNK         0.0847 
     90 H90        22.5282  -27.0335  -40.5670 H         1 UNK         0.3040 
     91 H91        23.5449  -27.4007  -37.9111 H         1 UNK         0.1015 
     92 H92        25.5938  -27.1931  -40.2045 H         1 UNK         0.0786 
     93 H93        25.9440  -27.8091  -38.5945 H         1 UNK         0.0786 
     94 H94        25.5109  -26.1235  -38.8066 H         1 UNK         0.0786 
     95 H95        23.6204  -29.5828  -37.4804 H         1 UNK         0.3172 
     96 H96        22.3964  -31.4342  -39.2175 H         1 UNK         0.0595 
     97 H97        24.1169  -31.9287  -36.7251 H         1 UNK         0.0839 
     98 H98        23.0439  -33.1040  -37.4710 H         1 UNK         0.0839 
     99 H99        22.3735  -31.6540  -36.7461 H         1 UNK         0.0839 
    100 H100       25.7430  -30.5088  -39.0304 H         1 UNK         0.2998 
    101 H101       26.9259  -32.7868  -40.3190 H         1 UNK         0.0822 
    102 H102       27.8622  -29.8696  -40.1173 H         1 UNK         0.0787 
    103 H103       28.2525  -31.1616  -38.9800 H         1 UNK         0.0787 
    104 H104       28.8567  -31.2269  -40.6266 H         1 UNK         0.0787 
    105 H105       25.0162  -30.0955  -41.5665 H         1 UNK         0.3055 
    106 H106       25.9953  -30.3764  -44.3242 H         1 UNK         0.1106 
    107 H107       24.2704  -28.6652  -44.8113 H         1 UNK         0.0828 
    108 H108       23.6437  -28.7776  -43.1753 H         1 UNK         0.0828 
    109 H109       25.2660  -28.1511  -43.4582 H         1 UNK         0.0828 
    110 H110       23.4983  -31.7583  -42.2945 H         1 UNK         0.2931 
    111 H111       21.8050  -32.7315  -44.4278 H         1 UNK         0.0412 
    112 H112       22.8572  -36.0924  -44.9624 H         1 UNK         0.3472 
    113 H113       21.5309  -34.9698  -45.1099 H         1 UNK         0.3472 
    114 H114       20.7562  -34.1092  -42.5353 H         1 UNK         0.0970 
    115 H115       21.9192  -33.4158  -41.4456 H         1 UNK         0.0970 
    116 H116       18.2788  -33.0523  -42.2560 H         1 UNK         0.0612 
    117 H117       19.0381  -32.9408  -43.8274 H         1 UNK         0.0612 
@<TRIPOS>BOND
     1    1    2 1    
     2    1   62 1    
     3    1   63 1    
     4    1   64 1    
     5    2    3 2    
     6    2    4 am   BACKBONE|DICT|INTERRES
     7    4    5 1    
     8    4   65 1    
     9    5    6 1    
    10    5   25 1    
    11    5   66 1    
    12    6    7 1    
    13    6   67 1    
    14    6   68 1    
    15    7    8 1    
    16    8    9 1    
    17    8   69 1    
    18    8   70 1    
    19    9   10 ar   
    20    9   14 ar   
    21   10   11 ar   
    22   10   71 1    
    23   11   12 ar   
    24   11   61 1    
    25   12   13 ar   
    26   12   72 1    
    27   13   14 ar   
    28   13   15 1    
    29   14   73 1    
    30   15   16 1    
    31   15   74 1    
    32   15   75 1    
    33   16   17 1    
    34   17   18 1    
    35   17   76 1    
    36   17   77 1    
    37   18   19 1    
    38   18   27 1    
    39   18   78 1    
    40   19   20 am   BACKBONE|DICT|INTERRES
    41   19   79 1    
    42   20   21 2    
    43   20   22 1    
    44   22   23 1    
    45   22   24 1    
    46   22   80 1    
    47   23   81 1    
    48   23   82 1    
    49   23   83 1    
    50   24   25 am   BACKBONE|DICT|INTERRES
    51   24   84 1    
    52   25   26 2    
    53   27   28 2    
    54   27   29 am   BACKBONE|DICT|INTERRES
    55   29   30 1    
    56   29   85 1    
    57   30   31 1    
    58   30   32 1    
    59   30   86 1    
    60   31   87 1    
    61   31   88 1    
    62   31   89 1    
    63   32   33 2    
    64   32   34 am   BACKBONE|DICT|INTERRES
    65   34   35 1    
    66   34   90 1    
    67   35   36 1    
    68   35   37 1    
    69   35   91 1    
    70   36   92 1    
    71   36   93 1    
    72   36   94 1    
    73   37   38 2    
    74   37   39 am   BACKBONE|DICT|INTERRES
    75   39   40 1    
    76   39   95 1    
    77   40   41 1    
    78   40   42 1    
    79   40   96 1    
    80   41   97 1    
    81   41   98 1    
    82   41   99 1    
    83   42   43 2    
    84   42   44 am   BACKBONE|DICT|INTERRES
    85   44   45 1    
    86   44  100 1    
    87   45   46 1    
    88   45   47 1    
    89   45  101 1    
    90   46  102 1    
    91   46  103 1    
    92   46  104 1    
    93   47   48 2    
    94   47   49 am   BACKBONE|DICT|INTERRES
    95   49   50 1    
    96   49  105 1    
    97   50   51 1    
    98   50   52 1    
    99   50  106 1    
   100   51  107 1    
   101   51  108 1    
   102   51  109 1    
   103   52   53 2    
   104   52   54 am   BACKBONE|DICT|INTERRES
   105   54   55 1    
   106   54  110 1    
   107   55   56 1    
   108   55   59 1    
   109   55  111 1    
   110   56   57 am   BACKBONE|DICT|INTERRES
   111   56   58 2    
   112   57  112 1    
   113   57  113 1    
   114   59   60 1    
   115   59  114 1    
   116   59  115 1    
   117   60   61 1    
   118   61  116 1    
   119   61  117 1    
@<TRIPOS>SUBSTRUCTURE
     1 UNK         1 GROUP             0       ****    0 ROOT    
