@<TRIPOS>MOLECULE
3R8
117   119    1
SMALL
USER_CHARGES


@<TRIPOS>ATOM
      1 CA         14.5004  -24.0238  -44.7922 C.3       0 UNK        -0.2013 
      2 C          15.4265  -25.2193  -44.6298 C.2       0 UNK         0.4866 
      3 O          16.6376  -25.0428  -44.4937 O.2       0 UNK        -0.5176 
      4 N          14.8688  -26.4367  -44.6308 N.am      1 UNK        -0.4884 
      5 CA         15.5860  -27.7137  -44.5056 C.3       1 UNK         0.0853 
      6 C6         14.7790  -28.8773  -45.1359 C.3       10 UNK        -0.0849 
      7 S7         14.7323  -28.7066  -46.9535 S.3       10 UNK        -0.2776 
      8 C8         15.8965  -30.0008  -47.5038 C.3       10 UNK         0.0316 
      9 C9         17.2314  -29.9611  -46.7674 C.ar      10 UNK        -0.0863 
     10 C10        17.5712  -30.9918  -45.8872 C.ar      10 UNK        -0.1009 
     11 C11        18.7904  -30.9754  -45.2054 C.ar      10 UNK        -0.0712 
     12 C12        19.6788  -29.9139  -45.4068 C.ar      10 UNK        -0.0894 
     13 C13        19.3584  -28.8842  -46.2984 C.ar      10 UNK        -0.0745 
     14 C14        18.1334  -28.9131  -46.9748 C.ar      10 UNK        -0.0972 
     15 C15        20.3487  -27.7620  -46.5738 C.3       10 UNK         0.0209 
     16 S16        20.1005  -26.3442  -45.4620 S.3       10 UNK        -0.2568 
     17 C17        21.3197  -26.6801  -44.1475 C.3       10 UNK        -0.0983 
     18 CA         20.8418  -26.1601  -42.7704 C.3       3 UNK         0.0876 
     19 N          19.6113  -26.8264  -42.3380 N.am      3 UNK        -0.4424 
     20 C          18.8524  -26.4643  -41.2945 C.2       2 UNK         0.4918 
     21 O          19.1599  -25.5851  -40.4886 O.2       2 UNK        -0.4875 
     22 CA         17.4809  -27.1508  -41.2046 C.3       2 UNK         0.0481 
     23 CB         16.5499  -26.5316  -40.1449 C.3       2 UNK        -0.1831 
     24 N          16.8542  -27.0966  -42.5211 N.am      2 UNK        -0.4498 
     25 C          16.0076  -27.9860  -43.0457 C.2       1 UNK         0.5027 
     26 O          15.5679  -28.9601  -42.4328 O.2       1 UNK        -0.4969 
     27 C          21.9766  -26.2446  -41.7331 C.2       3 UNK         0.5005 
     28 O          22.6234  -25.2313  -41.4639 O.2       3 UNK        -0.5279 
     29 N          22.2085  -27.4515  -41.1956 N.am      4 UNK        -0.4463 
     30 CA         23.2694  -27.8186  -40.2487 C.3       4 UNK         0.0283 
     31 CB         23.1206  -27.0642  -38.9119 C.3       4 UNK        -0.1875 
     32 C          24.6946  -27.7209  -40.8308 C.2       4 UNK         0.4949 
     33 O          25.6625  -27.7513  -40.0688 O.2       4 UNK        -0.5039 
     34 N          24.8140  -27.6546  -42.1647 N.am      5 UNK        -0.4663 
     35 CA         26.0746  -27.6633  -42.9088 C.3       5 UNK         0.0242 
     36 CB         25.7905  -27.3154  -44.3801 C.3       5 UNK        -0.1982 
     37 C          26.7384  -29.0407  -42.7738 C.2       5 UNK         0.5017 
     38 O          26.2189  -30.0108  -43.3245 O.2       5 UNK        -0.5012 
     39 N          27.8040  -29.1206  -41.9637 N.am      6 UNK        -0.4439 
     40 CA         28.4267  -30.3618  -41.4766 C.3       6 UNK         0.0297 
     41 CB         29.1386  -31.1134  -42.6221 C.3       6 UNK        -0.2006 
     42 C          27.4297  -31.2509  -40.6979 C.2       6 UNK         0.4892 
     43 O          27.4774  -32.4766  -40.8085 O.2       6 UNK        -0.5089 
     44 N          26.5300  -30.5946  -39.9476 N.am      7 UNK        -0.4243 
     45 CA         25.4171  -31.1436  -39.1654 C.3       7 UNK         0.0196 
     46 CB         25.9115  -32.1416  -38.0966 C.3       7 UNK        -0.2007 
     47 C          24.2511  -31.7102  -40.0016 C.2       7 UNK         0.5020 
     48 O          23.3466  -32.3045  -39.4128 O.2       7 UNK        -0.5147 
     49 N          24.2390  -31.4985  -41.3289 N.am      8 UNK        -0.4734 
     50 CA         23.1591  -31.9230  -42.2292 C.3       8 UNK         0.0238 
     51 CB         23.5677  -31.6802  -43.6916 C.3       8 UNK        -0.1912 
     52 C          21.8414  -31.2014  -41.9041 C.2       8 UNK         0.5038 
     53 O          21.6943  -30.0229  -42.2377 O.2       8 UNK        -0.5046 
     54 N          20.9264  -31.9161  -41.2378 N.am      9 UNK        -0.4200 
     55 CA         19.6695  -31.3880  -40.6831 C.3       9 UNK         0.0839 
     56 C          19.8865  -30.3654  -39.5245 C.2       9 UNK         0.5513 
     57 N          21.0147  -30.4033  -38.8240 N.am      9 UNK        -0.7519 
     58 O          19.0173  -29.5514  -39.2296 O.2       9 UNK        -0.4960 
     59 C59        18.6735  -30.9038  -41.7792 C.3       10 UNK        -0.0876 
     60 S60        18.0955  -32.2750  -42.8352 S.3       10 UNK        -0.2414 
     61 C61        19.1646  -32.1420  -44.3036 C.3       10 UNK         0.0169 
     62 H62        13.4593  -24.3259  -44.9050 H         1 UNK         0.0903 
     63 H63        14.5728  -23.3726  -43.9216 H         1 UNK         0.0903 
     64 H64        14.7836  -23.4482  -45.6730 H         1 UNK         0.0903 
     65 H65        13.8668  -26.5162  -44.7319 H         1 UNK         0.3096 
     66 H66        16.5228  -27.6289  -45.0612 H         1 UNK         0.1121 
     67 H67        13.7578  -28.8933  -44.7514 H         1 UNK         0.0849 
     68 H68        15.2060  -29.8477  -44.8781 H         1 UNK         0.0849 
     69 H69        15.4188  -30.9743  -47.3815 H         1 UNK         0.0865 
     70 H70        16.0732  -29.8852  -48.5741 H         1 UNK         0.0865 
     71 H71        16.8888  -31.8165  -45.7317 H         1 UNK         0.1346 
     72 H72        20.6296  -29.9035  -44.8910 H         1 UNK         0.1412 
     73 H73        17.8797  -28.1189  -47.6642 H         1 UNK         0.1426 
     74 H74        20.2316  -27.4168  -47.6022 H         1 UNK         0.0716 
     75 H75        21.3742  -28.1271  -46.4989 H         1 UNK         0.0716 
     76 H76        22.2559  -26.2000  -44.4400 H         1 UNK         0.0695 
     77 H77        21.5238  -27.7514  -44.0996 H         1 UNK         0.0695 
     78 H78        20.6029  -25.0995  -42.8792 H         1 UNK         0.0983 
     79 H79        19.2608  -27.5384  -42.9611 H         1 UNK         0.3095 
     80 H80        17.6600  -28.1915  -40.9410 H         1 UNK         0.0454 
     81 H81        16.3391  -25.4831  -40.3584 H         1 UNK         0.0851 
     82 H82        17.0015  -26.5823  -39.1534 H         1 UNK         0.0851 
     83 H83        15.5990  -27.0618  -40.0934 H         1 UNK         0.0851 
     84 H84        17.1050  -26.2994  -43.1037 H         1 UNK         0.2976 
     85 H85        21.6738  -28.2434  -41.5474 H         1 UNK         0.3116 
     86 H86        23.1137  -28.8763  -40.0384 H         1 UNK         0.0646 
     87 H87        23.3457  -26.0027  -39.0169 H         1 UNK         0.0847 
     88 H88        23.7997  -27.4651  -38.1586 H         1 UNK         0.0847 
     89 H89        22.1090  -27.1559  -38.5165 H         1 UNK         0.0847 
     90 H90        23.9673  -27.6875  -42.7118 H         1 UNK         0.3040 
     91 H91        26.7334  -26.8977  -42.4930 H         1 UNK         0.1015 
     92 H92        25.1088  -28.0303  -44.8434 H         1 UNK         0.0786 
     93 H93        26.7114  -27.3178  -44.9648 H         1 UNK         0.0786 
     94 H94        25.3493  -26.3229  -44.4746 H         1 UNK         0.0786 
     95 H95        28.1359  -28.2685  -41.5309 H         1 UNK         0.3172 
     96 H96        29.1893  -30.0606  -40.7569 H         1 UNK         0.0595 
     97 H97        29.7114  -31.9581  -42.2374 H         1 UNK         0.0839 
     98 H98        29.8367  -30.4640  -43.1501 H         1 UNK         0.0839 
     99 H99        28.4309  -31.5089  -43.3513 H         1 UNK         0.0839 
    100 H100       26.5640  -29.5794  -39.9636 H         1 UNK         0.2998 
    101 H101       24.9966  -30.2897  -38.6320 H         1 UNK         0.0822 
    102 H102       25.1100  -32.4017  -37.4040 H         1 UNK         0.0787 
    103 H103       26.2657  -33.0720  -38.5408 H         1 UNK         0.0787 
    104 H104       26.7236  -31.7202  -37.5042 H         1 UNK         0.0787 
    105 H105       25.0109  -31.0026  -41.7588 H         1 UNK         0.3055 
    106 H106       23.0166  -32.9979  -42.0977 H         1 UNK         0.1106 
    107 H107       22.8026  -32.0471  -44.3766 H         1 UNK         0.0828 
    108 H108       23.7080  -30.6194  -43.9034 H         1 UNK         0.0828 
    109 H109       24.4966  -32.1955  -43.9366 H         1 UNK         0.0828 
    110 H110       21.1551  -32.8611  -40.9654 H         1 UNK         0.2931 
    111 H111       19.1999  -32.2385  -40.1875 H         1 UNK         0.0412 
    112 H112       21.7238  -31.0989  -39.0250 H         1 UNK         0.3472 
    113 H113       21.1381  -29.7592  -38.0598 H         1 UNK         0.3472 
    114 H114       17.7779  -30.4857  -41.3179 H         1 UNK         0.0970 
    115 H115       19.0967  -30.1049  -42.3883 H         1 UNK         0.0970 
    116 H116       19.0722  -33.0655  -44.8766 H         1 UNK         0.0612 
    117 H117       20.2087  -32.0842  -44.0021 H         1 UNK         0.0612 
@<TRIPOS>BOND
     1    1    2 1    
     2    1   62 1    
     3    1   63 1    
     4    1   64 1    
     5    2    3 2    
     6    2    4 am   BACKBONE|DICT|INTERRES
     7    4    5 1    
     8    4   65 1    
     9    5    6 1    
    10    5   25 1    
    11    5   66 1    
    12    6    7 1    
    13    6   67 1    
    14    6   68 1    
    15    7    8 1    
    16    8    9 1    
    17    8   69 1    
    18    8   70 1    
    19    9   10 ar   
    20    9   14 ar   
    21   10   11 ar   
    22   10   71 1    
    23   11   12 ar   
    24   11   61 1    
    25   12   13 ar   
    26   12   72 1    
    27   13   14 ar   
    28   13   15 1    
    29   14   73 1    
    30   15   16 1    
    31   15   74 1    
    32   15   75 1    
    33   16   17 1    
    34   17   18 1    
    35   17   76 1    
    36   17   77 1    
    37   18   19 1    
    38   18   27 1    
    39   18   78 1    
    40   19   20 am   BACKBONE|DICT|INTERRES
    41   19   79 1    
    42   20   21 2    
    43   20   22 1    
    44   22   23 1    
    45   22   24 1    
    46   22   80 1    
    47   23   81 1    
    48   23   82 1    
    49   23   83 1    
    50   24   25 am   BACKBONE|DICT|INTERRES
    51   24   84 1    
    52   25   26 2    
    53   27   28 2    
    54   27   29 am   BACKBONE|DICT|INTERRES
    55   29   30 1    
    56   29   85 1    
    57   30   31 1    
    58   30   32 1    
    59   30   86 1    
    60   31   87 1    
    61   31   88 1    
    62   31   89 1    
    63   32   33 2    
    64   32   34 am   BACKBONE|DICT|INTERRES
    65   34   35 1    
    66   34   90 1    
    67   35   36 1    
    68   35   37 1    
    69   35   91 1    
    70   36   92 1    
    71   36   93 1    
    72   36   94 1    
    73   37   38 2    
    74   37   39 am   BACKBONE|DICT|INTERRES
    75   39   40 1    
    76   39   95 1    
    77   40   41 1    
    78   40   42 1    
    79   40   96 1    
    80   41   97 1    
    81   41   98 1    
    82   41   99 1    
    83   42   43 2    
    84   42   44 am   BACKBONE|DICT|INTERRES
    85   44   45 1    
    86   44  100 1    
    87   45   46 1    
    88   45   47 1    
    89   45  101 1    
    90   46  102 1    
    91   46  103 1    
    92   46  104 1    
    93   47   48 2    
    94   47   49 am   BACKBONE|DICT|INTERRES
    95   49   50 1    
    96   49  105 1    
    97   50   51 1    
    98   50   52 1    
    99   50  106 1    
   100   51  107 1    
   101   51  108 1    
   102   51  109 1    
   103   52   53 2    
   104   52   54 am   BACKBONE|DICT|INTERRES
   105   54   55 1    
   106   54  110 1    
   107   55   56 1    
   108   55   59 1    
   109   55  111 1    
   110   56   57 am   BACKBONE|DICT|INTERRES
   111   56   58 2    
   112   57  112 1    
   113   57  113 1    
   114   59   60 1    
   115   59  114 1    
   116   59  115 1    
   117   60   61 1    
   118   61  116 1    
   119   61  117 1    
@<TRIPOS>SUBSTRUCTURE
     1 UNK         1 GROUP             0       ****    0 ROOT    
