@<TRIPOS>MOLECULE
3R8
117   119    1
SMALL
USER_CHARGES


@<TRIPOS>ATOM
      1 CA         17.6438  -22.4354  -43.4248 C.3       0 UNK        -0.2013 
      2 C          16.9519  -23.6823  -42.8783 C.2       0 UNK         0.4866 
      3 O          16.2014  -23.5757  -41.9103 O.2       0 UNK        -0.5176 
      4 N          17.1464  -24.8754  -43.4584 N.am      1 UNK        -0.4884 
      5 CA         18.0497  -25.2012  -44.5697 C.3       1 UNK         0.0853 
      6 C6         17.8636  -26.6689  -45.0300 C.3       10 UNK        -0.0849 
      7 S7         16.2211  -27.0279  -45.7348 S.3       10 UNK        -0.2776 
      8 C8         15.5361  -28.2524  -44.5591 C.3       10 UNK         0.0316 
      9 C9         16.4182  -29.4741  -44.2822 C.ar      10 UNK        -0.0863 
     10 C10        16.3354  -30.0905  -43.0295 C.ar      10 UNK        -0.1009 
     11 C11        17.1273  -31.1974  -42.7087 C.ar      10 UNK        -0.0712 
     12 C12        18.0144  -31.6922  -43.6729 C.ar      10 UNK        -0.0894 
     13 C13        18.1144  -31.0921  -44.9291 C.ar      10 UNK        -0.0745 
     14 C14        17.3001  -29.9973  -45.2369 C.ar      10 UNK        -0.0972 
     15 C15        19.1117  -31.6346  -45.9444 C.3       10 UNK         0.0209 
     16 S16        20.8349  -31.2455  -45.4867 S.3       10 UNK        -0.2568 
     17 C17        20.8800  -29.4456  -45.7821 C.3       10 UNK        -0.0983 
     18 CA         21.8445  -28.6175  -44.8913 C.3       3 UNK         0.0876 
     19 N          21.6904  -27.1968  -45.2176 N.am      3 UNK        -0.4424 
     20 C          22.3689  -26.1654  -44.6963 C.2       2 UNK         0.4918 
     21 O          23.3142  -26.2811  -43.9212 O.2       2 UNK        -0.4875 
     22 CA         21.8430  -24.7610  -45.0531 C.3       2 UNK         0.0481 
     23 CB         22.4959  -24.2518  -46.3471 C.3       2 UNK        -0.1831 
     24 N          20.3795  -24.7283  -45.1854 N.am      2 UNK        -0.4498 
     25 C          19.5305  -25.0071  -44.1844 C.2       1 UNK         0.5027 
     26 O          19.8935  -25.2129  -43.0239 O.2       1 UNK        -0.4969 
     27 C          21.6645  -28.8810  -43.3770 C.2       3 UNK         0.5005 
     28 O          22.5130  -29.5315  -42.7639 O.2       3 UNK        -0.5279 
     29 N          20.5951  -28.3239  -42.7899 N.am      4 UNK        -0.4463 
     30 CA         20.3057  -28.4023  -41.3574 C.3       4 UNK         0.0283 
     31 CB         18.8687  -27.9328  -41.0821 C.3       4 UNK        -0.1875 
     32 C          21.3134  -27.6059  -40.5152 C.2       4 UNK         0.4949 
     33 O          21.7821  -28.1192  -39.5003 O.2       4 UNK        -0.5039 
     34 N          21.6595  -26.3905  -40.9657 N.am      5 UNK        -0.4663 
     35 CA         22.6446  -25.5121  -40.3222 C.3       5 UNK         0.0242 
     36 CB         22.6478  -24.1436  -41.0210 C.3       5 UNK        -0.1982 
     37 C          24.0636  -26.1093  -40.2856 C.2       5 UNK         0.5017 
     38 O          24.7570  -25.9622  -39.2791 O.2       5 UNK        -0.5012 
     39 N          24.4509  -26.8032  -41.3644 N.am      6 UNK        -0.4439 
     40 CA         25.7013  -27.5583  -41.4867 C.3       6 UNK         0.0297 
     41 CB         25.9857  -27.8053  -42.9782 C.3       6 UNK        -0.2006 
     42 C          25.6993  -28.8960  -40.7204 C.2       6 UNK         0.4892 
     43 O          26.7491  -29.5365  -40.6515 O.2       6 UNK        -0.5089 
     44 N          24.5373  -29.3047  -40.1867 N.am      7 UNK        -0.4243 
     45 CA         24.2626  -30.5711  -39.4983 C.3       7 UNK         0.0196 
     46 CB         25.0923  -30.7011  -38.2032 C.3       7 UNK        -0.2007 
     47 C          24.3798  -31.8053  -40.4143 C.2       7 UNK         0.5020 
     48 O          24.6025  -32.9130  -39.9231 O.2       7 UNK        -0.5147 
     49 N          24.1679  -31.6175  -41.7254 N.am      8 UNK        -0.4734 
     50 CA         24.1272  -32.6905  -42.7260 C.3       8 UNK         0.0238 
     51 CB         24.3342  -32.0925  -44.1267 C.3       8 UNK        -0.1912 
     52 C          22.8333  -33.5238  -42.6518 C.2       8 UNK         0.5038 
     53 O          22.7866  -34.6159  -43.2191 O.2       8 UNK        -0.5046 
     54 N          21.8321  -33.0161  -41.9189 N.am      9 UNK        -0.4200 
     55 CA         20.6384  -33.7482  -41.4744 C.3       9 UNK         0.0839 
     56 C          20.9442  -34.9505  -40.5273 C.2       9 UNK         0.5513 
     57 N          22.0880  -34.9913  -39.8506 N.am      9 UNK        -0.7519 
     58 O          20.1369  -35.8687  -40.4135 O.2       9 UNK        -0.4960 
     59 C59        19.6088  -32.7745  -40.8364 C.3       10 UNK        -0.0876 
     60 S60        17.8856  -33.3580  -40.9943 S.3       10 UNK        -0.2414 
     61 C61        16.9891  -31.7968  -41.3063 C.3       10 UNK         0.0169 
     62 H62        18.6750  -22.3869  -43.0758 H         1 UNK         0.0903 
     63 H63        17.6364  -22.4082  -44.5134 H         1 UNK         0.0903 
     64 H64        17.1336  -21.5377  -43.0758 H         1 UNK         0.0903 
     65 H65        16.6603  -25.6681  -43.0674 H         1 UNK         0.3096 
     66 H66        17.8159  -24.5420  -45.4080 H         1 UNK         0.1121 
     67 H67        18.0649  -27.3501  -44.2019 H         1 UNK         0.0849 
     68 H68        18.5827  -26.9230  -45.8106 H         1 UNK         0.0849 
     69 H69        14.5767  -28.6009  -44.9434 H         1 UNK         0.0865 
     70 H70        15.3188  -27.7325  -43.6247 H         1 UNK         0.0865 
     71 H71        15.6519  -29.6990  -42.2878 H         1 UNK         0.1346 
     72 H72        18.6477  -32.5404  -43.4615 H         1 UNK         0.1412 
     73 H73        17.3698  -29.5424  -46.2151 H         1 UNK         0.1426 
     74 H74        18.9051  -31.2448  -46.9424 H         1 UNK         0.0716 
     75 H75        19.0020  -32.7179  -46.0109 H         1 UNK         0.0716 
     76 H76        19.8686  -29.0554  -45.6743 H         1 UNK         0.0695 
     77 H77        21.1398  -29.2993  -46.8318 H         1 UNK         0.0695 
     78 H78        22.8692  -28.8998  -45.1421 H         1 UNK         0.0983 
     79 H79        20.9656  -26.9787  -45.8830 H         1 UNK         0.3095 
     80 H80        22.1208  -24.0828  -44.2445 H         1 UNK         0.0454 
     81 H81        22.2410  -24.8740  -47.2057 H         1 UNK         0.0851 
     82 H82        23.5834  -24.2497  -46.2585 H         1 UNK         0.0851 
     83 H83        22.1905  -23.2294  -46.5700 H         1 UNK         0.0851 
     84 H84        20.0142  -24.5582  -46.1124 H         1 UNK         0.2976 
     85 H85        19.9773  -27.7557  -43.3462 H         1 UNK         0.3116 
     86 H86        20.3790  -29.4502  -41.0597 H         1 UNK         0.0646 
     87 H87        18.1463  -28.5189  -41.6467 H         1 UNK         0.0847 
     88 H88        18.7224  -26.8832  -41.3376 H         1 UNK         0.0847 
     89 H89        18.6204  -28.0460  -40.0260 H         1 UNK         0.0847 
     90 H90        21.1847  -26.0259  -41.7869 H         1 UNK         0.3040 
     91 H91        22.3250  -25.3661  -39.2880 H         1 UNK         0.1015 
     92 H92        23.3055  -23.4444  -40.5029 H         1 UNK         0.0786 
     93 H93        21.6512  -23.7017  -41.0378 H         1 UNK         0.0786 
     94 H94        22.9997  -24.2180  -42.0496 H         1 UNK         0.0786 
     95 H95        23.8450  -26.7997  -42.1820 H         1 UNK         0.3172 
     96 H96        26.5120  -26.9505  -41.0799 H         1 UNK         0.0595 
     97 H97        25.2043  -28.4103  -43.4407 H         1 UNK         0.0839 
     98 H98        26.9313  -28.3310  -43.1179 H         1 UNK         0.0839 
     99 H99        26.0539  -26.8677  -43.5301 H         1 UNK         0.0839 
    100 H100       23.7322  -28.6994  -40.2979 H         1 UNK         0.2998 
    101 H101       23.2130  -30.5228  -39.2051 H         1 UNK         0.0822 
    102 H102       24.9878  -29.8162  -37.5754 H         1 UNK         0.0787 
    103 H103       24.7627  -31.5565  -37.6123 H         1 UNK         0.0787 
    104 H104       26.1530  -30.8428  -38.4118 H         1 UNK         0.0787 
    105 H105       23.8825  -30.6947  -42.0461 H         1 UNK         0.3055 
    106 H106       24.9548  -33.3751  -42.5268 H         1 UNK         0.1106 
    107 H107       24.3229  -32.8711  -44.8906 H         1 UNK         0.0828 
    108 H108       25.2931  -31.5794  -44.2000 H         1 UNK         0.0828 
    109 H109       23.5535  -31.3776  -44.3806 H         1 UNK         0.0828 
    110 H110       21.9723  -32.0985  -41.5245 H         1 UNK         0.2931 
    111 H111       20.1964  -34.1685  -42.3800 H         1 UNK         0.0412 
    112 H112       22.7807  -34.2606  -39.9429 H         1 UNK         0.3472 
    113 H113       22.2713  -35.7784  -39.2483 H         1 UNK         0.3472 
    114 H114       19.8316  -32.5918  -39.7832 H         1 UNK         0.0970 
    115 H115       19.6741  -31.7985  -41.3193 H         1 UNK         0.0970 
    116 H116       17.3068  -31.0566  -40.5703 H         1 UNK         0.0612 
    117 H117       15.9315  -31.9848  -41.1155 H         1 UNK         0.0612 
@<TRIPOS>BOND
     1    1    2 1    
     2    1   62 1    
     3    1   63 1    
     4    1   64 1    
     5    2    3 2    
     6    2    4 am   BACKBONE|DICT|INTERRES
     7    4    5 1    
     8    4   65 1    
     9    5    6 1    
    10    5   25 1    
    11    5   66 1    
    12    6    7 1    
    13    6   67 1    
    14    6   68 1    
    15    7    8 1    
    16    8    9 1    
    17    8   69 1    
    18    8   70 1    
    19    9   10 ar   
    20    9   14 ar   
    21   10   11 ar   
    22   10   71 1    
    23   11   12 ar   
    24   11   61 1    
    25   12   13 ar   
    26   12   72 1    
    27   13   14 ar   
    28   13   15 1    
    29   14   73 1    
    30   15   16 1    
    31   15   74 1    
    32   15   75 1    
    33   16   17 1    
    34   17   18 1    
    35   17   76 1    
    36   17   77 1    
    37   18   19 1    
    38   18   27 1    
    39   18   78 1    
    40   19   20 am   BACKBONE|DICT|INTERRES
    41   19   79 1    
    42   20   21 2    
    43   20   22 1    
    44   22   23 1    
    45   22   24 1    
    46   22   80 1    
    47   23   81 1    
    48   23   82 1    
    49   23   83 1    
    50   24   25 am   BACKBONE|DICT|INTERRES
    51   24   84 1    
    52   25   26 2    
    53   27   28 2    
    54   27   29 am   BACKBONE|DICT|INTERRES
    55   29   30 1    
    56   29   85 1    
    57   30   31 1    
    58   30   32 1    
    59   30   86 1    
    60   31   87 1    
    61   31   88 1    
    62   31   89 1    
    63   32   33 2    
    64   32   34 am   BACKBONE|DICT|INTERRES
    65   34   35 1    
    66   34   90 1    
    67   35   36 1    
    68   35   37 1    
    69   35   91 1    
    70   36   92 1    
    71   36   93 1    
    72   36   94 1    
    73   37   38 2    
    74   37   39 am   BACKBONE|DICT|INTERRES
    75   39   40 1    
    76   39   95 1    
    77   40   41 1    
    78   40   42 1    
    79   40   96 1    
    80   41   97 1    
    81   41   98 1    
    82   41   99 1    
    83   42   43 2    
    84   42   44 am   BACKBONE|DICT|INTERRES
    85   44   45 1    
    86   44  100 1    
    87   45   46 1    
    88   45   47 1    
    89   45  101 1    
    90   46  102 1    
    91   46  103 1    
    92   46  104 1    
    93   47   48 2    
    94   47   49 am   BACKBONE|DICT|INTERRES
    95   49   50 1    
    96   49  105 1    
    97   50   51 1    
    98   50   52 1    
    99   50  106 1    
   100   51  107 1    
   101   51  108 1    
   102   51  109 1    
   103   52   53 2    
   104   52   54 am   BACKBONE|DICT|INTERRES
   105   54   55 1    
   106   54  110 1    
   107   55   56 1    
   108   55   59 1    
   109   55  111 1    
   110   56   57 am   BACKBONE|DICT|INTERRES
   111   56   58 2    
   112   57  112 1    
   113   57  113 1    
   114   59   60 1    
   115   59  114 1    
   116   59  115 1    
   117   60   61 1    
   118   61  116 1    
   119   61  117 1    
@<TRIPOS>SUBSTRUCTURE
     1 UNK         1 GROUP             0       ****    0 ROOT    
