@<TRIPOS>MOLECULE
3R8
117   119    1
SMALL
USER_CHARGES


@<TRIPOS>ATOM
      1 CA         20.4161  -27.0566  -39.6816 C.3       0 UNK        -0.2013 
      2 C          19.2344  -26.6354  -40.5434 C.2       0 UNK         0.4866 
      3 O          18.2320  -26.1569  -40.0116 O.2       0 UNK        -0.5176 
      4 N          19.3505  -26.8084  -41.8633 N.am      1 UNK        -0.4884 
      5 CA         18.3474  -26.4378  -42.8682 C.3       1 UNK         0.0853 
      6 C6         17.7295  -27.6904  -43.5485 C.3       10 UNK        -0.0849 
      7 S7         16.7201  -28.7014  -42.4122 S.3       10 UNK        -0.2776 
      8 C8         15.9906  -29.9285  -43.5521 C.3       10 UNK         0.0316 
      9 C9         17.0579  -30.6095  -44.3958 C.ar      10 UNK        -0.0863 
     10 C10        18.0401  -31.3892  -43.7812 C.ar      10 UNK        -0.1009 
     11 C11        19.1115  -31.8937  -44.5208 C.ar      10 UNK        -0.0712 
     12 C12        19.1563  -31.6766  -45.9013 C.ar      10 UNK        -0.0894 
     13 C13        18.1525  -30.9368  -46.5362 C.ar      10 UNK        -0.0745 
     14 C14        17.1065  -30.4034  -45.7776 C.ar      10 UNK        -0.0972 
     15 C15        18.2138  -30.6845  -48.0368 C.3       10 UNK         0.0209 
     16 S16        18.5959  -28.9458  -48.4279 S.3       10 UNK        -0.2568 
     17 C17        20.2557  -28.7770  -47.6931 C.3       10 UNK        -0.0983 
     18 CA         20.7466  -27.3109  -47.6266 C.3       3 UNK         0.0876 
     19 N          19.7983  -26.4352  -46.9304 N.am      3 UNK        -0.4424 
     20 C          19.8448  -25.0951  -46.9239 C.2       2 UNK         0.4918 
     21 O          20.6854  -24.4343  -47.5343 O.2       2 UNK        -0.4875 
     22 CA         18.7690  -24.3617  -46.0967 C.3       2 UNK         0.0481 
     23 CB         17.5893  -23.9574  -46.9951 C.3       2 UNK        -0.1831 
     24 N          18.2679  -25.1419  -44.9585 N.am      2 UNK        -0.4498 
     25 C          19.0121  -25.5048  -43.9030 C.2       1 UNK         0.5027 
     26 O          20.1814  -25.1412  -43.7555 O.2       1 UNK        -0.4969 
     27 C          22.1471  -27.2661  -46.9846 C.2       3 UNK         0.5005 
     28 O          23.1448  -27.1915  -47.7041 O.2       3 UNK        -0.5279 
     29 N          22.1919  -27.3193  -45.6474 N.am      4 UNK        -0.4463 
     30 CA         23.3987  -27.3095  -44.8309 C.3       4 UNK         0.0283 
     31 CB         24.1194  -28.6697  -44.9050 C.3       4 UNK        -0.1875 
     32 C          22.9982  -26.9971  -43.3878 C.2       4 UNK         0.4949 
     33 O          21.9632  -27.4797  -42.9221 O.2       4 UNK        -0.5039 
     34 N          23.8499  -26.2312  -42.6978 N.am      5 UNK        -0.4663 
     35 CA         23.6780  -25.8327  -41.2964 C.3       5 UNK         0.0242 
     36 CB         24.3252  -24.4505  -41.0983 C.3       5 UNK        -0.1982 
     37 C          24.2503  -26.8595  -40.2967 C.2       5 UNK         0.5017 
     38 O          24.2678  -26.5826  -39.0965 O.2       5 UNK        -0.5012 
     39 N          24.7371  -28.0011  -40.8031 N.am      6 UNK        -0.4439 
     40 CA         25.3266  -29.1044  -40.0430 C.3       6 UNK         0.0297 
     41 CB         25.8614  -30.1515  -41.0347 C.3       6 UNK        -0.2006 
     42 C          24.3301  -29.7614  -39.0740 C.2       6 UNK         0.4892 
     43 O          23.1318  -29.7975  -39.3571 O.2       6 UNK        -0.5089 
     44 N          24.8605  -30.3298  -37.9821 N.am      7 UNK        -0.4243 
     45 CA         24.1054  -31.0121  -36.9217 C.3       7 UNK         0.0196 
     46 CB         25.0608  -31.3468  -35.7641 C.3       7 UNK        -0.2007 
     47 C          23.3470  -32.2752  -37.3756 C.2       7 UNK         0.5020 
     48 O          22.4308  -32.7095  -36.6775 O.2       7 UNK        -0.5147 
     49 N          23.7259  -32.8379  -38.5314 N.am      8 UNK        -0.4734 
     50 CA         23.0028  -33.9179  -39.2092 C.3       8 UNK         0.0238 
     51 CB         23.9199  -34.5399  -40.2754 C.3       8 UNK        -0.1912 
     52 C          21.6783  -33.4540  -39.8481 C.2       8 UNK         0.5038 
     53 O          20.8179  -34.2959  -40.1097 O.2       8 UNK        -0.5046 
     54 N          21.5455  -32.1454  -40.0939 N.am      9 UNK        -0.4200 
     55 CA         20.3589  -31.4855  -40.6469 C.3       9 UNK         0.0839 
     56 C          19.5983  -30.6942  -39.5457 C.2       9 UNK         0.5513 
     57 N          18.4763  -30.0741  -39.8814 N.am      9 UNK        -0.7519 
     58 O          19.9893  -30.6457  -38.3812 O.2       9 UNK        -0.4960 
     59 C59        20.7375  -30.6012  -41.8690 C.3       10 UNK        -0.0876 
     60 S60        21.5455  -31.5302  -43.2253 S.3       10 UNK        -0.2414 
     61 C61        20.2314  -32.6489  -43.8218 C.3       10 UNK         0.0169 
     62 H62        21.1387  -27.6491  -40.2428 H         1 UNK         0.0903 
     63 H63        20.9244  -26.1804  -39.2807 H         1 UNK         0.0903 
     64 H64        20.0735  -27.6620  -38.8429 H         1 UNK         0.0903 
     65 H65        20.2471  -27.1014  -42.2500 H         1 UNK         0.3096 
     66 H66        17.5460  -25.8572  -42.4061 H         1 UNK         0.1121 
     67 H67        18.5210  -28.3147  -43.9682 H         1 UNK         0.0849 
     68 H68        17.0793  -27.4176  -44.3810 H         1 UNK         0.0849 
     69 H69        15.4494  -30.6792  -42.9745 H         1 UNK         0.0865 
     70 H70        15.2512  -29.4330  -44.1833 H         1 UNK         0.0865 
     71 H71        18.0000  -31.5520  -42.7138 H         1 UNK         0.1346 
     72 H72        19.9844  -32.0669  -46.4772 H         1 UNK         0.1412 
     73 H73        16.3511  -29.8003  -46.2630 H         1 UNK         0.1426 
     74 H74        17.2534  -30.9446  -48.4840 H         1 UNK         0.0716 
     75 H75        18.9564  -31.3290  -48.5099 H         1 UNK         0.0716 
     76 H76        20.9470  -29.3863  -48.2789 H         1 UNK         0.0695 
     77 H77        20.2407  -29.2072  -46.6905 H         1 UNK         0.0695 
     78 H78        20.8454  -26.9404  -48.6496 H         1 UNK         0.0983 
     79 H79        19.0435  -26.8948  -46.4454 H         1 UNK         0.3095 
     80 H80        19.2231  -23.4499  -45.7029 H         1 UNK         0.0454 
     81 H81        17.9297  -23.3504  -47.8354 H         1 UNK         0.0851 
     82 H82        16.8566  -23.3645  -46.4476 H         1 UNK         0.0851 
     83 H83        17.0781  -24.8273  -47.4094 H         1 UNK         0.0851 
     84 H84        17.3037  -25.4393  -45.0070 H         1 UNK         0.2976 
     85 H85        21.3322  -27.3362  -45.1136 H         1 UNK         0.3116 
     86 H86        24.0617  -26.5227  -45.1972 H         1 UNK         0.0646 
     87 H87        23.4764  -29.4824  -44.5647 H         1 UNK         0.0847 
     88 H88        24.4383  -28.9010  -45.9212 H         1 UNK         0.0847 
     89 H89        25.0134  -28.6764  -44.2806 H         1 UNK         0.0847 
     90 H90        24.6833  -25.8924  -43.1589 H         1 UNK         0.3040 
     91 H91        22.6116  -25.7356  -41.0849 H         1 UNK         0.1015 
     92 H92        24.1625  -24.0811  -40.0847 H         1 UNK         0.0786 
     93 H93        23.8995  -23.7127  -41.7788 H         1 UNK         0.0786 
     94 H94        25.4026  -24.4809  -41.2652 H         1 UNK         0.0786 
     95 H95        24.6386  -28.1394  -41.7967 H         1 UNK         0.3172 
     96 H96        26.1619  -28.7014  -39.4667 H         1 UNK         0.0595 
     97 H97        25.0605  -30.5796  -41.6401 H         1 UNK         0.0839 
     98 H98        26.3510  -30.9753  -40.5136 H         1 UNK         0.0839 
     99 H99        26.5990  -29.7193  -41.7114 H         1 UNK         0.0839 
    100 H100       25.8598  -30.2686  -37.8469 H         1 UNK         0.2998 
    101 H101       23.3541  -30.3096  -36.5542 H         1 UNK         0.0822 
    102 H102       24.5265  -31.8245  -34.9414 H         1 UNK         0.0787 
    103 H103       25.8515  -32.0293  -36.0784 H         1 UNK         0.0787 
    104 H104       25.5300  -30.4483  -35.3626 H         1 UNK         0.0787 
    105 H105       24.5035  -32.4271  -39.0265 H         1 UNK         0.3055 
    106 H106       22.7573  -34.6860  -38.4722 H         1 UNK         0.1106 
    107 H107       24.8363  -34.9313  -39.8335 H         1 UNK         0.0828 
    108 H108       23.4241  -35.3715  -40.7783 H         1 UNK         0.0828 
    109 H109       24.1967  -33.8154  -41.0427 H         1 UNK         0.0828 
    110 H110       22.2658  -31.5056  -39.7741 H         1 UNK         0.2931 
    111 H111       19.6523  -32.2447  -40.9813 H         1 UNK         0.0412 
    112 H112       17.9736  -29.5720  -39.1670 H         1 UNK         0.3472 
    113 H113       18.1261  -30.0642  -40.8269 H         1 UNK         0.3472 
    114 H114       19.8736  -30.0730  -42.2718 H         1 UNK         0.0970 
    115 H115       21.4294  -29.8178  -41.5548 H         1 UNK         0.0970 
    116 H116       20.6788  -33.3633  -44.5143 H         1 UNK         0.0612 
    117 H117       19.8378  -33.2440  -42.9977 H         1 UNK         0.0612 
@<TRIPOS>BOND
     1    1    2 1    
     2    1   62 1    
     3    1   63 1    
     4    1   64 1    
     5    2    3 2    
     6    2    4 am   BACKBONE|DICT|INTERRES
     7    4    5 1    
     8    4   65 1    
     9    5    6 1    
    10    5   25 1    
    11    5   66 1    
    12    6    7 1    
    13    6   67 1    
    14    6   68 1    
    15    7    8 1    
    16    8    9 1    
    17    8   69 1    
    18    8   70 1    
    19    9   10 ar   
    20    9   14 ar   
    21   10   11 ar   
    22   10   71 1    
    23   11   12 ar   
    24   11   61 1    
    25   12   13 ar   
    26   12   72 1    
    27   13   14 ar   
    28   13   15 1    
    29   14   73 1    
    30   15   16 1    
    31   15   74 1    
    32   15   75 1    
    33   16   17 1    
    34   17   18 1    
    35   17   76 1    
    36   17   77 1    
    37   18   19 1    
    38   18   27 1    
    39   18   78 1    
    40   19   20 am   BACKBONE|DICT|INTERRES
    41   19   79 1    
    42   20   21 2    
    43   20   22 1    
    44   22   23 1    
    45   22   24 1    
    46   22   80 1    
    47   23   81 1    
    48   23   82 1    
    49   23   83 1    
    50   24   25 am   BACKBONE|DICT|INTERRES
    51   24   84 1    
    52   25   26 2    
    53   27   28 2    
    54   27   29 am   BACKBONE|DICT|INTERRES
    55   29   30 1    
    56   29   85 1    
    57   30   31 1    
    58   30   32 1    
    59   30   86 1    
    60   31   87 1    
    61   31   88 1    
    62   31   89 1    
    63   32   33 2    
    64   32   34 am   BACKBONE|DICT|INTERRES
    65   34   35 1    
    66   34   90 1    
    67   35   36 1    
    68   35   37 1    
    69   35   91 1    
    70   36   92 1    
    71   36   93 1    
    72   36   94 1    
    73   37   38 2    
    74   37   39 am   BACKBONE|DICT|INTERRES
    75   39   40 1    
    76   39   95 1    
    77   40   41 1    
    78   40   42 1    
    79   40   96 1    
    80   41   97 1    
    81   41   98 1    
    82   41   99 1    
    83   42   43 2    
    84   42   44 am   BACKBONE|DICT|INTERRES
    85   44   45 1    
    86   44  100 1    
    87   45   46 1    
    88   45   47 1    
    89   45  101 1    
    90   46  102 1    
    91   46  103 1    
    92   46  104 1    
    93   47   48 2    
    94   47   49 am   BACKBONE|DICT|INTERRES
    95   49   50 1    
    96   49  105 1    
    97   50   51 1    
    98   50   52 1    
    99   50  106 1    
   100   51  107 1    
   101   51  108 1    
   102   51  109 1    
   103   52   53 2    
   104   52   54 am   BACKBONE|DICT|INTERRES
   105   54   55 1    
   106   54  110 1    
   107   55   56 1    
   108   55   59 1    
   109   55  111 1    
   110   56   57 am   BACKBONE|DICT|INTERRES
   111   56   58 2    
   112   57  112 1    
   113   57  113 1    
   114   59   60 1    
   115   59  114 1    
   116   59  115 1    
   117   60   61 1    
   118   61  116 1    
   119   61  117 1    
@<TRIPOS>SUBSTRUCTURE
     1 UNK         1 GROUP             0       ****    0 ROOT    
