@<TRIPOS>MOLECULE
3R8
117   119    1
SMALL
USER_CHARGES


@<TRIPOS>ATOM
      1 CA         16.0615  -28.6990  -40.7463 C.3       0 UNK        -0.2013 
      2 C          16.2600  -27.3121  -41.3376 C.2       0 UNK         0.4866 
      3 O          15.7519  -26.3323  -40.7921 O.2       0 UNK        -0.5176 
      4 N          16.9952  -27.2220  -42.4480 N.am      1 UNK        -0.4884 
      5 CA         17.3371  -25.9884  -43.1538 C.3       1 UNK         0.0853 
      6 C6         16.1586  -25.4738  -44.0342 C.3       10 UNK        -0.0849 
      7 S7         15.9669  -26.1763  -45.7158 S.3       10 UNK        -0.2776 
      8 C8         15.4143  -27.8929  -45.4082 C.3       10 UNK         0.0316 
      9 C9         16.5391  -28.9298  -45.4543 C.ar      10 UNK        -0.0863 
     10 C10        16.5010  -30.0339  -44.5963 C.ar      10 UNK        -0.1009 
     11 C11        17.5000  -31.0113  -44.6496 C.ar      10 UNK        -0.0712 
     12 C12        18.5442  -30.8833  -45.5694 C.ar      10 UNK        -0.0894 
     13 C13        18.6221  -29.7684  -46.4107 C.ar      10 UNK        -0.0745 
     14 C14        17.5954  -28.8193  -46.3681 C.ar      10 UNK        -0.0972 
     15 C15        19.7802  -29.5579  -47.3895 C.3       10 UNK         0.0209 
     16 S16        21.4113  -30.2488  -46.9137 S.3       10 UNK        -0.2568 
     17 C17        21.6613  -29.7905  -45.1623 C.3       10 UNK        -0.0983 
     18 CA         22.3158  -28.4082  -44.9218 C.3       3 UNK         0.0876 
     19 N          21.4394  -27.3234  -45.3816 N.am      3 UNK        -0.4424 
     20 C          21.5551  -26.0084  -45.1409 C.2       2 UNK         0.4918 
     21 O          22.5377  -25.4837  -44.6159 O.2       2 UNK        -0.4875 
     22 CA         20.3314  -25.1390  -45.4981 C.3       2 UNK         0.0481 
     23 CB         19.8199  -25.4176  -46.9239 C.3       2 UNK        -0.1831 
     24 N          19.2045  -25.1809  -44.5451 N.am      2 UNK        -0.4498 
     25 C          18.6562  -26.2334  -43.9118 C.2       1 UNK         0.5027 
     26 O          19.1330  -27.3704  -43.9015 O.2       1 UNK        -0.4969 
     27 C          22.6551  -28.3027  -43.4193 C.2       3 UNK         0.5005 
     28 O          23.7934  -28.5762  -43.0372 O.2       3 UNK        -0.5279 
     29 N          21.6717  -27.8705  -42.6122 N.am      4 UNK        -0.4463 
     30 CA         21.7378  -27.6663  -41.1615 C.3       4 UNK         0.0283 
     31 CB         20.3851  -27.1318  -40.6655 C.3       4 UNK        -0.1875 
     32 C          22.8888  -26.7705  -40.6677 C.2       4 UNK         0.4949 
     33 O          23.2822  -26.8954  -39.5082 O.2       4 UNK        -0.5039 
     34 N          23.4290  -25.9104  -41.5434 N.am      5 UNK        -0.4663 
     35 CA         24.6394  -25.1261  -41.2878 C.3       5 UNK         0.0242 
     36 CB         24.7736  -24.0438  -42.3707 C.3       5 UNK        -0.1982 
     37 C          25.9204  -25.9823  -41.2213 C.2       5 UNK         0.5017 
     38 O          26.8810  -25.5613  -40.5755 O.2       5 UNK        -0.5012 
     39 N          25.9189  -27.1490  -41.8820 N.am      6 UNK        -0.4439 
     40 CA         27.0171  -28.1143  -41.8928 C.3       6 UNK         0.0297 
     41 CB         27.2588  -28.6064  -43.3300 C.3       6 UNK        -0.2006 
     42 C          26.7216  -29.2938  -40.9550 C.2       6 UNK         0.4892 
     43 O          27.5840  -29.6419  -40.1473 O.2       6 UNK        -0.5089 
     44 N          25.5226  -29.8831  -41.0620 N.am      7 UNK        -0.4243 
     45 CA         25.0733  -31.0070  -40.2408 C.3       7 UNK         0.0196 
     46 CB         25.6448  -32.3309  -40.7809 C.3       7 UNK        -0.2007 
     47 C          23.5440  -31.0384  -40.2353 C.2       7 UNK         0.5020 
     48 O          22.9340  -30.9343  -41.2998 O.2       7 UNK        -0.5147 
     49 N          22.9462  -31.2024  -39.0489 N.am      8 UNK        -0.4734 
     50 CA         21.4997  -31.1523  -38.7985 C.3       8 UNK         0.0238 
     51 CB         21.2680  -30.8783  -37.3003 C.3       8 UNK        -0.1912 
     52 C          20.7295  -32.3913  -39.3021 C.2       8 UNK         0.5038 
     53 O          20.0472  -33.0521  -38.5166 O.2       8 UNK        -0.5046 
     54 N          20.8438  -32.6685  -40.6060 N.am      9 UNK        -0.4200 
     55 CA         20.1060  -33.6974  -41.3609 C.3       9 UNK         0.0839 
     56 C          20.4429  -35.1689  -40.9708 C.2       9 UNK         0.5513 
     57 N          21.5513  -35.4340  -40.2897 N.am      9 UNK        -0.7519 
     58 O          19.7099  -36.0914  -41.3188 O.2       9 UNK        -0.4960 
     59 C59        18.5744  -33.4171  -41.4102 C.3       10 UNK        -0.0876 
     60 S60        18.2024  -31.7668  -42.1003 S.3       10 UNK        -0.2414 
     61 C61        17.4684  -32.2016  -43.7053 C.3       10 UNK         0.0169 
     62 H62        16.5870  -28.7816  -39.7953 H         1 UNK         0.0903 
     63 H63        15.0026  -28.8857  -40.5701 H         1 UNK         0.0903 
     64 H64        16.4339  -29.4777  -41.4104 H         1 UNK         0.0903 
     65 H65        17.4482  -28.0376  -42.8472 H         1 UNK         0.3096 
     66 H66        17.5576  -25.2318  -42.3971 H         1 UNK         0.1121 
     67 H67        16.2761  -24.3976  -44.1695 H         1 UNK         0.0849 
     68 H68        15.2111  -25.5803  -43.5038 H         1 UNK         0.0849 
     69 H69        14.8878  -27.9350  -44.4535 H         1 UNK         0.0865 
     70 H70        14.6820  -28.1583  -46.1715 H         1 UNK         0.0865 
     71 H71        15.6919  -30.1387  -43.8864 H         1 UNK         0.1346 
     72 H72        19.3154  -31.6400  -45.6050 H         1 UNK         0.1412 
     73 H73        17.6236  -27.9796  -47.0471 H         1 UNK         0.1426 
     74 H74        19.4962  -29.9971  -48.3465 H         1 UNK         0.0716 
     75 H75        19.9180  -28.4946  -47.5817 H         1 UNK         0.0716 
     76 H76        22.2918  -30.5771  -44.7409 H         1 UNK         0.0695 
     77 H77        20.7222  -29.8552  -44.6138 H         1 UNK         0.0695 
     78 H78        23.2506  -28.3449  -45.4816 H         1 UNK         0.0983 
     79 H79        20.5409  -27.6367  -45.7193 H         1 UNK         0.3095 
     80 H80        20.6886  -24.1079  -45.4874 H         1 UNK         0.0454 
     81 H81        19.1581  -24.6205  -47.2627 H         1 UNK         0.0851 
     82 H82        19.2586  -26.3474  -46.9806 H         1 UNK         0.0851 
     83 H83        20.6413  -25.4786  -47.6393 H         1 UNK         0.0851 
     84 H84        18.7388  -24.2919  -44.4276 H         1 UNK         0.2976 
     85 H85        20.7693  -27.6942  -43.0491 H         1 UNK         0.3116 
     86 H86        21.8930  -28.6447  -40.7136 H         1 UNK         0.0646 
     87 H87        19.5732  -27.8159  -40.9135 H         1 UNK         0.0847 
     88 H88        20.3849  -27.0123  -39.5812 H         1 UNK         0.0847 
     89 H89        20.1526  -26.1595  -41.1008 H         1 UNK         0.0847 
     90 H90        23.0484  -25.8679  -42.4820 H         1 UNK         0.3040 
     91 H91        24.5269  -24.6319  -40.3201 H         1 UNK         0.1015 
     92 H92        24.8880  -24.4801  -43.3641 H         1 UNK         0.0786 
     93 H93        25.6455  -23.4140  -42.1882 H         1 UNK         0.0786 
     94 H94        23.9008  -23.3909  -42.3906 H         1 UNK         0.0786 
     95 H95        25.0628  -27.4486  -42.3453 H         1 UNK         0.3172 
     96 H96        27.9377  -27.6376  -41.5496 H         1 UNK         0.0595 
     97 H97        26.3800  -29.0986  -43.7482 H         1 UNK         0.0839 
     98 H98        28.0799  -29.3237  -43.3625 H         1 UNK         0.0839 
     99 H99        27.5239  -27.7807  -43.9903 H         1 UNK         0.0839 
    100 H100       24.8444  -29.5392  -41.7409 H         1 UNK         0.2998 
    101 H101       25.4234  -30.8577  -39.2170 H         1 UNK         0.0822 
    102 H102       25.2940  -33.1784  -40.1907 H         1 UNK         0.0787 
    103 H103       25.3437  -32.5044  -41.8150 H         1 UNK         0.0787 
    104 H104       26.7342  -32.3404  -40.7438 H         1 UNK         0.0787 
    105 H105       23.5287  -31.3315  -38.2335 H         1 UNK         0.3055 
    106 H106       21.0871  -30.3033  -39.3463 H         1 UNK         0.1106 
    107 H107       21.7458  -29.9496  -36.9876 H         1 UNK         0.0828 
    108 H108       20.2041  -30.7796  -37.0796 H         1 UNK         0.0828 
    109 H109       21.6568  -31.6845  -36.6771 H         1 UNK         0.0828 
    110 H110       21.4769  -32.0843  -41.1469 H         1 UNK         0.2931 
    111 H111       20.4738  -33.6060  -42.3835 H         1 UNK         0.0412 
    112 H112       22.1616  -34.6863  -40.0012 H         1 UNK         0.3472 
    113 H113       21.7695  -36.3885  -40.0502 H         1 UNK         0.3472 
    114 H114       18.0601  -34.1746  -42.0040 H         1 UNK         0.0970 
    115 H115       18.1409  -33.4814  -40.4111 H         1 UNK         0.0970 
    116 H116       18.0145  -33.0384  -44.1440 H         1 UNK         0.0612 
    117 H117       16.4424  -32.5414  -43.5562 H         1 UNK         0.0612 
@<TRIPOS>BOND
     1    1    2 1    
     2    1   62 1    
     3    1   63 1    
     4    1   64 1    
     5    2    3 2    
     6    2    4 am   BACKBONE|DICT|INTERRES
     7    4    5 1    
     8    4   65 1    
     9    5    6 1    
    10    5   25 1    
    11    5   66 1    
    12    6    7 1    
    13    6   67 1    
    14    6   68 1    
    15    7    8 1    
    16    8    9 1    
    17    8   69 1    
    18    8   70 1    
    19    9   10 ar   
    20    9   14 ar   
    21   10   11 ar   
    22   10   71 1    
    23   11   12 ar   
    24   11   61 1    
    25   12   13 ar   
    26   12   72 1    
    27   13   14 ar   
    28   13   15 1    
    29   14   73 1    
    30   15   16 1    
    31   15   74 1    
    32   15   75 1    
    33   16   17 1    
    34   17   18 1    
    35   17   76 1    
    36   17   77 1    
    37   18   19 1    
    38   18   27 1    
    39   18   78 1    
    40   19   20 am   BACKBONE|DICT|INTERRES
    41   19   79 1    
    42   20   21 2    
    43   20   22 1    
    44   22   23 1    
    45   22   24 1    
    46   22   80 1    
    47   23   81 1    
    48   23   82 1    
    49   23   83 1    
    50   24   25 am   BACKBONE|DICT|INTERRES
    51   24   84 1    
    52   25   26 2    
    53   27   28 2    
    54   27   29 am   BACKBONE|DICT|INTERRES
    55   29   30 1    
    56   29   85 1    
    57   30   31 1    
    58   30   32 1    
    59   30   86 1    
    60   31   87 1    
    61   31   88 1    
    62   31   89 1    
    63   32   33 2    
    64   32   34 am   BACKBONE|DICT|INTERRES
    65   34   35 1    
    66   34   90 1    
    67   35   36 1    
    68   35   37 1    
    69   35   91 1    
    70   36   92 1    
    71   36   93 1    
    72   36   94 1    
    73   37   38 2    
    74   37   39 am   BACKBONE|DICT|INTERRES
    75   39   40 1    
    76   39   95 1    
    77   40   41 1    
    78   40   42 1    
    79   40   96 1    
    80   41   97 1    
    81   41   98 1    
    82   41   99 1    
    83   42   43 2    
    84   42   44 am   BACKBONE|DICT|INTERRES
    85   44   45 1    
    86   44  100 1    
    87   45   46 1    
    88   45   47 1    
    89   45  101 1    
    90   46  102 1    
    91   46  103 1    
    92   46  104 1    
    93   47   48 2    
    94   47   49 am   BACKBONE|DICT|INTERRES
    95   49   50 1    
    96   49  105 1    
    97   50   51 1    
    98   50   52 1    
    99   50  106 1    
   100   51  107 1    
   101   51  108 1    
   102   51  109 1    
   103   52   53 2    
   104   52   54 am   BACKBONE|DICT|INTERRES
   105   54   55 1    
   106   54  110 1    
   107   55   56 1    
   108   55   59 1    
   109   55  111 1    
   110   56   57 am   BACKBONE|DICT|INTERRES
   111   56   58 2    
   112   57  112 1    
   113   57  113 1    
   114   59   60 1    
   115   59  114 1    
   116   59  115 1    
   117   60   61 1    
   118   61  116 1    
   119   61  117 1    
@<TRIPOS>SUBSTRUCTURE
     1 UNK         1 GROUP             0       ****    0 ROOT    
