@<TRIPOS>MOLECULE
3R8
117   119    1
SMALL
USER_CHARGES


@<TRIPOS>ATOM
      1 CA         14.6320  -26.6418  -49.3606 C.3       0 UNK        -0.2013 
      2 C          15.8838  -27.3341  -48.8420 C.2       0 UNK         0.4866 
      3 O          16.7806  -27.6464  -49.6265 O.2       0 UNK        -0.5176 
      4 N          15.9479  -27.5850  -47.5288 N.am      1 UNK        -0.4884 
      5 CA         17.0940  -28.1979  -46.8498 C.3       1 UNK         0.0853 
      6 C6         16.7480  -28.6125  -45.4008 C.3       10 UNK        -0.0849 
      7 S7         15.5040  -29.9405  -45.3037 S.3       10 UNK        -0.2776 
      8 C8         14.7081  -29.5689  -43.7035 C.3       10 UNK         0.0316 
      9 C9         15.7237  -29.3580  -42.5861 C.ar      10 UNK        -0.0863 
     10 C10        16.4976  -30.4268  -42.1242 C.ar      10 UNK        -0.1009 
     11 C11        17.4551  -30.2277  -41.1253 C.ar      10 UNK        -0.0712 
     12 C12        17.6155  -28.9562  -40.5679 C.ar      10 UNK        -0.0894 
     13 C13        16.8495  -27.8786  -41.0212 C.ar      10 UNK        -0.0745 
     14 C14        15.9033  -28.0870  -42.0292 C.ar      10 UNK        -0.0972 
     15 C15        17.0285  -26.4943  -40.4103 C.3       10 UNK         0.0209 
     16 S16        18.7364  -25.8699  -40.5446 S.3       10 UNK        -0.2568 
     17 C17        18.9342  -25.6298  -42.3441 C.3       10 UNK        -0.0983 
     18 CA         20.2302  -26.2817  -42.8897 C.3       3 UNK         0.0876 
     19 N          20.1832  -26.4042  -44.3476 N.am      3 UNK        -0.4424 
     20 C          21.0336  -27.1240  -45.0902 C.2       2 UNK         0.4918 
     21 O          21.9438  -27.8077  -44.6207 O.2       2 UNK        -0.4875 
     22 CA         20.7728  -27.1239  -46.6087 C.3       2 UNK         0.0481 
     23 CB         21.9018  -27.8060  -47.4035 C.3       2 UNK        -0.1831 
     24 N          19.5095  -27.8074  -46.8899 N.am      2 UNK        -0.4498 
     25 C          18.2994  -27.2400  -46.8078 C.2       1 UNK         0.5027 
     26 O          18.1221  -26.0354  -46.6036 O.2       1 UNK        -0.4969 
     27 C          21.4905  -25.5042  -42.4506 C.2       3 UNK         0.5005 
     28 O          21.7895  -24.4520  -43.0225 O.2       3 UNK        -0.5279 
     29 N          22.1838  -26.0252  -41.4341 N.am      4 UNK        -0.4463 
     30 CA         23.3728  -25.4636  -40.8013 C.3       4 UNK         0.0283 
     31 CB         24.5986  -25.5667  -41.7329 C.3       4 UNK        -0.1875 
     32 C          23.6107  -26.2359  -39.4986 C.2       4 UNK         0.4949 
     33 O          23.0567  -27.3245  -39.3224 O.2       4 UNK        -0.5039 
     34 N          24.4561  -25.6804  -38.6215 N.am      5 UNK        -0.4663 
     35 CA         24.7987  -26.2507  -37.3110 C.3       5 UNK         0.0242 
     36 CB         25.6127  -25.2185  -36.5132 C.3       5 UNK        -0.1982 
     37 C          25.5504  -27.5954  -37.3705 C.2       5 UNK         0.5017 
     38 O          25.5203  -28.3404  -36.3903 O.2       5 UNK        -0.5012 
     39 N          26.2010  -27.8789  -38.5056 N.am      6 UNK        -0.4439 
     40 CA         26.9283  -29.1179  -38.7847 C.3       6 UNK         0.0297 
     41 CB         28.4429  -28.8511  -38.6878 C.3       6 UNK        -0.2006 
     42 C          26.5108  -29.7057  -40.1451 C.2       6 UNK         0.4892 
     43 O          27.3463  -30.2876  -40.8397 O.2       6 UNK        -0.5089 
     44 N          25.2332  -29.5353  -40.5168 N.am      7 UNK        -0.4243 
     45 CA         24.6497  -30.0931  -41.7392 C.3       7 UNK         0.0196 
     46 CB         23.2861  -29.4338  -41.9995 C.3       7 UNK        -0.2007 
     47 C          24.4832  -31.6193  -41.6618 C.2       7 UNK         0.5020 
     48 O          24.2483  -32.1633  -40.5811 O.2       7 UNK        -0.5147 
     49 N          24.5329  -32.2693  -42.8300 N.am      8 UNK        -0.4734 
     50 CA         24.2581  -33.6991  -43.0179 C.3       8 UNK         0.0238 
     51 CB         25.2961  -34.2803  -43.9969 C.3       8 UNK        -0.1912 
     52 C          22.8101  -33.9350  -43.4967 C.2       8 UNK         0.5038 
     53 O          22.5545  -34.8884  -44.2348 O.2       8 UNK        -0.5046 
     54 N          21.8976  -33.0411  -43.0983 N.am      9 UNK        -0.4200 
     55 CA         20.4642  -33.0605  -43.4111 C.3       9 UNK         0.0839 
     56 C          19.7014  -34.2698  -42.7983 C.2       9 UNK         0.5513 
     57 N          18.5529  -34.6205  -43.3615 N.am      9 UNK        -0.7519 
     58 O          20.1178  -34.8713  -41.8100 O.2       9 UNK        -0.4960 
     59 C59        19.8068  -31.7014  -43.0495 C.3       10 UNK        -0.0876 
     60 S60        20.0261  -31.2211  -41.2976 S.3       10 UNK        -0.2414 
     61 C61        18.3315  -31.3765  -40.6523 C.3       10 UNK         0.0169 
     62 H62        13.9184  -26.4374  -48.5626 H         1 UNK         0.0903 
     63 H63        14.8951  -25.6947  -49.8309 H         1 UNK         0.0903 
     64 H64        14.1385  -27.2666  -50.1046 H         1 UNK         0.0903 
     65 H65        15.1867  -27.3011  -46.9290 H         1 UNK         0.3096 
     66 H66        17.3806  -29.0894  -47.4128 H         1 UNK         0.1121 
     67 H67        17.6349  -28.9706  -44.8722 H         1 UNK         0.0849 
     68 H68        16.3946  -27.7434  -44.8422 H         1 UNK         0.0849 
     69 H69        14.0733  -28.6891  -43.8204 H         1 UNK         0.0865 
     70 H70        14.0421  -30.3909  -43.4371 H         1 UNK         0.0865 
     71 H71        16.3673  -31.4078  -42.5607 H         1 UNK         0.1346 
     72 H72        18.3538  -28.8009  -39.7928 H         1 UNK         0.1412 
     73 H73        15.3081  -27.2567  -42.3845 H         1 UNK         0.1426 
     74 H74        16.7562  -26.5411  -39.3551 H         1 UNK         0.0716 
     75 H75        16.3518  -25.7716  -40.8691 H         1 UNK         0.0716 
     76 H76        18.9053  -24.5611  -42.5654 H         1 UNK         0.0695 
     77 H77        18.0675  -26.0609  -42.8478 H         1 UNK         0.0695 
     78 H78        20.2919  -27.2992  -42.4949 H         1 UNK         0.0983 
     79 H79        19.4667  -25.8736  -44.8264 H         1 UNK         0.3095 
     80 H80        20.7137  -26.0849  -46.9397 H         1 UNK         0.0454 
     81 H81        22.0161  -28.8558  -47.1307 H         1 UNK         0.0851 
     82 H82        22.8585  -27.3158  -47.2183 H         1 UNK         0.0851 
     83 H83        21.7165  -27.7568  -48.4765 H         1 UNK         0.0851 
     84 H84        19.5694  -28.8071  -47.0235 H         1 UNK         0.2976 
     85 H85        21.8562  -26.8687  -40.9759 H         1 UNK         0.3116 
     86 H86        23.1776  -24.4173  -40.5578 H         1 UNK         0.0646 
     87 H87        24.8562  -26.6017  -41.9571 H         1 UNK         0.0847 
     88 H88        25.4765  -25.1066  -41.2785 H         1 UNK         0.0847 
     89 H89        24.4296  -25.0546  -42.6800 H         1 UNK         0.0847 
     90 H90        24.8721  -24.7872  -38.8464 H         1 UNK         0.3040 
     91 H91        23.8638  -26.4357  -36.7769 H         1 UNK         0.1015 
     92 H92        25.0540  -24.2928  -36.3738 H         1 UNK         0.0786 
     93 H93        26.5526  -24.9742  -37.0099 H         1 UNK         0.0786 
     94 H94        25.8585  -25.5973  -35.5199 H         1 UNK         0.0786 
     95 H95        26.1600  -27.2036  -39.2560 H         1 UNK         0.3172 
     96 H96        26.6715  -29.8772  -38.0434 H         1 UNK         0.0595 
     97 H97        28.7746  -28.1362  -39.4416 H         1 UNK         0.0839 
     98 H98        29.0147  -29.7688  -38.8321 H         1 UNK         0.0839 
     99 H99        28.7133  -28.4559  -37.7085 H         1 UNK         0.0839 
    100 H100       24.5963  -29.0755  -39.8790 H         1 UNK         0.2998 
    101 H101       25.3144  -29.8579  -42.5735 H         1 UNK         0.0822 
    102 H102       23.3965  -28.3742  -42.2176 H         1 UNK         0.0787 
    103 H103       22.7848  -29.8780  -42.8607 H         1 UNK         0.0787 
    104 H104       22.6171  -29.5351  -41.1441 H         1 UNK         0.0787 
    105 H105       24.6943  -31.7357  -43.6736 H         1 UNK         0.3055 
    106 H106       24.3629  -34.2276  -42.0675 H         1 UNK         0.1106 
    107 H107       25.1737  -35.3589  -44.1055 H         1 UNK         0.0828 
    108 H108       25.2059  -33.8396  -44.9904 H         1 UNK         0.0828 
    109 H109       26.3131  -34.1083  -43.6440 H         1 UNK         0.0828 
    110 H110       22.1876  -32.3255  -42.4489 H         1 UNK         0.2931 
    111 H111       20.3952  -33.1715  -44.4952 H         1 UNK         0.0412 
    112 H112       18.1994  -34.1399  -44.1741 H         1 UNK         0.3472 
    113 H113       18.0361  -35.3954  -42.9755 H         1 UNK         0.3472 
    114 H114       20.2481  -30.9126  -43.6607 H         1 UNK         0.0970 
    115 H115       18.7487  -31.7047  -43.3133 H         1 UNK         0.0970 
    116 H116       17.9126  -32.3402  -40.9464 H         1 UNK         0.0612 
    117 H117       18.3687  -31.3770  -39.5621 H         1 UNK         0.0612 
@<TRIPOS>BOND
     1    1    2 1    
     2    1   62 1    
     3    1   63 1    
     4    1   64 1    
     5    2    3 2    
     6    2    4 am   BACKBONE|DICT|INTERRES
     7    4    5 1    
     8    4   65 1    
     9    5    6 1    
    10    5   25 1    
    11    5   66 1    
    12    6    7 1    
    13    6   67 1    
    14    6   68 1    
    15    7    8 1    
    16    8    9 1    
    17    8   69 1    
    18    8   70 1    
    19    9   10 ar   
    20    9   14 ar   
    21   10   11 ar   
    22   10   71 1    
    23   11   12 ar   
    24   11   61 1    
    25   12   13 ar   
    26   12   72 1    
    27   13   14 ar   
    28   13   15 1    
    29   14   73 1    
    30   15   16 1    
    31   15   74 1    
    32   15   75 1    
    33   16   17 1    
    34   17   18 1    
    35   17   76 1    
    36   17   77 1    
    37   18   19 1    
    38   18   27 1    
    39   18   78 1    
    40   19   20 am   BACKBONE|DICT|INTERRES
    41   19   79 1    
    42   20   21 2    
    43   20   22 1    
    44   22   23 1    
    45   22   24 1    
    46   22   80 1    
    47   23   81 1    
    48   23   82 1    
    49   23   83 1    
    50   24   25 am   BACKBONE|DICT|INTERRES
    51   24   84 1    
    52   25   26 2    
    53   27   28 2    
    54   27   29 am   BACKBONE|DICT|INTERRES
    55   29   30 1    
    56   29   85 1    
    57   30   31 1    
    58   30   32 1    
    59   30   86 1    
    60   31   87 1    
    61   31   88 1    
    62   31   89 1    
    63   32   33 2    
    64   32   34 am   BACKBONE|DICT|INTERRES
    65   34   35 1    
    66   34   90 1    
    67   35   36 1    
    68   35   37 1    
    69   35   91 1    
    70   36   92 1    
    71   36   93 1    
    72   36   94 1    
    73   37   38 2    
    74   37   39 am   BACKBONE|DICT|INTERRES
    75   39   40 1    
    76   39   95 1    
    77   40   41 1    
    78   40   42 1    
    79   40   96 1    
    80   41   97 1    
    81   41   98 1    
    82   41   99 1    
    83   42   43 2    
    84   42   44 am   BACKBONE|DICT|INTERRES
    85   44   45 1    
    86   44  100 1    
    87   45   46 1    
    88   45   47 1    
    89   45  101 1    
    90   46  102 1    
    91   46  103 1    
    92   46  104 1    
    93   47   48 2    
    94   47   49 am   BACKBONE|DICT|INTERRES
    95   49   50 1    
    96   49  105 1    
    97   50   51 1    
    98   50   52 1    
    99   50  106 1    
   100   51  107 1    
   101   51  108 1    
   102   51  109 1    
   103   52   53 2    
   104   52   54 am   BACKBONE|DICT|INTERRES
   105   54   55 1    
   106   54  110 1    
   107   55   56 1    
   108   55   59 1    
   109   55  111 1    
   110   56   57 am   BACKBONE|DICT|INTERRES
   111   56   58 2    
   112   57  112 1    
   113   57  113 1    
   114   59   60 1    
   115   59  114 1    
   116   59  115 1    
   117   60   61 1    
   118   61  116 1    
   119   61  117 1    
@<TRIPOS>SUBSTRUCTURE
     1 UNK         1 GROUP             0       ****    0 ROOT    
