@<TRIPOS>MOLECULE
3R8
117   119    1
SMALL
USER_CHARGES


@<TRIPOS>ATOM
      1 CA         19.9982  -25.8430  -38.2797 C.3       0 UNK        -0.2013 
      2 C          19.2021  -25.8233  -39.5758 C.2       0 UNK         0.4866 
      3 O          18.2920  -25.0073  -39.7274 O.2       0 UNK        -0.5176 
      4 N          19.5453  -26.7125  -40.5113 N.am      1 UNK        -0.4884 
      5 CA         19.0062  -26.7565  -41.8708 C.3       1 UNK         0.0853 
      6 C6         19.0084  -28.2011  -42.4314 C.3       10 UNK        -0.0849 
      7 S7         17.8630  -29.2895  -41.5201 S.3       10 UNK        -0.2776 
      8 C8         16.6490  -29.7380  -42.8038 C.3       10 UNK         0.0316 
      9 C9         17.2257  -30.7261  -43.8090 C.ar      10 UNK        -0.0863 
     10 C10        17.3131  -32.0823  -43.4829 C.ar      10 UNK        -0.1009 
     11 C11        17.8485  -32.9982  -44.3915 C.ar      10 UNK        -0.0712 
     12 C12        18.2965  -32.5476  -45.6366 C.ar      10 UNK        -0.0894 
     13 C13        18.2104  -31.1957  -45.9845 C.ar      10 UNK        -0.0745 
     14 C14        17.6581  -30.2925  -45.0665 C.ar      10 UNK        -0.0972 
     15 C15        18.6804  -30.7603  -47.3733 C.3       10 UNK         0.0209 
     16 S16        19.3092  -29.0500  -47.4798 S.3       10 UNK        -0.2568 
     17 C17        20.8583  -29.1653  -46.5237 C.3       10 UNK        -0.0983 
     18 CA         21.5836  -27.7982  -46.4528 C.3       3 UNK         0.0876 
     19 N          20.7474  -26.7808  -45.8120 N.am      3 UNK        -0.4424 
     20 C          21.0277  -25.4780  -45.6701 C.2       2 UNK         0.4918 
     21 O          22.0595  -24.9434  -46.0767 O.2       2 UNK        -0.4875 
     22 CA         19.9765  -24.6304  -44.9288 C.3       2 UNK         0.0481 
     23 CB         18.9611  -24.0457  -45.9229 C.3       2 UNK        -0.1831 
     24 N          19.2683  -25.3881  -43.8902 N.am      2 UNK        -0.4498 
     25 C          19.8536  -25.8397  -42.7716 C.2       1 UNK         0.5027 
     26 O          21.0237  -25.5895  -42.4736 O.2       1 UNK        -0.4969 
     27 C          22.9436  -27.9140  -45.7367 C.2       3 UNK         0.5005 
     28 O          23.0043  -28.4326  -44.6195 O.2       3 UNK        -0.5279 
     29 N          23.9916  -27.3598  -46.3682 N.am      4 UNK        -0.4463 
     30 CA         25.3821  -27.2666  -45.8951 C.3       4 UNK         0.0283 
     31 CB         26.0236  -28.6700  -45.8493 C.3       4 UNK        -0.1875 
     32 C          25.5598  -26.5119  -44.5583 C.2       4 UNK         0.4949 
     33 O          26.6087  -26.6497  -43.9277 O.2       4 UNK        -0.5039 
     34 N          24.5324  -25.7550  -44.1377 N.am      5 UNK        -0.4663 
     35 CA         24.3689  -25.1236  -42.8197 C.3       5 UNK         0.0242 
     36 CB         25.3770  -23.9678  -42.6431 C.3       5 UNK        -0.1982 
     37 C          24.4032  -26.1282  -41.6418 C.2       5 UNK         0.5017 
     38 O          24.7566  -25.7407  -40.5258 O.2       5 UNK        -0.5012 
     39 N          24.0795  -27.4023  -41.9072 N.am      6 UNK        -0.4439 
     40 CA         24.2039  -28.5059  -40.9561 C.3       6 UNK         0.0297 
     41 CB         24.3901  -29.8108  -41.7433 C.3       6 UNK        -0.2006 
     42 C          22.9857  -28.6060  -40.0270 C.2       6 UNK         0.4892 
     43 O          21.8730  -28.2581  -40.4237 O.2       6 UNK        -0.5089 
     44 N          23.2105  -29.1148  -38.8102 N.am      7 UNK        -0.4243 
     45 CA         22.1585  -29.3929  -37.8325 C.3       7 UNK         0.0196 
     46 CB         22.7809  -29.4934  -36.4310 C.3       7 UNK        -0.2007 
     47 C          21.4179  -30.6908  -38.1860 C.2       7 UNK         0.5020 
     48 O          22.0664  -31.6822  -38.5321 O.2       7 UNK        -0.5147 
     49 N          20.0826  -30.6639  -38.0719 N.am      8 UNK        -0.4734 
     50 CA         19.1057  -31.7529  -38.2594 C.3       8 UNK         0.0238 
     51 CB         19.3240  -32.8721  -37.2223 C.3       8 UNK        -0.1912 
     52 C          19.0085  -32.3436  -39.6805 C.2       8 UNK         0.5038 
     53 O          17.8978  -32.6275  -40.1272 O.2       8 UNK        -0.5046 
     54 N          20.1545  -32.5254  -40.3394 N.am      9 UNK        -0.4200 
     55 CA         20.3709  -33.0371  -41.6991 C.3       9 UNK         0.0839 
     56 C          21.8715  -32.9474  -42.1102 C.2       9 UNK         0.5513 
     57 N          22.8192  -32.8022  -41.1881 N.am      9 UNK        -0.7519 
     58 O          22.1934  -32.9870  -43.2939 O.2       9 UNK        -0.4960 
     59 C59        19.7951  -34.4725  -41.8991 C.3       10 UNK        -0.0876 
     60 S60        19.6255  -34.9941  -43.6420 S.3       10 UNK        -0.2414 
     61 C61        17.9265  -34.4778  -44.0433 C.3       10 UNK         0.0169 
     62 H62        20.9898  -26.2698  -38.4294 H         1 UNK         0.0903 
     63 H63        20.1268  -24.8302  -37.8986 H         1 UNK         0.0903 
     64 H64        19.4763  -26.4293  -37.5241 H         1 UNK         0.0903 
     65 H65        20.3633  -27.3070  -40.3717 H         1 UNK         0.3096 
     66 H66        17.9807  -26.3800  -41.8684 H         1 UNK         0.1121 
     67 H67        20.0088  -28.6364  -42.3810 H         1 UNK         0.0849 
     68 H68        18.7373  -28.2048  -43.4870 H         1 UNK         0.0849 
     69 H69        15.7785  -30.1839  -42.3201 H         1 UNK         0.0865 
     70 H70        16.2883  -28.8369  -43.3023 H         1 UNK         0.0865 
     71 H71        16.9701  -32.4226  -42.5158 H         1 UNK         0.1346 
     72 H72        18.7087  -33.2591  -46.3395 H         1 UNK         0.1412 
     73 H73        17.5629  -29.2486  -45.3285 H         1 UNK         0.1426 
     74 H74        17.8411  -30.8598  -48.0626 H         1 UNK         0.0716 
     75 H75        19.4585  -31.4336  -47.7368 H         1 UNK         0.0716 
     76 H76        21.4966  -29.9146  -46.9959 H         1 UNK         0.0695 
     77 H77        20.6304  -29.5374  -45.5223 H         1 UNK         0.0695 
     78 H78        21.7648  -27.4667  -47.4777 H         1 UNK         0.0983 
     79 H79        19.8715  -27.1166  -45.4451 H         1 UNK         0.3095 
     80 H80        20.4981  -23.7997  -44.4486 H         1 UNK         0.0454 
     81 H81        18.3931  -24.8261  -46.4310 H         1 UNK         0.0851 
     82 H82        19.4642  -23.4574  -46.6917 H         1 UNK         0.0851 
     83 H83        18.2527  -23.3838  -45.4245 H         1 UNK         0.0851 
     84 H84        18.2974  -25.6057  -44.0661 H         1 UNK         0.2976 
     85 H85        23.8141  -26.8998  -47.2516 H         1 UNK         0.3116 
     86 H86        25.9188  -26.6809  -46.6428 H         1 UNK         0.0646 
     87 H87        25.9143  -29.1888  -46.8014 H         1 UNK         0.0847 
     88 H88        25.5758  -29.2931  -45.0742 H         1 UNK         0.0847 
     89 H89        27.0920  -28.6089  -45.6386 H         1 UNK         0.0847 
     90 H90        23.7276  -25.6896  -44.7500 H         1 UNK         0.3040 
     91 H91        23.3719  -24.6839  -42.8141 H         1 UNK         0.1015 
     92 H92        26.4016  -24.3321  -42.5630 H         1 UNK         0.0786 
     93 H93        25.1640  -23.3974  -41.7382 H         1 UNK         0.0786 
     94 H94        25.3323  -23.2710  -43.4801 H         1 UNK         0.0786 
     95 H95        23.7314  -27.6383  -42.8317 H         1 UNK         0.3172 
     96 H96        25.0972  -28.3443  -40.3486 H         1 UNK         0.0595 
     97 H97        23.5029  -30.0585  -42.3289 H         1 UNK         0.0839 
     98 H98        24.5848  -30.6442  -41.0684 H         1 UNK         0.0839 
     99 H99        25.2354  -29.7457  -42.4287 H         1 UNK         0.0839 
    100 H100       24.1408  -29.4283  -38.5738 H         1 UNK         0.2998 
    101 H101       21.4489  -28.5636  -37.8331 H         1 UNK         0.0822 
    102 H102       23.2889  -28.5691  -36.1549 H         1 UNK         0.0787 
    103 H103       22.0151  -29.6795  -35.6766 H         1 UNK         0.0787 
    104 H104       23.5048  -30.3071  -36.3674 H         1 UNK         0.0787 
    105 H105       19.6645  -29.7792  -37.8178 H         1 UNK         0.3055 
    106 H106       18.1304  -31.3069  -38.0554 H         1 UNK         0.1106 
    107 H107       19.2882  -32.4828  -36.2049 H         1 UNK         0.0828 
    108 H108       20.2839  -33.3719  -37.3564 H         1 UNK         0.0828 
    109 H109       18.5485  -33.6351  -37.3039 H         1 UNK         0.0828 
    110 H110       20.9952  -32.2353  -39.8477 H         1 UNK         0.2931 
    111 H111       19.8381  -32.3515  -42.3581 H         1 UNK         0.0412 
    112 H112       23.7760  -32.7580  -41.4988 H         1 UNK         0.3472 
    113 H113       22.6176  -32.7237  -40.2000 H         1 UNK         0.3472 
    114 H114       18.8138  -34.5720  -41.4377 H         1 UNK         0.0970 
    115 H115       20.4240  -35.2004  -41.3836 H         1 UNK         0.0970 
    116 H116       17.5798  -35.0618  -44.8970 H         1 UNK         0.0612 
    117 H117       17.2563  -34.7229  -43.2180 H         1 UNK         0.0612 
@<TRIPOS>BOND
     1    1    2 1    
     2    1   62 1    
     3    1   63 1    
     4    1   64 1    
     5    2    3 2    
     6    2    4 am   BACKBONE|DICT|INTERRES
     7    4    5 1    
     8    4   65 1    
     9    5    6 1    
    10    5   25 1    
    11    5   66 1    
    12    6    7 1    
    13    6   67 1    
    14    6   68 1    
    15    7    8 1    
    16    8    9 1    
    17    8   69 1    
    18    8   70 1    
    19    9   10 ar   
    20    9   14 ar   
    21   10   11 ar   
    22   10   71 1    
    23   11   12 ar   
    24   11   61 1    
    25   12   13 ar   
    26   12   72 1    
    27   13   14 ar   
    28   13   15 1    
    29   14   73 1    
    30   15   16 1    
    31   15   74 1    
    32   15   75 1    
    33   16   17 1    
    34   17   18 1    
    35   17   76 1    
    36   17   77 1    
    37   18   19 1    
    38   18   27 1    
    39   18   78 1    
    40   19   20 am   BACKBONE|DICT|INTERRES
    41   19   79 1    
    42   20   21 2    
    43   20   22 1    
    44   22   23 1    
    45   22   24 1    
    46   22   80 1    
    47   23   81 1    
    48   23   82 1    
    49   23   83 1    
    50   24   25 am   BACKBONE|DICT|INTERRES
    51   24   84 1    
    52   25   26 2    
    53   27   28 2    
    54   27   29 am   BACKBONE|DICT|INTERRES
    55   29   30 1    
    56   29   85 1    
    57   30   31 1    
    58   30   32 1    
    59   30   86 1    
    60   31   87 1    
    61   31   88 1    
    62   31   89 1    
    63   32   33 2    
    64   32   34 am   BACKBONE|DICT|INTERRES
    65   34   35 1    
    66   34   90 1    
    67   35   36 1    
    68   35   37 1    
    69   35   91 1    
    70   36   92 1    
    71   36   93 1    
    72   36   94 1    
    73   37   38 2    
    74   37   39 am   BACKBONE|DICT|INTERRES
    75   39   40 1    
    76   39   95 1    
    77   40   41 1    
    78   40   42 1    
    79   40   96 1    
    80   41   97 1    
    81   41   98 1    
    82   41   99 1    
    83   42   43 2    
    84   42   44 am   BACKBONE|DICT|INTERRES
    85   44   45 1    
    86   44  100 1    
    87   45   46 1    
    88   45   47 1    
    89   45  101 1    
    90   46  102 1    
    91   46  103 1    
    92   46  104 1    
    93   47   48 2    
    94   47   49 am   BACKBONE|DICT|INTERRES
    95   49   50 1    
    96   49  105 1    
    97   50   51 1    
    98   50   52 1    
    99   50  106 1    
   100   51  107 1    
   101   51  108 1    
   102   51  109 1    
   103   52   53 2    
   104   52   54 am   BACKBONE|DICT|INTERRES
   105   54   55 1    
   106   54  110 1    
   107   55   56 1    
   108   55   59 1    
   109   55  111 1    
   110   56   57 am   BACKBONE|DICT|INTERRES
   111   56   58 2    
   112   57  112 1    
   113   57  113 1    
   114   59   60 1    
   115   59  114 1    
   116   59  115 1    
   117   60   61 1    
   118   61  116 1    
   119   61  117 1    
@<TRIPOS>SUBSTRUCTURE
     1 UNK         1 GROUP             0       ****    0 ROOT    
