@<TRIPOS>MOLECULE
3R8
117   119    1
SMALL
USER_CHARGES


@<TRIPOS>ATOM
      1 CA         21.0381  -25.0302  -39.7484 C.3       0 UNK        -0.2013 
      2 C          20.5190  -25.6077  -41.0564 C.2       0 UNK         0.4866 
      3 O          21.1997  -26.4370  -41.6651 O.2       0 UNK        -0.5176 
      4 N          19.3207  -25.1659  -41.4656 N.am      1 UNK        -0.4884 
      5 CA         18.6156  -25.4626  -42.7226 C.3       1 UNK         0.0853 
      6 C6         18.4641  -26.9776  -43.0351 C.3       10 UNK        -0.0849 
      7 S7         17.5081  -27.8682  -41.7646 S.3       10 UNK        -0.2776 
      8 C8         16.5425  -29.0273  -42.7854 C.3       10 UNK         0.0316 
      9 C9         17.4249  -30.0781  -43.4476 C.ar      10 UNK        -0.0863 
     10 C10        17.7883  -31.2292  -42.7448 C.ar      10 UNK        -0.1009 
     11 C11        18.5563  -32.2278  -43.3504 C.ar      10 UNK        -0.0712 
     12 C12        18.9804  -32.0473  -44.6743 C.ar      10 UNK        -0.0894 
     13 C13        18.6444  -30.8921  -45.3892 C.ar      10 UNK        -0.0745 
     14 C14        17.8492  -29.9193  -44.7702 C.ar      10 UNK        -0.0972 
     15 C15        19.1030  -30.7652  -46.8441 C.3       10 UNK         0.0209 
     16 S16        19.2842  -29.0563  -47.4657 S.3       10 UNK        -0.2568 
     17 C17        20.8047  -28.5150  -46.6175 C.3       10 UNK        -0.0983 
     18 CA         21.1824  -27.0516  -46.9688 C.3       3 UNK         0.0876 
     19 N          20.1069  -26.1271  -46.6060 N.am      3 UNK        -0.4424 
     20 C          20.0039  -24.8431  -46.9726 C.2       2 UNK         0.4918 
     21 O          20.7634  -24.2903  -47.7677 O.2       2 UNK        -0.4875 
     22 CA         18.8806  -24.0297  -46.2974 C.3       2 UNK         0.0481 
     23 CB         17.6669  -23.9155  -47.2332 C.3       2 UNK        -0.1831 
     24 N          18.4487  -24.5836  -45.0043 N.am      2 UNK        -0.4498 
     25 C          19.2349  -24.7175  -43.9237 C.2       1 UNK         0.5027 
     26 O          20.4046  -24.3285  -43.8933 O.2       1 UNK        -0.4969 
     27 C          22.5380  -26.6818  -46.3218 C.2       3 UNK         0.5005 
     28 O          23.5657  -27.1643  -46.8001 O.2       3 UNK        -0.5279 
     29 N          22.5245  -25.8647  -45.2506 N.am      4 UNK        -0.4463 
     30 CA         23.6652  -25.4789  -44.4075 C.3       4 UNK         0.0283 
     31 CB         24.6489  -24.5794  -45.1849 C.3       4 UNK        -0.1875 
     32 C          24.3412  -26.7041  -43.7628 C.2       4 UNK         0.4949 
     33 O          25.5687  -26.8081  -43.7476 O.2       4 UNK        -0.5039 
     34 N          23.5067  -27.6273  -43.2712 N.am      5 UNK        -0.4663 
     35 CA         23.9054  -28.9468  -42.7792 C.3       5 UNK         0.0242 
     36 CB         22.9255  -29.9835  -43.3520 C.3       5 UNK        -0.1982 
     37 C          23.9499  -29.0238  -41.2440 C.2       5 UNK         0.5017 
     38 O          24.2048  -30.1034  -40.7110 O.2       5 UNK        -0.5012 
     39 N          23.6775  -27.8972  -40.5670 N.am      6 UNK        -0.4439 
     40 CA         23.5448  -27.7399  -39.1125 C.3       6 UNK         0.0297 
     41 CB         24.8675  -28.0634  -38.3846 C.3       6 UNK        -0.2006 
     42 C          22.3385  -28.5130  -38.5426 C.2       6 UNK         0.4892 
     43 O          22.3926  -28.9785  -37.4029 O.2       6 UNK        -0.5089 
     44 N          21.2759  -28.6347  -39.3546 N.am      7 UNK        -0.4243 
     45 CA         19.9966  -29.3221  -39.1255 C.3       7 UNK         0.0196 
     46 CB         19.2112  -28.6827  -37.9653 C.3       7 UNK        -0.2007 
     47 C          20.0999  -30.8490  -38.9606 C.2       7 UNK         0.5020 
     48 O          19.3313  -31.5756  -39.5880 O.2       7 UNK        -0.5147 
     49 N          21.0498  -31.3235  -38.1498 N.am      8 UNK        -0.4734 
     50 CA         21.3873  -32.7344  -37.9662 C.3       8 UNK         0.0238 
     51 CB         21.9940  -32.9189  -36.5627 C.3       8 UNK        -0.1912 
     52 C          22.3342  -33.1958  -39.0884 C.2       8 UNK         0.5038 
     53 O          23.5206  -33.4199  -38.8381 O.2       8 UNK        -0.5046 
     54 N          21.7968  -33.2773  -40.3122 N.am      9 UNK        -0.4200 
     55 CA         22.5238  -33.6462  -41.5343 C.3       9 UNK         0.0839 
     56 C          23.1233  -35.0829  -41.5178 C.2       9 UNK         0.5513 
     57 N          24.1541  -35.3289  -42.3157 N.am      9 UNK        -0.7519 
     58 O          22.6512  -35.9779  -40.8186 O.2       9 UNK        -0.4960 
     59 C59        21.6794  -33.3527  -42.8050 C.3       10 UNK        -0.0876 
     60 S60        20.2798  -34.4890  -43.1048 S.3       10 UNK        -0.2414 
     61 C61        18.8493  -33.5005  -42.5515 C.3       10 UNK         0.0169 
     62 H62        20.9434  -25.7616  -38.9473 H         1 UNK         0.0903 
     63 H63        22.0880  -24.7572  -39.8487 H         1 UNK         0.0903 
     64 H64        20.4894  -24.1356  -39.4548 H         1 UNK         0.0903 
     65 H65        18.8505  -24.4839  -40.8870 H         1 UNK         0.3096 
     66 H66        17.6139  -25.0481  -42.5941 H         1 UNK         0.1121 
     67 H67        19.4313  -27.4680  -43.1525 H         1 UNK         0.0849 
     68 H68        17.9516  -27.1081  -43.9884 H         1 UNK         0.0849 
     69 H69        15.8039  -29.5197  -42.1510 H         1 UNK         0.0865 
     70 H70        15.9720  -28.4741  -43.5331 H         1 UNK         0.0865 
     71 H71        17.4544  -31.3565  -41.7234 H         1 UNK         0.1346 
     72 H72        19.5600  -32.8161  -45.1653 H         1 UNK         0.1412 
     73 H73        17.5457  -29.0407  -45.3207 H         1 UNK         0.1426 
     74 H74        18.3752  -31.2797  -47.4727 H         1 UNK         0.0716 
     75 H75        20.0521  -31.2849  -46.9852 H         1 UNK         0.0716 
     76 H76        20.6668  -28.6324  -45.5405 H         1 UNK         0.0695 
     77 H77        21.6078  -29.1978  -46.9025 H         1 UNK         0.0695 
     78 H78        21.3240  -26.9837  -48.0498 H         1 UNK         0.0983 
     79 H79        19.3992  -26.5014  -45.9943 H         1 UNK         0.3095 
     80 H80        19.2685  -23.0253  -46.1156 H         1 UNK         0.0454 
     81 H81        16.8949  -23.2741  -46.8079 H         1 UNK         0.0851 
     82 H82        17.9533  -23.4800  -48.1916 H         1 UNK         0.0851 
     83 H83        17.2209  -24.8893  -47.4395 H         1 UNK         0.0851 
     84 H84        17.4925  -24.9070  -44.9564 H         1 UNK         0.2976 
     85 H85        21.6335  -25.4899  -44.9387 H         1 UNK         0.3116 
     86 H86        23.2536  -24.8885  -43.5873 H         1 UNK         0.0646 
     87 H87        25.4310  -24.1981  -44.5275 H         1 UNK         0.0847 
     88 H88        24.1403  -23.7177  -45.6169 H         1 UNK         0.0847 
     89 H89        25.1409  -25.1194  -45.9944 H         1 UNK         0.0847 
     90 H90        22.5169  -27.4119  -43.2440 H         1 UNK         0.3040 
     91 H91        24.9069  -29.1921  -43.1399 H         1 UNK         0.1015 
     92 H92        22.8692  -29.9209  -44.4391 H         1 UNK         0.0786 
     93 H93        21.9176  -29.8553  -42.9542 H         1 UNK         0.0786 
     94 H94        23.2564  -30.9921  -43.1077 H         1 UNK         0.0786 
     95 H95        23.4298  -27.0876  -41.1219 H         1 UNK         0.3172 
     96 H96        23.3356  -26.6842  -38.9406 H         1 UNK         0.0595 
     97 H97        25.7039  -27.5139  -38.8161 H         1 UNK         0.0839 
     98 H98        25.1061  -29.1265  -38.4255 H         1 UNK         0.0839 
     99 H99        24.8094  -27.7878  -37.3309 H         1 UNK         0.0839 
    100 H100       21.3605  -28.2057  -40.2689 H         1 UNK         0.2998 
    101 H101       19.4208  -29.1589  -40.0364 H         1 UNK         0.0822 
    102 H102       18.2296  -29.1466  -37.8607 H         1 UNK         0.0787 
    103 H103       19.7263  -28.7943  -37.0108 H         1 UNK         0.0787 
    104 H104       19.0488  -27.6189  -38.1386 H         1 UNK         0.0787 
    105 H105       21.6569  -30.6386  -37.7035 H         1 UNK         0.3055 
    106 H106       20.4799  -33.3405  -38.0230 H         1 UNK         0.1106 
    107 H107       21.2842  -32.6370  -35.7848 H         1 UNK         0.0828 
    108 H108       22.2675  -33.9606  -36.3895 H         1 UNK         0.0828 
    109 H109       22.8938  -32.3170  -36.4278 H         1 UNK         0.0828 
    110 H110       20.8173  -33.0502  -40.4195 H         1 UNK         0.2931 
    111 H111       23.3779  -32.9663  -41.5670 H         1 UNK         0.0412 
    112 H112       24.5509  -36.2558  -42.3306 H         1 UNK         0.3472 
    113 H113       24.5493  -34.6071  -42.8981 H         1 UNK         0.3472 
    114 H114       22.3215  -33.3903  -43.6864 H         1 UNK         0.0970 
    115 H115       21.3044  -32.3297  -42.7686 H         1 UNK         0.0970 
    116 H116       18.9923  -33.2577  -41.4997 H         1 UNK         0.0612 
    117 H117       17.9648  -34.1368  -42.5974 H         1 UNK         0.0612 
@<TRIPOS>BOND
     1    1    2 1    
     2    1   62 1    
     3    1   63 1    
     4    1   64 1    
     5    2    3 2    
     6    2    4 am   BACKBONE|DICT|INTERRES
     7    4    5 1    
     8    4   65 1    
     9    5    6 1    
    10    5   25 1    
    11    5   66 1    
    12    6    7 1    
    13    6   67 1    
    14    6   68 1    
    15    7    8 1    
    16    8    9 1    
    17    8   69 1    
    18    8   70 1    
    19    9   10 ar   
    20    9   14 ar   
    21   10   11 ar   
    22   10   71 1    
    23   11   12 ar   
    24   11   61 1    
    25   12   13 ar   
    26   12   72 1    
    27   13   14 ar   
    28   13   15 1    
    29   14   73 1    
    30   15   16 1    
    31   15   74 1    
    32   15   75 1    
    33   16   17 1    
    34   17   18 1    
    35   17   76 1    
    36   17   77 1    
    37   18   19 1    
    38   18   27 1    
    39   18   78 1    
    40   19   20 am   BACKBONE|DICT|INTERRES
    41   19   79 1    
    42   20   21 2    
    43   20   22 1    
    44   22   23 1    
    45   22   24 1    
    46   22   80 1    
    47   23   81 1    
    48   23   82 1    
    49   23   83 1    
    50   24   25 am   BACKBONE|DICT|INTERRES
    51   24   84 1    
    52   25   26 2    
    53   27   28 2    
    54   27   29 am   BACKBONE|DICT|INTERRES
    55   29   30 1    
    56   29   85 1    
    57   30   31 1    
    58   30   32 1    
    59   30   86 1    
    60   31   87 1    
    61   31   88 1    
    62   31   89 1    
    63   32   33 2    
    64   32   34 am   BACKBONE|DICT|INTERRES
    65   34   35 1    
    66   34   90 1    
    67   35   36 1    
    68   35   37 1    
    69   35   91 1    
    70   36   92 1    
    71   36   93 1    
    72   36   94 1    
    73   37   38 2    
    74   37   39 am   BACKBONE|DICT|INTERRES
    75   39   40 1    
    76   39   95 1    
    77   40   41 1    
    78   40   42 1    
    79   40   96 1    
    80   41   97 1    
    81   41   98 1    
    82   41   99 1    
    83   42   43 2    
    84   42   44 am   BACKBONE|DICT|INTERRES
    85   44   45 1    
    86   44  100 1    
    87   45   46 1    
    88   45   47 1    
    89   45  101 1    
    90   46  102 1    
    91   46  103 1    
    92   46  104 1    
    93   47   48 2    
    94   47   49 am   BACKBONE|DICT|INTERRES
    95   49   50 1    
    96   49  105 1    
    97   50   51 1    
    98   50   52 1    
    99   50  106 1    
   100   51  107 1    
   101   51  108 1    
   102   51  109 1    
   103   52   53 2    
   104   52   54 am   BACKBONE|DICT|INTERRES
   105   54   55 1    
   106   54  110 1    
   107   55   56 1    
   108   55   59 1    
   109   55  111 1    
   110   56   57 am   BACKBONE|DICT|INTERRES
   111   56   58 2    
   112   57  112 1    
   113   57  113 1    
   114   59   60 1    
   115   59  114 1    
   116   59  115 1    
   117   60   61 1    
   118   61  116 1    
   119   61  117 1    
@<TRIPOS>SUBSTRUCTURE
     1 UNK         1 GROUP             0       ****    0 ROOT    
