@<TRIPOS>MOLECULE
3R8
117   119    1
SMALL
USER_CHARGES


@<TRIPOS>ATOM
      1 CA         16.5981  -22.4680  -48.6355 C.3       0 UNK        -0.2013 
      2 C          17.8260  -23.1416  -48.0410 C.2       0 UNK         0.4866 
      3 O          18.8993  -22.5384  -48.0073 O.2       0 UNK        -0.5176 
      4 N          17.6801  -24.3899  -47.5790 N.am      1 UNK        -0.4884 
      5 CA         18.7350  -25.1583  -46.9103 C.3       1 UNK         0.0853 
      6 C6         18.3964  -26.6713  -46.8957 C.3       10 UNK        -0.0849 
      7 S7         19.8832  -27.7189  -46.7520 S.3       10 UNK        -0.2776 
      8 C8         19.1403  -29.3776  -46.6324 C.3       10 UNK         0.0316 
      9 C9         18.7602  -29.7256  -45.2002 C.ar      10 UNK        -0.0863 
     10 C10        19.7067  -30.3045  -44.3498 C.ar      10 UNK        -0.1009 
     11 C11        19.3770  -30.6377  -43.0325 C.ar      10 UNK        -0.0712 
     12 C12        18.0724  -30.4091  -42.5799 C.ar      10 UNK        -0.0894 
     13 C13        17.1265  -29.7935  -43.4068 C.ar      10 UNK        -0.0745 
     14 C14        17.4718  -29.4691  -44.7222 C.ar      10 UNK        -0.0972 
     15 C15        15.7494  -29.4333  -42.8633 C.3       10 UNK         0.0209 
     16 S16        15.8433  -28.4090  -41.3529 S.3       10 UNK        -0.2568 
     17 C17        16.6929  -26.8959  -41.9330 C.3       10 UNK        -0.0983 
     18 CA         18.2401  -26.9582  -41.8414 C.3       3 UNK         0.0876 
     19 N          18.8673  -25.8177  -42.5083 N.am      3 UNK        -0.4424 
     20 C          20.1824  -25.6800  -42.7206 C.2       2 UNK         0.4918 
     21 O          21.0299  -26.4730  -42.3074 O.2       2 UNK        -0.4875 
     22 CA         20.6031  -24.4939  -43.6068 C.3       2 UNK         0.0481 
     23 CB         22.1187  -24.2271  -43.5520 C.3       2 UNK        -0.1831 
     24 N          20.2140  -24.7520  -44.9943 N.am      2 UNK        -0.4498 
     25 C          18.9716  -24.6306  -45.4800 C.2       1 UNK         0.5027 
     26 O          18.0248  -24.1828  -44.8249 O.2       1 UNK        -0.4969 
     27 C          18.7707  -27.1546  -40.4052 C.2       3 UNK         0.5005 
     28 O          18.9240  -26.1792  -39.6663 O.2       3 UNK        -0.5279 
     29 N          19.0984  -28.4126  -40.0770 N.am      4 UNK        -0.4463 
     30 CA         19.7447  -28.9248  -38.8600 C.3       4 UNK         0.0283 
     31 CB         18.9393  -28.5751  -37.5939 C.3       4 UNK        -0.1875 
     32 C          21.2270  -28.5317  -38.7055 C.2       4 UNK         0.4949 
     33 O          21.9922  -29.3187  -38.1493 O.2       4 UNK        -0.5039 
     34 N          21.6148  -27.3467  -39.1926 N.am      5 UNK        -0.4663 
     35 CA         22.9868  -26.8364  -39.1666 C.3       5 UNK         0.0242 
     36 CB         22.9626  -25.3146  -39.3803 C.3       5 UNK        -0.1982 
     37 C          23.9034  -27.5147  -40.1992 C.2       5 UNK         0.5017 
     38 O          25.0883  -27.6983  -39.9162 O.2       5 UNK        -0.5012 
     39 N          23.3514  -27.8530  -41.3735 N.am      6 UNK        -0.4439 
     40 CA         24.0440  -28.5194  -42.4784 C.3       6 UNK         0.0297 
     41 CB         23.0958  -28.6178  -43.6836 C.3       6 UNK        -0.2006 
     42 C          24.5771  -29.9124  -42.1009 C.2       6 UNK         0.4892 
     43 O          23.9007  -30.6632  -41.3931 O.2       6 UNK        -0.5089 
     44 N          25.7649  -30.2394  -42.6309 N.am      7 UNK        -0.4243 
     45 CA         26.5364  -31.4580  -42.3515 C.3       7 UNK         0.0196 
     46 CB         27.8750  -31.3886  -43.1043 C.3       7 UNK        -0.2007 
     47 C          25.8166  -32.7813  -42.6652 C.2       7 UNK         0.5020 
     48 O          26.1580  -33.8026  -42.0688 O.2       7 UNK        -0.5147 
     49 N          24.8117  -32.7438  -43.5519 N.am      8 UNK        -0.4734 
     50 CA         23.9203  -33.8666  -43.8671 C.3       8 UNK         0.0238 
     51 CB         22.9686  -33.4496  -45.0008 C.3       8 UNK        -0.1912 
     52 C          23.1178  -34.3878  -42.6575 C.2       8 UNK         0.5038 
     53 O          22.7322  -35.5575  -42.6570 O.2       8 UNK        -0.5046 
     54 N          22.9007  -33.5249  -41.6568 N.am      9 UNK        -0.4200 
     55 CA         22.2688  -33.8536  -40.3721 C.3       9 UNK         0.0839 
     56 C          23.2928  -34.2475  -39.2670 C.2       9 UNK         0.5513 
     57 N          24.5905  -34.3265  -39.5412 N.am      9 UNK        -0.7519 
     58 O          22.8994  -34.5103  -38.1333 O.2       9 UNK        -0.4960 
     59 C59        21.3262  -32.7125  -39.9083 C.3       10 UNK        -0.0876 
     60 S60        19.8890  -32.5169  -41.0159 S.3       10 UNK        -0.2414 
     61 C61        20.4587  -31.1654  -42.0946 C.3       10 UNK         0.0169 
     62 H62        16.3594  -21.5636  -48.0765 H         1 UNK         0.0903 
     63 H63        16.7879  -22.1884  -49.6715 H         1 UNK         0.0903 
     64 H64        15.7246  -23.1195  -48.6149 H         1 UNK         0.0903 
     65 H65        16.7666  -24.8208  -47.5987 H         1 UNK         0.3096 
     66 H66        19.6522  -25.0104  -47.4861 H         1 UNK         0.1121 
     67 H67        17.9045  -26.9521  -47.8288 H         1 UNK         0.0849 
     68 H68        17.6899  -26.9121  -46.0993 H         1 UNK         0.0849 
     69 H69        18.2723  -29.4487  -47.2899 H         1 UNK         0.0865 
     70 H70        19.8585  -30.1090  -47.0065 H         1 UNK         0.0865 
     71 H71        20.7091  -30.4791  -44.7156 H         1 UNK         0.1346 
     72 H72        17.7985  -30.6629  -41.5650 H         1 UNK         0.1412 
     73 H73        16.7419  -29.0046  -45.3709 H         1 UNK         0.1426 
     74 H74        15.2091  -30.3526  -42.6337 H         1 UNK         0.0716 
     75 H75        15.1572  -28.9050  -43.6122 H         1 UNK         0.0716 
     76 H76        16.3173  -26.0518  -41.3519 H         1 UNK         0.0695 
     77 H77        16.3878  -26.7090  -42.9641 H         1 UNK         0.0695 
     78 H78        18.5777  -27.8090  -42.4293 H         1 UNK         0.0983 
     79 H79        18.2483  -25.1345  -42.9274 H         1 UNK         0.3095 
     80 H80        20.0907  -23.5998  -43.2455 H         1 UNK         0.0454 
     81 H81        22.6976  -25.0835  -43.8999 H         1 UNK         0.0851 
     82 H82        22.4392  -24.0105  -42.5328 H         1 UNK         0.0851 
     83 H83        22.3920  -23.3677  -44.1642 H         1 UNK         0.0851 
     84 H84        20.9154  -25.1857  -45.5782 H         1 UNK         0.2976 
     85 H85        18.9391  -29.1156  -40.7846 H         1 UNK         0.3116 
     86 H86        19.7273  -30.0111  -38.9626 H         1 UNK         0.0646 
     87 H87        18.9447  -27.5047  -37.3872 H         1 UNK         0.0847 
     88 H88        19.3594  -29.0728  -36.7190 H         1 UNK         0.0847 
     89 H89        17.9013  -28.8956  -37.6823 H         1 UNK         0.0847 
     90 H90        20.9038  -26.7501  -39.6018 H         1 UNK         0.3040 
     91 H91        23.4069  -27.0346  -38.1778 H         1 UNK         0.1015 
     92 H92        22.5155  -25.0501  -40.3386 H         1 UNK         0.0786 
     93 H93        23.9719  -24.9007  -39.3639 H         1 UNK         0.0786 
     94 H94        22.3942  -24.8137  -38.5964 H         1 UNK         0.0786 
     95 H95        22.3872  -27.5798  -41.5434 H         1 UNK         0.3172 
     96 H96        24.8900  -27.8882  -42.7578 H         1 UNK         0.0595 
     97 H97        23.5547  -29.1589  -44.5120 H         1 UNK         0.0839 
     98 H98        22.8235  -27.6307  -44.0567 H         1 UNK         0.0839 
     99 H99        22.1750  -29.1355  -43.4202 H         1 UNK         0.0839 
    100 H100       26.2204  -29.5593  -43.2229 H         1 UNK         0.2998 
    101 H101       26.7473  -31.4623  -41.2800 H         1 UNK         0.0822 
    102 H102       28.4877  -32.2670  -42.8952 H         1 UNK         0.0787 
    103 H103       27.7286  -31.3435  -44.1843 H         1 UNK         0.0787 
    104 H104       28.4553  -30.5153  -42.8056 H         1 UNK         0.0787 
    105 H105       24.6064  -31.8597  -43.9935 H         1 UNK         0.3055 
    106 H106       24.5406  -34.6932  -44.2206 H         1 UNK         0.1106 
    107 H107       22.3055  -34.2713  -45.2754 H         1 UNK         0.0828 
    108 H108       22.3388  -32.6074  -44.7122 H         1 UNK         0.0828 
    109 H109       23.5185  -33.1673  -45.8987 H         1 UNK         0.0828 
    110 H110       23.2841  -32.5877  -41.7241 H         1 UNK         0.2931 
    111 H111       21.6491  -34.7421  -40.5066 H         1 UNK         0.0412 
    112 H112       24.9467  -34.1438  -40.4721 H         1 UNK         0.3472 
    113 H113       25.2285  -34.5923  -38.8079 H         1 UNK         0.3472 
    114 H114       21.8702  -31.7698  -39.8199 H         1 UNK         0.0970 
    115 H115       20.9290  -32.9210  -38.9133 H         1 UNK         0.0970 
    116 H116       20.8221  -30.3396  -41.4822 H         1 UNK         0.0612 
    117 H117       21.3141  -31.5198  -42.6697 H         1 UNK         0.0612 
@<TRIPOS>BOND
     1    1    2 1    
     2    1   62 1    
     3    1   63 1    
     4    1   64 1    
     5    2    3 2    
     6    2    4 am   BACKBONE|DICT|INTERRES
     7    4    5 1    
     8    4   65 1    
     9    5    6 1    
    10    5   25 1    
    11    5   66 1    
    12    6    7 1    
    13    6   67 1    
    14    6   68 1    
    15    7    8 1    
    16    8    9 1    
    17    8   69 1    
    18    8   70 1    
    19    9   10 ar   
    20    9   14 ar   
    21   10   11 ar   
    22   10   71 1    
    23   11   12 ar   
    24   11   61 1    
    25   12   13 ar   
    26   12   72 1    
    27   13   14 ar   
    28   13   15 1    
    29   14   73 1    
    30   15   16 1    
    31   15   74 1    
    32   15   75 1    
    33   16   17 1    
    34   17   18 1    
    35   17   76 1    
    36   17   77 1    
    37   18   19 1    
    38   18   27 1    
    39   18   78 1    
    40   19   20 am   BACKBONE|DICT|INTERRES
    41   19   79 1    
    42   20   21 2    
    43   20   22 1    
    44   22   23 1    
    45   22   24 1    
    46   22   80 1    
    47   23   81 1    
    48   23   82 1    
    49   23   83 1    
    50   24   25 am   BACKBONE|DICT|INTERRES
    51   24   84 1    
    52   25   26 2    
    53   27   28 2    
    54   27   29 am   BACKBONE|DICT|INTERRES
    55   29   30 1    
    56   29   85 1    
    57   30   31 1    
    58   30   32 1    
    59   30   86 1    
    60   31   87 1    
    61   31   88 1    
    62   31   89 1    
    63   32   33 2    
    64   32   34 am   BACKBONE|DICT|INTERRES
    65   34   35 1    
    66   34   90 1    
    67   35   36 1    
    68   35   37 1    
    69   35   91 1    
    70   36   92 1    
    71   36   93 1    
    72   36   94 1    
    73   37   38 2    
    74   37   39 am   BACKBONE|DICT|INTERRES
    75   39   40 1    
    76   39   95 1    
    77   40   41 1    
    78   40   42 1    
    79   40   96 1    
    80   41   97 1    
    81   41   98 1    
    82   41   99 1    
    83   42   43 2    
    84   42   44 am   BACKBONE|DICT|INTERRES
    85   44   45 1    
    86   44  100 1    
    87   45   46 1    
    88   45   47 1    
    89   45  101 1    
    90   46  102 1    
    91   46  103 1    
    92   46  104 1    
    93   47   48 2    
    94   47   49 am   BACKBONE|DICT|INTERRES
    95   49   50 1    
    96   49  105 1    
    97   50   51 1    
    98   50   52 1    
    99   50  106 1    
   100   51  107 1    
   101   51  108 1    
   102   51  109 1    
   103   52   53 2    
   104   52   54 am   BACKBONE|DICT|INTERRES
   105   54   55 1    
   106   54  110 1    
   107   55   56 1    
   108   55   59 1    
   109   55  111 1    
   110   56   57 am   BACKBONE|DICT|INTERRES
   111   56   58 2    
   112   57  112 1    
   113   57  113 1    
   114   59   60 1    
   115   59  114 1    
   116   59  115 1    
   117   60   61 1    
   118   61  116 1    
   119   61  117 1    
@<TRIPOS>SUBSTRUCTURE
     1 UNK         1 GROUP             0       ****    0 ROOT    
