@<TRIPOS>MOLECULE
3R8
117   119    1
SMALL
USER_CHARGES


@<TRIPOS>ATOM
      1 CA         16.7569  -22.7561  -40.9349 C.3       0 UNK        -0.2013 
      2 C          16.6022  -23.4380  -42.2861 C.2       0 UNK         0.4866 
      3 O          15.5595  -23.3022  -42.9264 O.2       0 UNK        -0.5176 
      4 N          17.6320  -24.1676  -42.7240 N.am      1 UNK        -0.4884 
      5 CA         17.7031  -24.8727  -44.0018 C.3       1 UNK         0.0853 
      6 C6         16.8601  -26.1742  -44.0060 C.3       10 UNK        -0.0849 
      7 S7         16.3874  -26.6888  -45.6887 S.3       10 UNK        -0.2776 
      8 C8         15.5366  -28.2589  -45.3387 C.3       10 UNK         0.0316 
      9 C9         16.5008  -29.3334  -44.8566 C.ar      10 UNK        -0.0863 
     10 C10        16.5164  -29.7243  -43.5131 C.ar      10 UNK        -0.1009 
     11 C11        17.3782  -30.7325  -43.0670 C.ar      10 UNK        -0.0712 
     12 C12        18.2236  -31.3510  -43.9955 C.ar      10 UNK        -0.0894 
     13 C13        18.2445  -30.9468  -45.3334 C.ar      10 UNK        -0.0745 
     14 C14        17.3727  -29.9442  -45.7614 C.ar      10 UNK        -0.0972 
     15 C15        19.2137  -31.5949  -46.3127 C.3       10 UNK         0.0209 
     16 S16        20.6830  -30.5581  -46.6198 S.3       10 UNK        -0.2568 
     17 C17        21.4270  -30.4405  -44.9522 C.3       10 UNK        -0.0983 
     18 CA         21.8405  -29.0111  -44.4887 C.3       3 UNK         0.0876 
     19 N          21.1574  -27.9156  -45.1895 N.am      3 UNK        -0.4424 
     20 C          21.6869  -26.6933  -45.3356 C.2       2 UNK         0.4918 
     21 O          22.7809  -26.3607  -44.8794 O.2       2 UNK        -0.4875 
     22 CA         20.8459  -25.6589  -46.1009 C.3       2 UNK         0.0481 
     23 CB         20.7676  -26.0139  -47.5951 C.3       2 UNK        -0.1831 
     24 N          19.4939  -25.4741  -45.5654 N.am      2 UNK        -0.4498 
     25 C          19.1902  -25.1317  -44.3058 C.2       1 UNK         0.5027 
     26 O          20.0227  -25.0207  -43.4006 O.2       1 UNK        -0.4969 
     27 C          21.7015  -28.8650  -42.9584 C.2       3 UNK         0.5005 
     28 O          22.5901  -29.3028  -42.2292 O.2       3 UNK        -0.5279 
     29 N          20.5974  -28.2482  -42.5038 N.am      4 UNK        -0.4463 
     30 CA         20.2695  -27.9961  -41.0945 C.3       4 UNK         0.0283 
     31 CB         18.8253  -27.4802  -40.9893 C.3       4 UNK        -0.1875 
     32 C          21.2214  -27.0055  -40.4025 C.2       4 UNK         0.4949 
     33 O          21.3436  -27.0403  -39.1787 O.2       4 UNK        -0.5039 
     34 N          21.8828  -26.1477  -41.1908 N.am      5 UNK        -0.4663 
     35 CA         22.9199  -25.2144  -40.7441 C.3       5 UNK         0.0242 
     36 CB         23.1493  -24.1735  -41.8527 C.3       5 UNK        -0.1982 
     37 C          24.2478  -25.8983  -40.3570 C.2       5 UNK         0.5017 
     38 O          25.1267  -25.2270  -39.8142 O.2       5 UNK        -0.5012 
     39 N          24.3807  -27.1983  -40.6446 N.am      6 UNK        -0.4439 
     40 CA         25.5275  -28.0407  -40.3253 C.3       6 UNK         0.0297 
     41 CB         26.3334  -28.2708  -41.6197 C.3       6 UNK        -0.2006 
     42 C          25.0280  -29.3582  -39.7083 C.2       6 UNK         0.4892 
     43 O          23.8407  -29.4990  -39.4089 O.2       6 UNK        -0.5089 
     44 N          25.9430  -30.3221  -39.5487 N.am      7 UNK        -0.4243 
     45 CA         25.6348  -31.6970  -39.1382 C.3       7 UNK         0.0196 
     46 CB         26.9133  -32.3441  -38.5787 C.3       7 UNK        -0.2007 
     47 C          25.0465  -32.5557  -40.2780 C.2       7 UNK         0.5020 
     48 O          24.6727  -33.7021  -40.0330 O.2       7 UNK        -0.5147 
     49 N          24.9881  -32.0085  -41.5009 N.am      8 UNK        -0.4734 
     50 CA         24.5927  -32.6858  -42.7396 C.3       8 UNK         0.0238 
     51 CB         24.8783  -31.7520  -43.9265 C.3       8 UNK        -0.1912 
     52 C          23.1455  -33.2142  -42.7767 C.2       8 UNK         0.5038 
     53 O          22.8773  -34.1335  -43.5513 O.2       8 UNK        -0.5046 
     54 N          22.2514  -32.6649  -41.9414 N.am      9 UNK        -0.4200 
     55 CA         20.9189  -33.2395  -41.6801 C.3       9 UNK         0.0839 
     56 C          20.9599  -34.5823  -40.8798 C.2       9 UNK         0.5513 
     57 N          22.0441  -34.9258  -40.1936 N.am      9 UNK        -0.7519 
     58 O          20.0019  -35.3498  -40.9049 O.2       9 UNK        -0.4960 
     59 C59        19.9647  -32.1899  -41.0411 C.3       10 UNK        -0.0876 
     60 S60        18.1956  -32.6623  -41.1208 S.3       10 UNK        -0.2414 
     61 C61        17.3613  -31.1039  -41.5804 C.3       10 UNK         0.0169 
     62 H62        15.9772  -23.0942  -40.2529 H         1 UNK         0.0903 
     63 H63        17.7229  -22.9707  -40.4779 H         1 UNK         0.0903 
     64 H64        16.6671  -21.6759  -41.0471 H         1 UNK         0.0903 
     65 H65        18.5016  -24.2062  -42.2040 H         1 UNK         0.3096 
     66 H66        17.3266  -24.1905  -44.7680 H         1 UNK         0.1121 
     67 H67        17.3874  -26.9861  -43.5057 H         1 UNK         0.0849 
     68 H68        15.9342  -26.0307  -43.4471 H         1 UNK         0.0849 
     69 H69        14.7435  -28.0889  -44.6087 H         1 UNK         0.0865 
     70 H70        15.0416  -28.6025  -46.2483 H         1 UNK         0.0865 
     71 H71        15.8504  -29.2432  -42.8094 H         1 UNK         0.1346 
     72 H72        18.8903  -32.1399  -43.6852 H         1 UNK         0.1412 
     73 H73        17.3770  -29.6341  -46.7978 H         1 UNK         0.1426 
     74 H74        19.5357  -32.5715  -45.9474 H         1 UNK         0.0716 
     75 H75        18.7061  -31.7775  -47.2610 H         1 UNK         0.0716 
     76 H76        22.3060  -31.0834  -44.9594 H         1 UNK         0.0695 
     77 H77        20.7666  -30.9123  -44.2292 H         1 UNK         0.0695 
     78 H78        22.9067  -28.9135  -44.7074 H         1 UNK         0.0983 
     79 H79        20.2727  -28.1369  -45.6238 H         1 UNK         0.3095 
     80 H80        21.3568  -24.6977  -46.0137 H         1 UNK         0.0454 
     81 H81        20.2070  -26.9334  -47.7682 H         1 UNK         0.0851 
     82 H82        20.2898  -25.2184  -48.1671 H         1 UNK         0.0851 
     83 H83        21.7641  -26.1566  -48.0155 H         1 UNK         0.0851 
     84 H84        18.7320  -25.5834  -46.2211 H         1 UNK         0.2976 
     85 H85        19.9385  -27.9083  -43.1878 H         1 UNK         0.3116 
     86 H86        20.3386  -28.9475  -40.5634 H         1 UNK         0.0646 
     87 H87        18.1231  -28.1210  -41.5182 H         1 UNK         0.0847 
     88 H88        18.5049  -27.4385  -39.9475 H         1 UNK         0.0847 
     89 H89        18.7275  -26.4738  -41.3947 H         1 UNK         0.0847 
     90 H90        21.6631  -26.1395  -42.1792 H         1 UNK         0.3040 
     91 H91        22.5539  -24.6968  -39.8548 H         1 UNK         0.1015 
     92 H92        23.5195  -24.6369  -42.7682 H         1 UNK         0.0786 
     93 H93        23.8815  -23.4258  -41.5450 H         1 UNK         0.0786 
     94 H94        22.2281  -23.6432  -42.0959 H         1 UNK         0.0786 
     95 H95        23.5809  -27.7001  -41.0171 H         1 UNK         0.3172 
     96 H96        26.1639  -27.5546  -39.5832 H         1 UNK         0.0595 
     97 H97        25.7521  -28.8163  -42.3645 H         1 UNK         0.0839 
     98 H98        27.2495  -28.8324  -41.4351 H         1 UNK         0.0839 
     99 H99        26.6324  -27.3227  -42.0676 H         1 UNK         0.0839 
    100 H100       26.9039  -30.1298  -39.7944 H         1 UNK         0.2998 
    101 H101       24.8903  -31.6680  -38.3395 H         1 UNK         0.0822 
    102 H102       27.6949  -32.4160  -39.3362 H         1 UNK         0.0787 
    103 H103       27.3106  -31.7757  -37.7374 H         1 UNK         0.0787 
    104 H104       26.7156  -33.3546  -38.2181 H         1 UNK         0.0787 
    105 H105       25.2844  -31.0489  -41.5931 H         1 UNK         0.3055 
    106 H106       25.2353  -33.5633  -42.8424 H         1 UNK         0.1106 
    107 H107       25.9450  -31.5468  -44.0188 H         1 UNK         0.0828 
    108 H108       24.5566  -32.1988  -44.8685 H         1 UNK         0.0828 
    109 H109       24.3654  -30.7967  -43.8191 H         1 UNK         0.0828 
    110 H110       22.5499  -31.9005  -41.3517 H         1 UNK         0.2931 
    111 H111       20.5015  -33.4918  -42.6566 H         1 UNK         0.0412 
    112 H112       22.0463  -35.8028  -39.6976 H         1 UNK         0.3472 
    113 H113       22.8812  -34.3506  -40.1891 H         1 UNK         0.3472 
    114 H114       20.2355  -32.0063  -39.9999 H         1 UNK         0.0970 
    115 H115       20.0831  -31.2338  -41.5527 H         1 UNK         0.0970 
    116 H116       16.3222  -31.1888  -41.2589 H         1 UNK         0.0612 
    117 H117       17.7954  -30.2953  -40.9942 H         1 UNK         0.0612 
@<TRIPOS>BOND
     1    1    2 1    
     2    1   62 1    
     3    1   63 1    
     4    1   64 1    
     5    2    3 2    
     6    2    4 am   BACKBONE|DICT|INTERRES
     7    4    5 1    
     8    4   65 1    
     9    5    6 1    
    10    5   25 1    
    11    5   66 1    
    12    6    7 1    
    13    6   67 1    
    14    6   68 1    
    15    7    8 1    
    16    8    9 1    
    17    8   69 1    
    18    8   70 1    
    19    9   10 ar   
    20    9   14 ar   
    21   10   11 ar   
    22   10   71 1    
    23   11   12 ar   
    24   11   61 1    
    25   12   13 ar   
    26   12   72 1    
    27   13   14 ar   
    28   13   15 1    
    29   14   73 1    
    30   15   16 1    
    31   15   74 1    
    32   15   75 1    
    33   16   17 1    
    34   17   18 1    
    35   17   76 1    
    36   17   77 1    
    37   18   19 1    
    38   18   27 1    
    39   18   78 1    
    40   19   20 am   BACKBONE|DICT|INTERRES
    41   19   79 1    
    42   20   21 2    
    43   20   22 1    
    44   22   23 1    
    45   22   24 1    
    46   22   80 1    
    47   23   81 1    
    48   23   82 1    
    49   23   83 1    
    50   24   25 am   BACKBONE|DICT|INTERRES
    51   24   84 1    
    52   25   26 2    
    53   27   28 2    
    54   27   29 am   BACKBONE|DICT|INTERRES
    55   29   30 1    
    56   29   85 1    
    57   30   31 1    
    58   30   32 1    
    59   30   86 1    
    60   31   87 1    
    61   31   88 1    
    62   31   89 1    
    63   32   33 2    
    64   32   34 am   BACKBONE|DICT|INTERRES
    65   34   35 1    
    66   34   90 1    
    67   35   36 1    
    68   35   37 1    
    69   35   91 1    
    70   36   92 1    
    71   36   93 1    
    72   36   94 1    
    73   37   38 2    
    74   37   39 am   BACKBONE|DICT|INTERRES
    75   39   40 1    
    76   39   95 1    
    77   40   41 1    
    78   40   42 1    
    79   40   96 1    
    80   41   97 1    
    81   41   98 1    
    82   41   99 1    
    83   42   43 2    
    84   42   44 am   BACKBONE|DICT|INTERRES
    85   44   45 1    
    86   44  100 1    
    87   45   46 1    
    88   45   47 1    
    89   45  101 1    
    90   46  102 1    
    91   46  103 1    
    92   46  104 1    
    93   47   48 2    
    94   47   49 am   BACKBONE|DICT|INTERRES
    95   49   50 1    
    96   49  105 1    
    97   50   51 1    
    98   50   52 1    
    99   50  106 1    
   100   51  107 1    
   101   51  108 1    
   102   51  109 1    
   103   52   53 2    
   104   52   54 am   BACKBONE|DICT|INTERRES
   105   54   55 1    
   106   54  110 1    
   107   55   56 1    
   108   55   59 1    
   109   55  111 1    
   110   56   57 am   BACKBONE|DICT|INTERRES
   111   56   58 2    
   112   57  112 1    
   113   57  113 1    
   114   59   60 1    
   115   59  114 1    
   116   59  115 1    
   117   60   61 1    
   118   61  116 1    
   119   61  117 1    
@<TRIPOS>SUBSTRUCTURE
     1 UNK         1 GROUP             0       ****    0 ROOT    
