@<TRIPOS>MOLECULE
3R8
117   119    1
SMALL
USER_CHARGES


@<TRIPOS>ATOM
      1 CA         14.3242  -22.7460  -45.5530 C.3       0 UNK        -0.2013 
      2 C          15.3185  -23.8793  -45.3529 C.2       0 UNK         0.4866 
      3 O          16.2386  -24.0389  -46.1560 O.2       0 UNK        -0.5176 
      4 N          15.1555  -24.6630  -44.2795 N.am      1 UNK        -0.4884 
      5 CA         15.9835  -25.8258  -43.9260 C.3       1 UNK         0.0853 
      6 C6         15.1998  -26.8358  -43.0479 C.3       10 UNK        -0.0849 
      7 S7         13.7576  -27.5134  -43.9407 S.3       10 UNK        -0.2776 
      8 C8         14.0144  -29.3168  -43.8002 C.3       10 UNK         0.0316 
      9 C9         15.3213  -29.8323  -44.4032 C.ar      10 UNK        -0.0863 
     10 C10        16.0103  -30.8618  -43.7520 C.ar      10 UNK        -0.1009 
     11 C11        17.1902  -31.3845  -44.2887 C.ar      10 UNK        -0.0712 
     12 C12        17.6825  -30.8718  -45.4902 C.ar      10 UNK        -0.0894 
     13 C13        17.0221  -29.8251  -46.1412 C.ar      10 UNK        -0.0745 
     14 C14        15.8326  -29.3221  -45.6040 C.ar      10 UNK        -0.0972 
     15 C15        17.6067  -29.2337  -47.4180 C.3       10 UNK         0.0209 
     16 S16        18.5982  -27.7351  -47.0961 S.3       10 UNK        -0.2568 
     17 C17        19.9063  -28.3910  -46.0015 C.3       10 UNK        -0.0983 
     18 CA         20.8438  -27.3185  -45.3896 C.3       3 UNK         0.0876 
     19 N          20.0665  -26.2174  -44.8224 N.am      3 UNK        -0.4424 
     20 C          20.5153  -25.1179  -44.2054 C.2       2 UNK         0.4918 
     21 O          21.7087  -24.8533  -44.0536 O.2       2 UNK        -0.4875 
     22 CA         19.4455  -24.1249  -43.7020 C.3       2 UNK         0.0481 
     23 CB         19.6673  -22.7278  -44.3059 C.3       2 UNK        -0.1831 
     24 N          18.0796  -24.5589  -44.0186 N.am      2 UNK        -0.4498 
     25 C          17.3282  -25.3974  -43.2930 C.2       1 UNK         0.5027 
     26 O          17.6657  -25.8283  -42.1895 O.2       1 UNK        -0.4969 
     27 C          21.7408  -28.0045  -44.3371 C.2       3 UNK         0.5005 
     28 O          21.3591  -28.0733  -43.1656 O.2       3 UNK        -0.5279 
     29 N          22.8638  -28.5756  -44.8018 N.am      4 UNK        -0.4463 
     30 CA         23.7776  -29.4513  -44.0554 C.3       4 UNK         0.0283 
     31 CB         23.1038  -30.8166  -43.7960 C.3       4 UNK        -0.1875 
     32 C          24.3222  -28.8005  -42.7695 C.2       4 UNK         0.4949 
     33 O          24.1659  -29.3552  -41.6799 O.2       4 UNK        -0.5039 
     34 N          24.9390  -27.6202  -42.9250 N.am      5 UNK        -0.4663 
     35 CA         25.5452  -26.8349  -41.8442 C.3       5 UNK         0.0242 
     36 CB         26.1561  -25.5523  -42.4304 C.3       5 UNK        -0.1982 
     37 C          26.6059  -27.6329  -41.0647 C.2       5 UNK         0.5017 
     38 O          27.3909  -28.3594  -41.6784 O.2       5 UNK        -0.5012 
     39 N          26.5761  -27.5134  -39.7303 N.am      6 UNK        -0.4439 
     40 CA         27.3670  -28.2414  -38.7236 C.3       6 UNK         0.0297 
     41 CB         28.8818  -28.0298  -38.9166 C.3       6 UNK        -0.2006 
     42 C          27.0245  -29.7405  -38.5960 C.2       6 UNK         0.4892 
     43 O          27.0404  -30.2581  -37.4788 O.2       6 UNK        -0.5089 
     44 N          26.7067  -30.4073  -39.7136 N.am      7 UNK        -0.4243 
     45 CA         26.2606  -31.8017  -39.7681 C.3       7 UNK         0.0196 
     46 CB         26.3516  -32.3075  -41.2166 C.3       7 UNK        -0.2007 
     47 C          24.8386  -32.0010  -39.2153 C.2       7 UNK         0.5020 
     48 O          24.5538  -33.0662  -38.6678 O.2       7 UNK        -0.5147 
     49 N          23.9736  -30.9881  -39.3820 N.am      8 UNK        -0.4734 
     50 CA         22.5778  -30.9166  -38.9260 C.3       8 UNK         0.0238 
     51 CB         22.5180  -30.8231  -37.3865 C.3       8 UNK        -0.1912 
     52 C          21.7029  -32.0507  -39.4955 C.2       8 UNK         0.5038 
     53 O          20.8897  -32.6280  -38.7713 O.2       8 UNK        -0.5046 
     54 N          21.9226  -32.3601  -40.7804 N.am      9 UNK        -0.4200 
     55 CA         21.3235  -33.4757  -41.5350 C.3       9 UNK         0.0839 
     56 C          21.8088  -34.8908  -41.0899 C.2       9 UNK         0.5513 
     57 N          22.8138  -35.0237  -40.2313 N.am      9 UNK        -0.7519 
     58 O          21.2873  -35.8976  -41.5626 O.2       9 UNK        -0.4960 
     59 C59        19.7714  -33.3917  -41.6463 C.3       10 UNK        -0.0876 
     60 S60        19.1840  -31.8485  -42.4281 S.3       10 UNK        -0.2414 
     61 C61        17.9315  -32.5044  -43.5744 C.3       10 UNK         0.0169 
     62 H62        13.8178  -22.8574  -46.5113 H         1 UNK         0.0903 
     63 H63        14.8426  -21.7875  -45.5506 H         1 UNK         0.0903 
     64 H64        13.5667  -22.7246  -44.7697 H         1 UNK         0.0903 
     65 H65        14.3900  -24.4751  -43.6472 H         1 UNK         0.3096 
     66 H66        16.2474  -26.3461  -44.8503 H         1 UNK         0.1121 
     67 H67        14.8542  -26.3629  -42.1269 H         1 UNK         0.0849 
     68 H68        15.8465  -27.6599  -42.7401 H         1 UNK         0.0849 
     69 H69        13.9507  -29.5855  -42.7444 H         1 UNK         0.0865 
     70 H70        13.1848  -29.8243  -44.2940 H         1 UNK         0.0865 
     71 H71        15.6270  -31.2643  -42.8240 H         1 UNK         0.1346 
     72 H72        18.6001  -31.2685  -45.9031 H         1 UNK         0.1412 
     73 H73        15.3126  -28.5252  -46.1179 H         1 UNK         0.1426 
     74 H74        16.8006  -28.9818  -48.1085 H         1 UNK         0.0716 
     75 H75        18.2269  -29.9705  -47.9310 H         1 UNK         0.0716 
     76 H76        20.4811  -29.1322  -46.5601 H         1 UNK         0.0695 
     77 H77        19.4163  -28.9283  -45.1890 H         1 UNK         0.0695 
     78 H78        21.4752  -26.8984  -46.1749 H         1 UNK         0.0983 
     79 H79        19.0681  -26.3237  -44.9064 H         1 UNK         0.3095 
     80 H80        19.5553  -24.0489  -42.6185 H         1 UNK         0.0454 
     81 H81        18.9375  -22.0119  -43.9278 H         1 UNK         0.0851 
     82 H82        19.5911  -22.7420  -45.3939 H         1 UNK         0.0851 
     83 H83        20.6560  -22.3425  -44.0530 H         1 UNK         0.0851 
     84 H84        17.6911  -24.2463  -44.9058 H         1 UNK         0.2976 
     85 H85        23.0910  -28.4505  -45.7792 H         1 UNK         0.3116 
     86 H86        24.6408  -29.6287  -44.6988 H         1 UNK         0.0646 
     87 H87        22.2240  -30.7162  -43.1597 H         1 UNK         0.0847 
     88 H88        23.7895  -31.5084  -43.3069 H         1 UNK         0.0847 
     89 H89        22.7862  -31.2848  -44.7275 H         1 UNK         0.0847 
     90 H90        25.0197  -27.2426  -43.8577 H         1 UNK         0.3040 
     91 H91        24.7403  -26.5566  -41.1604 H         1 UNK         0.1015 
     92 H92        26.9473  -25.7745  -43.1479 H         1 UNK         0.0786 
     93 H93        26.5928  -24.9328  -41.6456 H         1 UNK         0.0786 
     94 H94        25.4024  -24.9479  -42.9361 H         1 UNK         0.0786 
     95 H95        25.8732  -26.9005  -39.3390 H         1 UNK         0.3172 
     96 H96        27.0995  -27.7861  -37.7686 H         1 UNK         0.0595 
     97 H97        29.2498  -28.4971  -39.8303 H         1 UNK         0.0839 
     98 H98        29.4412  -28.4650  -38.0873 H         1 UNK         0.0839 
     99 H99        29.1336  -26.9701  -38.9558 H         1 UNK         0.0839 
    100 H100       26.7554  -29.8987  -40.5905 H         1 UNK         0.2998 
    101 H101       26.9373  -32.3998  -39.1539 H         1 UNK         0.0822 
    102 H102       27.3783  -32.2769  -41.5817 H         1 UNK         0.0787 
    103 H103       26.0108  -33.3411  -41.2937 H         1 UNK         0.0787 
    104 H104       25.7400  -31.7088  -41.8915 H         1 UNK         0.0787 
    105 H105       24.2721  -30.2136  -39.9712 H         1 UNK         0.3055 
    106 H106       22.1684  -29.9895  -39.3316 H         1 UNK         0.1106 
    107 H107       21.4972  -30.6494  -37.0440 H         1 UNK         0.0828 
    108 H108       22.8688  -31.7401  -36.9120 H         1 UNK         0.0828 
    109 H109       23.1281  -29.9995  -37.0156 H         1 UNK         0.0828 
    110 H110       22.6261  -31.8280  -41.2705 H         1 UNK         0.2931 
    111 H111       21.7172  -33.3668  -42.5462 H         1 UNK         0.0412 
    112 H112       23.2565  -34.2193  -39.8031 H         1 UNK         0.3472 
    113 H113       23.1139  -35.9504  -39.9735 H         1 UNK         0.3472 
    114 H114       19.3049  -33.4843  -40.6648 H         1 UNK         0.0970 
    115 H115       19.3950  -34.2345  -42.2287 H         1 UNK         0.0970 
    116 H116       18.4146  -33.1582  -44.3024 H         1 UNK         0.0612 
    117 H117       17.2246  -33.1246  -43.0209 H         1 UNK         0.0612 
@<TRIPOS>BOND
     1    1    2 1    
     2    1   62 1    
     3    1   63 1    
     4    1   64 1    
     5    2    3 2    
     6    2    4 am   BACKBONE|DICT|INTERRES
     7    4    5 1    
     8    4   65 1    
     9    5    6 1    
    10    5   25 1    
    11    5   66 1    
    12    6    7 1    
    13    6   67 1    
    14    6   68 1    
    15    7    8 1    
    16    8    9 1    
    17    8   69 1    
    18    8   70 1    
    19    9   10 ar   
    20    9   14 ar   
    21   10   11 ar   
    22   10   71 1    
    23   11   12 ar   
    24   11   61 1    
    25   12   13 ar   
    26   12   72 1    
    27   13   14 ar   
    28   13   15 1    
    29   14   73 1    
    30   15   16 1    
    31   15   74 1    
    32   15   75 1    
    33   16   17 1    
    34   17   18 1    
    35   17   76 1    
    36   17   77 1    
    37   18   19 1    
    38   18   27 1    
    39   18   78 1    
    40   19   20 am   BACKBONE|DICT|INTERRES
    41   19   79 1    
    42   20   21 2    
    43   20   22 1    
    44   22   23 1    
    45   22   24 1    
    46   22   80 1    
    47   23   81 1    
    48   23   82 1    
    49   23   83 1    
    50   24   25 am   BACKBONE|DICT|INTERRES
    51   24   84 1    
    52   25   26 2    
    53   27   28 2    
    54   27   29 am   BACKBONE|DICT|INTERRES
    55   29   30 1    
    56   29   85 1    
    57   30   31 1    
    58   30   32 1    
    59   30   86 1    
    60   31   87 1    
    61   31   88 1    
    62   31   89 1    
    63   32   33 2    
    64   32   34 am   BACKBONE|DICT|INTERRES
    65   34   35 1    
    66   34   90 1    
    67   35   36 1    
    68   35   37 1    
    69   35   91 1    
    70   36   92 1    
    71   36   93 1    
    72   36   94 1    
    73   37   38 2    
    74   37   39 am   BACKBONE|DICT|INTERRES
    75   39   40 1    
    76   39   95 1    
    77   40   41 1    
    78   40   42 1    
    79   40   96 1    
    80   41   97 1    
    81   41   98 1    
    82   41   99 1    
    83   42   43 2    
    84   42   44 am   BACKBONE|DICT|INTERRES
    85   44   45 1    
    86   44  100 1    
    87   45   46 1    
    88   45   47 1    
    89   45  101 1    
    90   46  102 1    
    91   46  103 1    
    92   46  104 1    
    93   47   48 2    
    94   47   49 am   BACKBONE|DICT|INTERRES
    95   49   50 1    
    96   49  105 1    
    97   50   51 1    
    98   50   52 1    
    99   50  106 1    
   100   51  107 1    
   101   51  108 1    
   102   51  109 1    
   103   52   53 2    
   104   52   54 am   BACKBONE|DICT|INTERRES
   105   54   55 1    
   106   54  110 1    
   107   55   56 1    
   108   55   59 1    
   109   55  111 1    
   110   56   57 am   BACKBONE|DICT|INTERRES
   111   56   58 2    
   112   57  112 1    
   113   57  113 1    
   114   59   60 1    
   115   59  114 1    
   116   59  115 1    
   117   60   61 1    
   118   61  116 1    
   119   61  117 1    
@<TRIPOS>SUBSTRUCTURE
     1 UNK         1 GROUP             0       ****    0 ROOT    
