@<TRIPOS>MOLECULE
3R8
117   119    1
SMALL
USER_CHARGES


@<TRIPOS>ATOM
      1 CA         18.2031  -28.6150  -41.5438 C.3       0 UNK        -0.2013 
      2 C          17.6143  -27.3760  -42.1949 C.2       0 UNK         0.4866 
      3 O          17.0334  -26.5410  -41.5005 O.2       0 UNK        -0.5176 
      4 N          17.7445  -27.2670  -43.5223 N.am      1 UNK        -0.4884 
      5 CA         17.1653  -26.1909  -44.3336 C.3       1 UNK         0.0853 
      6 C6         16.5008  -26.7254  -45.6360 C.3       10 UNK        -0.0849 
      7 S7         15.3732  -28.1380  -45.3400 S.3       10 UNK        -0.2776 
      8 C8         16.1494  -29.4917  -46.2882 C.3       10 UNK         0.0316 
      9 C9         17.5068  -29.9056  -45.7316 C.ar      10 UNK        -0.0863 
     10 C10        17.6034  -30.8596  -44.7116 C.ar      10 UNK        -0.1009 
     11 C11        18.8549  -31.2581  -44.2224 C.ar      10 UNK        -0.0712 
     12 C12        20.0109  -30.6799  -44.7543 C.ar      10 UNK        -0.0894 
     13 C13        19.9232  -29.7075  -45.7531 C.ar      10 UNK        -0.0745 
     14 C14        18.6737  -29.3457  -46.2562 C.ar      10 UNK        -0.0972 
     15 C15        21.1675  -28.9930  -46.2435 C.3       10 UNK         0.0209 
     16 S16        21.5843  -27.6941  -45.0505 S.3       10 UNK        -0.2568 
     17 C17        22.6744  -26.5835  -46.0052 C.3       10 UNK        -0.0983 
     18 CA         22.4253  -25.0876  -45.6748 C.3       3 UNK         0.0876 
     19 N          21.0363  -24.7133  -45.9618 N.am      3 UNK        -0.4424 
     20 C          20.5592  -23.4652  -46.0313 C.2       2 UNK         0.4918 
     21 O          21.2708  -22.4618  -45.9820 O.2       2 UNK        -0.4875 
     22 CA         19.0297  -23.2965  -46.1490 C.3       2 UNK         0.0481 
     23 CB         18.6524  -22.8845  -47.5813 C.3       2 UNK        -0.1831 
     24 N          18.2127  -24.4575  -45.7571 N.am      2 UNK        -0.4498 
     25 C          18.2164  -25.0779  -44.5651 C.2       1 UNK         0.5027 
     26 O          19.0159  -24.7958  -43.6682 O.2       1 UNK        -0.4969 
     27 C          22.8661  -24.7646  -44.2238 C.2       3 UNK         0.5005 
     28 O          24.0696  -24.7623  -43.9610 O.2       3 UNK        -0.5279 
     29 N          21.8993  -24.5348  -43.3166 N.am      4 UNK        -0.4463 
     30 CA         22.0450  -24.4240  -41.8589 C.3       4 UNK         0.0283 
     31 CB         22.9811  -23.2651  -41.4523 C.3       4 UNK        -0.1875 
     32 C          22.4148  -25.7762  -41.2155 C.2       4 UNK         0.4949 
     33 O          23.2254  -25.8176  -40.2888 O.2       4 UNK        -0.5039 
     34 N          21.7745  -26.8397  -41.7257 N.am      5 UNK        -0.4663 
     35 CA         21.9188  -28.2671  -41.4145 C.3       5 UNK         0.0242 
     36 CB         21.7727  -28.5553  -39.9075 C.3       5 UNK        -0.1982 
     37 C          23.2097  -28.8871  -41.9718 C.2       5 UNK         0.5017 
     38 O          24.2706  -28.2619  -41.9587 O.2       5 UNK        -0.5012 
     39 N          23.1015  -30.1508  -42.4012 N.am      6 UNK        -0.4439 
     40 CA         24.2075  -30.9720  -42.9036 C.3       6 UNK         0.0297 
     41 CB         23.7042  -31.8277  -44.0812 C.3       6 UNK        -0.2006 
     42 C          24.8184  -31.8259  -41.7760 C.2       6 UNK         0.4892 
     43 O          25.1039  -33.0064  -41.9853 O.2       6 UNK        -0.5089 
     44 N          24.9702  -31.2208  -40.5883 N.am      7 UNK        -0.4243 
     45 CA         25.4404  -31.7768  -39.3119 C.3       7 UNK         0.0196 
     46 CB         26.8911  -32.2886  -39.4116 C.3       7 UNK        -0.2007 
     47 C          24.5091  -32.8440  -38.7104 C.2       7 UNK         0.5020 
     48 O          24.0737  -32.6888  -37.5698 O.2       7 UNK        -0.5147 
     49 N          24.2038  -33.8938  -39.4828 N.am      8 UNK        -0.4734 
     50 CA         23.3840  -35.0435  -39.0855 C.3       8 UNK         0.0238 
     51 CB         23.4164  -36.0977  -40.2037 C.3       8 UNK        -0.1912 
     52 C          21.9324  -34.6835  -38.7271 C.2       8 UNK         0.5038 
     53 O          21.3621  -35.3134  -37.8354 O.2       8 UNK        -0.5046 
     54 N          21.3781  -33.6762  -39.4124 N.am      9 UNK        -0.4200 
     55 CA         20.0570  -33.0926  -39.1388 C.3       9 UNK         0.0839 
     56 C          20.1034  -31.8185  -38.2450 C.2       9 UNK         0.5513 
     57 N          21.2357  -31.4615  -37.6484 N.am      9 UNK        -0.7519 
     58 O          19.0877  -31.1513  -38.0675 O.2       9 UNK        -0.4960 
     59 C59        19.2245  -32.9170  -40.4366 C.3       10 UNK        -0.0876 
     60 S60        19.9530  -31.8168  -41.6995 S.3       10 UNK        -0.2414 
     61 C61        18.9520  -32.3280  -43.1399 C.3       10 UNK         0.0169 
     62 H62        17.4077  -29.2630  -41.1771 H         1 UNK         0.0903 
     63 H63        18.8031  -29.1850  -42.2497 H         1 UNK         0.0903 
     64 H64        18.8323  -28.3383  -40.6996 H         1 UNK         0.0903 
     65 H65        18.2231  -27.9922  -44.0396 H         1 UNK         0.3096 
     66 H66        16.3684  -25.7114  -43.7607 H         1 UNK         0.1121 
     67 H67        15.9025  -25.9387  -46.0991 H         1 UNK         0.0849 
     68 H68        17.2489  -27.0013  -46.3767 H         1 UNK         0.0849 
     69 H69        15.4773  -30.3512  -46.2822 H         1 UNK         0.0865 
     70 H70        16.2411  -29.1937  -47.3340 H         1 UNK         0.0865 
     71 H71        16.7015  -31.2993  -44.3078 H         1 UNK         0.1346 
     72 H72        20.9787  -30.9676  -44.3726 H         1 UNK         0.1412 
     73 H73        18.6142  -28.6120  -47.0477 H         1 UNK         0.1426 
     74 H74        20.9957  -28.5596  -47.2299 H         1 UNK         0.0716 
     75 H75        22.0012  -29.6891  -46.3425 H         1 UNK         0.0716 
     76 H76        22.5183  -26.7498  -47.0719 H         1 UNK         0.0695 
     77 H77        23.7126  -26.8599  -45.8108 H         1 UNK         0.0695 
     78 H78        23.0650  -24.4909  -46.3287 H         1 UNK         0.0983 
     79 H79        20.3808  -25.4790  -46.0085 H         1 UNK         0.3095 
     80 H80        18.7549  -22.4782  -45.4806 H         1 UNK         0.0454 
     81 H81        19.2126  -22.0030  -47.8967 H         1 UNK         0.0851 
     82 H82        17.5944  -22.6339  -47.6591 H         1 UNK         0.0851 
     83 H83        18.8652  -23.6781  -48.2986 H         1 UNK         0.0851 
     84 H84        17.5333  -24.7570  -46.4412 H         1 UNK         0.2976 
     85 H85        20.9347  -24.5633  -43.6392 H         1 UNK         0.3116 
     86 H86        21.0504  -24.1782  -41.4834 H         1 UNK         0.0646 
     87 H87        24.0223  -23.4740  -41.6983 H         1 UNK         0.0847 
     88 H88        22.6985  -22.3342  -41.9434 H         1 UNK         0.0847 
     89 H89        22.9357  -23.0911  -40.3767 H         1 UNK         0.0847 
     90 H90        21.1717  -26.6491  -42.5144 H         1 UNK         0.3040 
     91 H91        21.0872  -28.7495  -41.9279 H         1 UNK         0.1015 
     92 H92        21.6986  -29.6277  -39.7286 H         1 UNK         0.0786 
     93 H93        20.8772  -28.0943  -39.4923 H         1 UNK         0.0786 
     94 H94        22.6291  -28.1943  -39.3373 H         1 UNK         0.0786 
     95 H95        22.2073  -30.6154  -42.3172 H         1 UNK         0.3172 
     96 H96        25.0046  -30.3290  -43.2825 H         1 UNK         0.0595 
     97 H97        22.9116  -32.5123  -43.7763 H         1 UNK         0.0839 
     98 H98        24.5108  -32.4300  -44.5016 H         1 UNK         0.0839 
     99 H99        23.3235  -31.2030  -44.8885 H         1 UNK         0.0839 
    100 H100       24.7014  -30.2466  -40.5497 H         1 UNK         0.2998 
    101 H101       25.4424  -30.9389  -38.6125 H         1 UNK         0.0822 
    102 H102       27.2541  -32.6174  -38.4369 H         1 UNK         0.0787 
    103 H103       27.5636  -31.5044  -39.7594 H         1 UNK         0.0787 
    104 H104       26.9849  -33.1350  -40.0925 H         1 UNK         0.0787 
    105 H105       24.5808  -33.8910  -40.4286 H         1 UNK         0.3055 
    106 H106       23.8377  -35.4765  -38.1912 H         1 UNK         0.1106 
    107 H107       24.4334  -36.4386  -40.3982 H         1 UNK         0.0828 
    108 H108       22.8287  -36.9756  -39.9314 H         1 UNK         0.0828 
    109 H109       23.0090  -35.7084  -41.1378 H         1 UNK         0.0828 
    110 H110       21.9291  -33.2110  -40.1179 H         1 UNK         0.2931 
    111 H111       19.4931  -33.8059  -38.5352 H         1 UNK         0.0412 
    112 H112       21.2386  -30.6417  -37.0629 H         1 UNK         0.3472 
    113 H113       22.0752  -32.0208  -37.7300 H         1 UNK         0.3472 
    114 H114       19.0729  -33.8992  -40.8872 H         1 UNK         0.0970 
    115 H115       18.2239  -32.5510  -40.1984 H         1 UNK         0.0970 
    116 H116       19.3845  -33.2327  -43.5688 H         1 UNK         0.0612 
    117 H117       17.9513  -32.5963  -42.7973 H         1 UNK         0.0612 
@<TRIPOS>BOND
     1    1    2 1    
     2    1   62 1    
     3    1   63 1    
     4    1   64 1    
     5    2    3 2    
     6    2    4 am   BACKBONE|DICT|INTERRES
     7    4    5 1    
     8    4   65 1    
     9    5    6 1    
    10    5   25 1    
    11    5   66 1    
    12    6    7 1    
    13    6   67 1    
    14    6   68 1    
    15    7    8 1    
    16    8    9 1    
    17    8   69 1    
    18    8   70 1    
    19    9   10 ar   
    20    9   14 ar   
    21   10   11 ar   
    22   10   71 1    
    23   11   12 ar   
    24   11   61 1    
    25   12   13 ar   
    26   12   72 1    
    27   13   14 ar   
    28   13   15 1    
    29   14   73 1    
    30   15   16 1    
    31   15   74 1    
    32   15   75 1    
    33   16   17 1    
    34   17   18 1    
    35   17   76 1    
    36   17   77 1    
    37   18   19 1    
    38   18   27 1    
    39   18   78 1    
    40   19   20 am   BACKBONE|DICT|INTERRES
    41   19   79 1    
    42   20   21 2    
    43   20   22 1    
    44   22   23 1    
    45   22   24 1    
    46   22   80 1    
    47   23   81 1    
    48   23   82 1    
    49   23   83 1    
    50   24   25 am   BACKBONE|DICT|INTERRES
    51   24   84 1    
    52   25   26 2    
    53   27   28 2    
    54   27   29 am   BACKBONE|DICT|INTERRES
    55   29   30 1    
    56   29   85 1    
    57   30   31 1    
    58   30   32 1    
    59   30   86 1    
    60   31   87 1    
    61   31   88 1    
    62   31   89 1    
    63   32   33 2    
    64   32   34 am   BACKBONE|DICT|INTERRES
    65   34   35 1    
    66   34   90 1    
    67   35   36 1    
    68   35   37 1    
    69   35   91 1    
    70   36   92 1    
    71   36   93 1    
    72   36   94 1    
    73   37   38 2    
    74   37   39 am   BACKBONE|DICT|INTERRES
    75   39   40 1    
    76   39   95 1    
    77   40   41 1    
    78   40   42 1    
    79   40   96 1    
    80   41   97 1    
    81   41   98 1    
    82   41   99 1    
    83   42   43 2    
    84   42   44 am   BACKBONE|DICT|INTERRES
    85   44   45 1    
    86   44  100 1    
    87   45   46 1    
    88   45   47 1    
    89   45  101 1    
    90   46  102 1    
    91   46  103 1    
    92   46  104 1    
    93   47   48 2    
    94   47   49 am   BACKBONE|DICT|INTERRES
    95   49   50 1    
    96   49  105 1    
    97   50   51 1    
    98   50   52 1    
    99   50  106 1    
   100   51  107 1    
   101   51  108 1    
   102   51  109 1    
   103   52   53 2    
   104   52   54 am   BACKBONE|DICT|INTERRES
   105   54   55 1    
   106   54  110 1    
   107   55   56 1    
   108   55   59 1    
   109   55  111 1    
   110   56   57 am   BACKBONE|DICT|INTERRES
   111   56   58 2    
   112   57  112 1    
   113   57  113 1    
   114   59   60 1    
   115   59  114 1    
   116   59  115 1    
   117   60   61 1    
   118   61  116 1    
   119   61  117 1    
@<TRIPOS>SUBSTRUCTURE
     1 UNK         1 GROUP             0       ****    0 ROOT    
