@<TRIPOS>MOLECULE
3R8
117   119    1
SMALL
USER_CHARGES


@<TRIPOS>ATOM
      1 CA         18.8105  -23.8296  -39.6055 C.3       0 UNK        -0.2013 
      2 C          18.3488  -24.6585  -40.7950 C.2       0 UNK         0.4866 
      3 O          17.1631  -24.6360  -41.1267 O.2       0 UNK        -0.5176 
      4 N          19.2721  -25.3841  -41.4341 N.am      1 UNK        -0.4884 
      5 CA         19.0211  -26.2380  -42.5954 C.3       1 UNK         0.0853 
      6 C6         19.2095  -27.7406  -42.2629 C.3       10 UNK        -0.0849 
      7 S7         17.8391  -28.4147  -41.2648 S.3       10 UNK        -0.2776 
      8 C8         16.5571  -28.7208  -42.5293 C.3       10 UNK         0.0316 
      9 C9         16.9754  -29.8096  -43.5057 C.ar      10 UNK        -0.0863 
     10 C10        16.8176  -31.1532  -43.1620 C.ar      10 UNK        -0.1009 
     11 C11        17.2742  -32.1633  -44.0147 C.ar      10 UNK        -0.0712 
     12 C12        17.8595  -31.8195  -45.2373 C.ar      10 UNK        -0.0894 
     13 C13        18.0111  -30.4766  -45.5980 C.ar      10 UNK        -0.0745 
     14 C14        17.5498  -29.4780  -44.7361 C.ar      10 UNK        -0.0972 
     15 C15        18.6876  -30.0934  -46.9079 C.3       10 UNK         0.0209 
     16 S16        20.3796  -30.7588  -47.0659 S.3       10 UNK        -0.2568 
     17 C17        21.2493  -30.0857  -45.6097 C.3       10 UNK        -0.0983 
     18 CA         22.2033  -28.9107  -45.9639 C.3       3 UNK         0.0876 
     19 N          21.5705  -27.6105  -45.7661 N.am      3 UNK        -0.4424 
     20 C          20.8791  -26.9132  -46.6707 C.2       2 UNK         0.4918 
     21 O          20.6961  -27.2878  -47.8296 O.2       2 UNK        -0.4875 
     22 CA         20.2658  -25.5844  -46.1803 C.3       2 UNK         0.0481 
     23 CB         19.3750  -24.9156  -47.2440 C.3       2 UNK        -0.1831 
     24 N          19.4789  -25.7838  -44.9585 N.am      2 UNK        -0.4498 
     25 C          19.9844  -25.8323  -43.7187 C.2       1 UNK         0.5027 
     26 O          21.1755  -25.6481  -43.4653 O.2       1 UNK        -0.4969 
     27 C          23.5091  -28.9296  -45.1437 C.2       3 UNK         0.5005 
     28 O          23.7691  -28.0073  -44.3648 O.2       3 UNK        -0.5279 
     29 N          24.3232  -29.9693  -45.3725 N.am      4 UNK        -0.4463 
     30 CA         25.7355  -30.0872  -44.9897 C.3       4 UNK         0.0283 
     31 CB         26.2562  -31.4638  -45.4361 C.3       4 UNK        -0.1875 
     32 C          26.1024  -29.8432  -43.5139 C.2       4 UNK         0.4949 
     33 O          27.2335  -29.4279  -43.2587 O.2       4 UNK        -0.5039 
     34 N          25.1854  -30.1036  -42.5715 N.am      5 UNK        -0.4663 
     35 CA         25.4348  -29.9067  -41.1380 C.3       5 UNK         0.0242 
     36 CB         24.7191  -31.0056  -40.3337 C.3       5 UNK        -0.1982 
     37 C          25.0272  -28.5066  -40.6451 C.2       5 UNK         0.5017 
     38 O          25.2554  -28.2076  -39.4733 O.2       5 UNK        -0.5012 
     39 N          24.4130  -27.6867  -41.5144 N.am      6 UNK        -0.4439 
     40 CA         23.8793  -26.3336  -41.2839 C.3       6 UNK         0.0297 
     41 CB         24.9703  -25.3653  -40.7845 C.3       6 UNK        -0.2006 
     42 C          22.6204  -26.2693  -40.3949 C.2       6 UNK         0.4892 
     43 O          21.9337  -25.2481  -40.4070 O.2       6 UNK        -0.5089 
     44 N          22.3089  -27.3475  -39.6735 N.am      7 UNK        -0.4243 
     45 CA         21.1076  -27.5677  -38.8807 C.3       7 UNK         0.0196 
     46 CB         21.1913  -26.8125  -37.5425 C.3       7 UNK        -0.2007 
     47 C          21.0054  -29.0801  -38.6656 C.2       7 UNK         0.5020 
     48 O          22.0401  -29.7289  -38.4980 O.2       7 UNK        -0.5147 
     49 N          19.7742  -29.6077  -38.6732 N.am      8 UNK        -0.4734 
     50 CA         19.4347  -31.0347  -38.5736 C.3       8 UNK         0.0238 
     51 CB         19.7724  -31.5851  -37.1706 C.3       8 UNK        -0.1912 
     52 C          20.0569  -31.8644  -39.7162 C.2       8 UNK         0.5038 
     53 O          20.7882  -32.8239  -39.4621 O.2       8 UNK        -0.5046 
     54 N          19.7414  -31.4643  -40.9543 N.am      9 UNK        -0.4200 
     55 CA         20.1988  -32.0789  -42.2090 C.3       9 UNK         0.0839 
     56 C          21.7063  -31.7997  -42.4751 C.2       9 UNK         0.5513 
     57 N          22.5093  -32.7956  -42.8315 N.am      9 UNK        -0.7519 
     58 O          22.1435  -30.6518  -42.4367 O.2       9 UNK        -0.4960 
     59 C59        19.7649  -33.5708  -42.3925 C.3       10 UNK        -0.0876 
     60 S60        18.0138  -33.9210  -41.9962 S.3       10 UNK        -0.2414 
     61 C61        17.1799  -33.6213  -43.5897 C.3       10 UNK         0.0169 
     62 H62        19.8800  -23.9311  -39.4248 H         1 UNK         0.0903 
     63 H63        18.5950  -22.7752  -39.7761 H         1 UNK         0.0903 
     64 H64        18.2853  -24.1443  -38.7041 H         1 UNK         0.0903 
     65 H65        20.2514  -25.3122  -41.1555 H         1 UNK         0.3096 
     66 H66        18.0059  -26.0790  -42.9635 H         1 UNK         0.1121 
     67 H67        20.1428  -27.8959  -41.7197 H         1 UNK         0.0849 
     68 H68        19.3188  -28.3428  -43.1637 H         1 UNK         0.0849 
     69 H69        16.3266  -27.7950  -43.0578 H         1 UNK         0.0865 
     70 H70        15.6339  -29.0157  -42.0281 H         1 UNK         0.0865 
     71 H71        16.3810  -31.4147  -42.2076 H         1 UNK         0.1346 
     72 H72        18.2255  -32.5931  -45.8985 H         1 UNK         0.1412 
     73 H73        17.6687  -28.4390  -45.0088 H         1 UNK         0.1426 
     74 H74        18.7235  -29.0101  -47.0250 H         1 UNK         0.0716 
     75 H75        18.0861  -30.4688  -47.7366 H         1 UNK         0.0716 
     76 H76        21.7988  -30.9344  -45.2025 H         1 UNK         0.0695 
     77 H77        20.5434  -29.7997  -44.8293 H         1 UNK         0.0695 
     78 H78        22.5138  -28.9906  -47.0085 H         1 UNK         0.0983 
     79 H79        21.7694  -27.1808  -44.8677 H         1 UNK         0.3095 
     80 H80        21.0938  -24.9042  -45.9696 H         1 UNK         0.0454 
     81 H81        18.5325  -25.5491  -47.5242 H         1 UNK         0.0851 
     82 H82        19.9414  -24.7063  -48.1525 H         1 UNK         0.0851 
     83 H83        18.9774  -23.9650  -46.8884 H         1 UNK         0.0851 
     84 H84        18.4943  -25.9624  -45.0940 H         1 UNK         0.2976 
     85 H85        23.9910  -30.6848  -46.0037 H         1 UNK         0.3116 
     86 H86        26.2695  -29.3287  -45.5657 H         1 UNK         0.0646 
     87 H87        25.7209  -32.2760  -44.9428 H         1 UNK         0.0847 
     88 H88        27.3144  -31.5803  -45.1970 H         1 UNK         0.0847 
     89 H89        26.1569  -31.5994  -46.5132 H         1 UNK         0.0847 
     90 H90        24.2440  -30.3704  -42.8392 H         1 UNK         0.3040 
     91 H91        26.5035  -30.0090  -40.9358 H         1 UNK         0.1015 
     92 H92        24.9689  -32.0007  -40.7016 H         1 UNK         0.0786 
     93 H93        23.6361  -30.8957  -40.3644 H         1 UNK         0.0786 
     94 H94        25.0087  -30.9672  -39.2828 H         1 UNK         0.0786 
     95 H95        24.2603  -28.0339  -42.4591 H         1 UNK         0.3172 
     96 H96        23.5671  -25.9842  -42.2687 H         1 UNK         0.0595 
     97 H97        25.2991  -25.6043  -39.7730 H         1 UNK         0.0839 
     98 H98        24.5972  -24.3405  -40.7657 H         1 UNK         0.0839 
     99 H99        25.8436  -25.3799  -41.4364 H         1 UNK         0.0839 
    100 H100       22.9409  -28.1402  -39.6836 H         1 UNK         0.2998 
    101 H101       20.2375  -27.2201  -39.4395 H         1 UNK         0.0822 
    102 H102       21.2565  -25.7353  -37.6959 H         1 UNK         0.0787 
    103 H103       20.3063  -27.0000  -36.9333 H         1 UNK         0.0787 
    104 H104       22.0614  -27.1218  -36.9619 H         1 UNK         0.0787 
    105 H105       18.9916  -28.9873  -38.8361 H         1 UNK         0.3055 
    106 H106       18.3529  -31.1090  -38.6993 H         1 UNK         0.1106 
    107 H107       19.4307  -32.6155  -37.0653 H         1 UNK         0.0828 
    108 H108       19.2877  -31.0017  -36.3880 H         1 UNK         0.0828 
    109 H109       20.8455  -31.5799  -36.9768 H         1 UNK         0.0828 
    110 H110       19.1662  -30.6410  -41.0631 H         1 UNK         0.2931 
    111 H111       19.6964  -31.5078  -42.9875 H         1 UNK         0.0412 
    112 H112       22.1701  -33.7423  -42.8853 H         1 UNK         0.3472 
    113 H113       23.4797  -32.6090  -43.0189 H         1 UNK         0.3472 
    114 H114       20.3666  -34.2171  -41.7516 H         1 UNK         0.0970 
    115 H115       19.9586  -33.8950  -43.4165 H         1 UNK         0.0970 
    116 H116       17.6059  -34.2822  -44.3462 H         1 UNK         0.0612 
    117 H117       16.1283  -33.8942  -43.4943 H         1 UNK         0.0612 
@<TRIPOS>BOND
     1    1    2 1    
     2    1   62 1    
     3    1   63 1    
     4    1   64 1    
     5    2    3 2    
     6    2    4 am   BACKBONE|DICT|INTERRES
     7    4    5 1    
     8    4   65 1    
     9    5    6 1    
    10    5   25 1    
    11    5   66 1    
    12    6    7 1    
    13    6   67 1    
    14    6   68 1    
    15    7    8 1    
    16    8    9 1    
    17    8   69 1    
    18    8   70 1    
    19    9   10 ar   
    20    9   14 ar   
    21   10   11 ar   
    22   10   71 1    
    23   11   12 ar   
    24   11   61 1    
    25   12   13 ar   
    26   12   72 1    
    27   13   14 ar   
    28   13   15 1    
    29   14   73 1    
    30   15   16 1    
    31   15   74 1    
    32   15   75 1    
    33   16   17 1    
    34   17   18 1    
    35   17   76 1    
    36   17   77 1    
    37   18   19 1    
    38   18   27 1    
    39   18   78 1    
    40   19   20 am   BACKBONE|DICT|INTERRES
    41   19   79 1    
    42   20   21 2    
    43   20   22 1    
    44   22   23 1    
    45   22   24 1    
    46   22   80 1    
    47   23   81 1    
    48   23   82 1    
    49   23   83 1    
    50   24   25 am   BACKBONE|DICT|INTERRES
    51   24   84 1    
    52   25   26 2    
    53   27   28 2    
    54   27   29 am   BACKBONE|DICT|INTERRES
    55   29   30 1    
    56   29   85 1    
    57   30   31 1    
    58   30   32 1    
    59   30   86 1    
    60   31   87 1    
    61   31   88 1    
    62   31   89 1    
    63   32   33 2    
    64   32   34 am   BACKBONE|DICT|INTERRES
    65   34   35 1    
    66   34   90 1    
    67   35   36 1    
    68   35   37 1    
    69   35   91 1    
    70   36   92 1    
    71   36   93 1    
    72   36   94 1    
    73   37   38 2    
    74   37   39 am   BACKBONE|DICT|INTERRES
    75   39   40 1    
    76   39   95 1    
    77   40   41 1    
    78   40   42 1    
    79   40   96 1    
    80   41   97 1    
    81   41   98 1    
    82   41   99 1    
    83   42   43 2    
    84   42   44 am   BACKBONE|DICT|INTERRES
    85   44   45 1    
    86   44  100 1    
    87   45   46 1    
    88   45   47 1    
    89   45  101 1    
    90   46  102 1    
    91   46  103 1    
    92   46  104 1    
    93   47   48 2    
    94   47   49 am   BACKBONE|DICT|INTERRES
    95   49   50 1    
    96   49  105 1    
    97   50   51 1    
    98   50   52 1    
    99   50  106 1    
   100   51  107 1    
   101   51  108 1    
   102   51  109 1    
   103   52   53 2    
   104   52   54 am   BACKBONE|DICT|INTERRES
   105   54   55 1    
   106   54  110 1    
   107   55   56 1    
   108   55   59 1    
   109   55  111 1    
   110   56   57 am   BACKBONE|DICT|INTERRES
   111   56   58 2    
   112   57  112 1    
   113   57  113 1    
   114   59   60 1    
   115   59  114 1    
   116   59  115 1    
   117   60   61 1    
   118   61  116 1    
   119   61  117 1    
@<TRIPOS>SUBSTRUCTURE
     1 UNK         1 GROUP             0       ****    0 ROOT    
