@<TRIPOS>MOLECULE
3R8
117   119    1
SMALL
USER_CHARGES


@<TRIPOS>ATOM
      1 CA         12.1886  -26.4091  -41.8987 C.3       0 UNK        -0.2013 
      2 C          13.6100  -26.9016  -41.6708 C.2       0 UNK         0.4866 
      3 O          14.0809  -26.9097  -40.5331 O.2       0 UNK        -0.5176 
      4 N          14.2934  -27.3152  -42.7409 N.am      1 UNK        -0.4884 
      5 CA         15.6638  -27.8250  -42.7295 C.3       1 UNK         0.0853 
      6 C6         16.7333  -26.7007  -42.6034 C.3       10 UNK        -0.0849 
      7 S7         16.6032  -25.3910  -43.8742 S.3       10 UNK        -0.2776 
      8 C8         18.1058  -24.4107  -43.5586 C.3       10 UNK         0.0316 
      9 C9         19.3624  -25.0829  -44.0965 C.ar      10 UNK        -0.0863 
     10 C10        20.3348  -25.5744  -43.2203 C.ar      10 UNK        -0.1009 
     11 C11        21.4967  -26.1755  -43.7155 C.ar      10 UNK        -0.0712 
     12 C12        21.6957  -26.2597  -45.0956 C.ar      10 UNK        -0.0894 
     13 C13        20.7215  -25.7934  -45.9813 C.ar      10 UNK        -0.0745 
     14 C14        19.5619  -25.1969  -45.4762 C.ar      10 UNK        -0.0972 
     15 C15        20.9106  -25.9440  -47.4828 C.3       10 UNK         0.0209 
     16 S16        20.0343  -27.4094  -48.1183 S.3       10 UNK        -0.2568 
     17 C17        21.2010  -28.7686  -47.7528 C.3       10 UNK        -0.0983 
     18 CA         20.9434  -29.4809  -46.3965 C.3       3 UNK         0.0876 
     19 N          19.5418  -29.8931  -46.2420 N.am      3 UNK        -0.4424 
     20 C          18.9342  -30.0836  -45.0662 C.2       2 UNK         0.4918 
     21 O          19.5254  -30.0856  -43.9873 O.2       2 UNK        -0.4875 
     22 CA         17.4206  -30.3030  -45.0737 C.3       2 UNK         0.0481 
     23 CB         17.0836  -31.7945  -44.9225 C.3       2 UNK        -0.1831 
     24 N          16.8867  -29.5603  -43.9350 N.am      2 UNK        -0.4498 
     25 C          15.8728  -28.6926  -43.9827 C.2       1 UNK         0.5027 
     26 O          15.1326  -28.5473  -44.9614 O.2       1 UNK        -0.4969 
     27 C          21.9312  -30.6446  -46.1431 C.2       3 UNK         0.5005 
     28 O          22.6380  -31.0687  -47.0599 O.2       3 UNK        -0.5279 
     29 N          21.9367  -31.1623  -44.9084 N.am      4 UNK        -0.4463 
     30 CA         22.7509  -32.2906  -44.4581 C.3       4 UNK         0.0283 
     31 CB         22.2263  -32.7893  -43.1014 C.3       4 UNK        -0.1875 
     32 C          24.2483  -31.9568  -44.3699 C.2       4 UNK         0.4949 
     33 O          25.0632  -32.7012  -44.9157 O.2       4 UNK        -0.5039 
     34 N          24.5806  -30.8581  -43.6798 N.am      5 UNK        -0.4663 
     35 CA         25.9466  -30.3982  -43.4281 C.3       5 UNK         0.0242 
     36 CB         26.7175  -31.3913  -42.5241 C.3       5 UNK        -0.1982 
     37 C          25.8865  -28.9833  -42.8399 C.2       5 UNK         0.5017 
     38 O          25.8956  -28.0128  -43.5970 O.2       5 UNK        -0.5012 
     39 N          25.8085  -28.9004  -41.5070 N.am      6 UNK        -0.4439 
     40 CA         25.6925  -27.6714  -40.7282 C.3       6 UNK         0.0297 
     41 CB         27.0884  -27.0806  -40.4417 C.3       6 UNK        -0.2006 
     42 C          24.8827  -27.9961  -39.4688 C.2       6 UNK         0.4892 
     43 O          23.6531  -27.9445  -39.5096 O.2       6 UNK        -0.5089 
     44 N          25.5628  -28.4121  -38.3915 N.am      7 UNK        -0.4243 
     45 CA         24.9789  -28.8196  -37.1037 C.3       7 UNK         0.0196 
     46 CB         26.0753  -28.7583  -36.0234 C.3       7 UNK        -0.2007 
     47 C          24.2635  -30.1921  -37.1383 C.2       7 UNK         0.5020 
     48 O          24.3212  -30.9450  -36.1650 O.2       7 UNK        -0.5147 
     49 N          23.6062  -30.4948  -38.2607 N.am      8 UNK        -0.4734 
     50 CA         22.8486  -31.7173  -38.5277 C.3       8 UNK         0.0238 
     51 CB         23.7867  -32.7695  -39.1500 C.3       8 UNK        -0.1912 
     52 C          21.6290  -31.4629  -39.4327 C.2       8 UNK         0.5038 
     53 O          20.9059  -32.4155  -39.7253 O.2       8 UNK        -0.5046 
     54 N          21.4257  -30.2156  -39.8853 N.am      9 UNK        -0.4200 
     55 CA         20.3789  -29.8357  -40.8482 C.3       9 UNK         0.0839 
     56 C          18.9235  -29.8272  -40.2987 C.2       9 UNK         0.5513 
     57 N          18.7013  -29.9531  -38.9962 N.am      9 UNK        -0.7519 
     58 O          17.9782  -29.7020  -41.0743 O.2       9 UNK        -0.4960 
     59 C59        20.7084  -28.4857  -41.5307 C.3       10 UNK        -0.0876 
     60 S60        22.2497  -28.5387  -42.5016 S.3       10 UNK        -0.2414 
     61 C61        22.5300  -26.7599  -42.7656 C.3       10 UNK         0.0169 
     62 H62        11.4848  -27.0164  -41.3302 H         1 UNK         0.0903 
     63 H63        12.0926  -25.3754  -41.5675 H         1 UNK         0.0903 
     64 H64        11.9049  -26.4555  -42.9501 H         1 UNK         0.0903 
     65 H65        13.8700  -27.3258  -43.6615 H         1 UNK         0.3096 
     66 H66        15.7596  -28.4907  -41.8687 H         1 UNK         0.1121 
     67 H67        16.6484  -26.2294  -41.6232 H         1 UNK         0.0849 
     68 H68        17.7372  -27.1272  -42.6364 H         1 UNK         0.0849 
     69 H69        17.9950  -23.4374  -44.0389 H         1 UNK         0.0865 
     70 H70        18.1924  -24.2113  -42.4893 H         1 UNK         0.0865 
     71 H71        20.1844  -25.5001  -42.1521 H         1 UNK         0.1346 
     72 H72        22.5942  -26.7243  -45.4784 H         1 UNK         0.1412 
     73 H73        18.8058  -24.8314  -46.1580 H         1 UNK         0.1426 
     74 H74        21.9692  -25.9960  -47.7415 H         1 UNK         0.0716 
     75 H75        20.5201  -25.0585  -47.9866 H         1 UNK         0.0716 
     76 H76        22.2210  -28.3820  -47.7919 H         1 UNK         0.0695 
     77 H77        21.1208  -29.4840  -48.5735 H         1 UNK         0.0695 
     78 H78        21.1465  -28.7557  -45.6097 H         1 UNK         0.0983 
     79 H79        18.9962  -29.9234  -47.0908 H         1 UNK         0.3095 
     80 H80        17.0102  -29.9277  -46.0135 H         1 UNK         0.0454 
     81 H81        17.5002  -32.2111  -44.0042 H         1 UNK         0.0851 
     82 H82        17.4847  -32.3724  -45.7559 H         1 UNK         0.0851 
     83 H83        16.0057  -31.9555  -44.9037 H         1 UNK         0.0851 
     84 H84        17.4587  -29.6070  -43.0949 H         1 UNK         0.2976 
     85 H85        21.2688  -30.7737  -44.2460 H         1 UNK         0.3116 
     86 H86        22.6305  -33.0986  -45.1829 H         1 UNK         0.0646 
     87 H87        21.1813  -33.0932  -43.1645 H         1 UNK         0.0847 
     88 H88        22.7949  -33.6535  -42.7554 H         1 UNK         0.0847 
     89 H89        22.3034  -32.0214  -42.3319 H         1 UNK         0.0847 
     90 H90        23.8420  -30.2686  -43.3141 H         1 UNK         0.3040 
     91 H91        26.4691  -30.3246  -44.3845 H         1 UNK         0.1015 
     92 H92        26.1559  -31.6583  -41.6286 H         1 UNK         0.0786 
     93 H93        27.6749  -30.9748  -42.2070 H         1 UNK         0.0786 
     94 H94        26.9421  -32.3167  -43.0541 H         1 UNK         0.0786 
     95 H95        25.7760  -29.7616  -40.9799 H         1 UNK         0.3172 
     96 H96        25.1170  -26.9346  -41.2916 H         1 UNK         0.0595 
     97 H97        27.7637  -27.8085  -39.9913 H         1 UNK         0.0839 
     98 H98        27.0228  -26.2239  -39.7693 H         1 UNK         0.0839 
     99 H99        27.5562  -26.7290  -41.3615 H         1 UNK         0.0839 
    100 H100       26.5691  -28.4651  -38.4575 H         1 UNK         0.2998 
    101 H101       24.2152  -28.0854  -36.8379 H         1 UNK         0.0822 
    102 H102       25.6655  -28.9623  -35.0332 H         1 UNK         0.0787 
    103 H103       26.8630  -29.4897  -36.2082 H         1 UNK         0.0787 
    104 H104       26.5358  -27.7710  -35.9796 H         1 UNK         0.0787 
    105 H105       23.6009  -29.7797  -38.9802 H         1 UNK         0.3055 
    106 H106       22.4564  -32.1088  -37.5863 H         1 UNK         0.1106 
    107 H107       24.6268  -32.9920  -38.4920 H         1 UNK         0.0828 
    108 H108       23.2616  -33.7088  -39.3286 H         1 UNK         0.0828 
    109 H109       24.1883  -32.4338  -40.1067 H         1 UNK         0.0828 
    110 H110       22.0332  -29.4622  -39.5952 H         1 UNK         0.2931 
    111 H111       20.3828  -30.6030  -41.6232 H         1 UNK         0.0412 
    112 H112       17.7529  -29.9482  -38.6556 H         1 UNK         0.3472 
    113 H113       19.4694  -30.0607  -38.3540 H         1 UNK         0.3472 
    114 H114       19.9088  -28.1945  -42.2131 H         1 UNK         0.0970 
    115 H115       20.7800  -27.6932  -40.7837 H         1 UNK         0.0970 
    116 H116       23.5293  -26.6174  -43.1782 H         1 UNK         0.0612 
    117 H117       22.5172  -26.2389  -41.8070 H         1 UNK         0.0612 
@<TRIPOS>BOND
     1    1    2 1    
     2    1   62 1    
     3    1   63 1    
     4    1   64 1    
     5    2    3 2    
     6    2    4 am   BACKBONE|DICT|INTERRES
     7    4    5 1    
     8    4   65 1    
     9    5    6 1    
    10    5   25 1    
    11    5   66 1    
    12    6    7 1    
    13    6   67 1    
    14    6   68 1    
    15    7    8 1    
    16    8    9 1    
    17    8   69 1    
    18    8   70 1    
    19    9   10 ar   
    20    9   14 ar   
    21   10   11 ar   
    22   10   71 1    
    23   11   12 ar   
    24   11   61 1    
    25   12   13 ar   
    26   12   72 1    
    27   13   14 ar   
    28   13   15 1    
    29   14   73 1    
    30   15   16 1    
    31   15   74 1    
    32   15   75 1    
    33   16   17 1    
    34   17   18 1    
    35   17   76 1    
    36   17   77 1    
    37   18   19 1    
    38   18   27 1    
    39   18   78 1    
    40   19   20 am   BACKBONE|DICT|INTERRES
    41   19   79 1    
    42   20   21 2    
    43   20   22 1    
    44   22   23 1    
    45   22   24 1    
    46   22   80 1    
    47   23   81 1    
    48   23   82 1    
    49   23   83 1    
    50   24   25 am   BACKBONE|DICT|INTERRES
    51   24   84 1    
    52   25   26 2    
    53   27   28 2    
    54   27   29 am   BACKBONE|DICT|INTERRES
    55   29   30 1    
    56   29   85 1    
    57   30   31 1    
    58   30   32 1    
    59   30   86 1    
    60   31   87 1    
    61   31   88 1    
    62   31   89 1    
    63   32   33 2    
    64   32   34 am   BACKBONE|DICT|INTERRES
    65   34   35 1    
    66   34   90 1    
    67   35   36 1    
    68   35   37 1    
    69   35   91 1    
    70   36   92 1    
    71   36   93 1    
    72   36   94 1    
    73   37   38 2    
    74   37   39 am   BACKBONE|DICT|INTERRES
    75   39   40 1    
    76   39   95 1    
    77   40   41 1    
    78   40   42 1    
    79   40   96 1    
    80   41   97 1    
    81   41   98 1    
    82   41   99 1    
    83   42   43 2    
    84   42   44 am   BACKBONE|DICT|INTERRES
    85   44   45 1    
    86   44  100 1    
    87   45   46 1    
    88   45   47 1    
    89   45  101 1    
    90   46  102 1    
    91   46  103 1    
    92   46  104 1    
    93   47   48 2    
    94   47   49 am   BACKBONE|DICT|INTERRES
    95   49   50 1    
    96   49  105 1    
    97   50   51 1    
    98   50   52 1    
    99   50  106 1    
   100   51  107 1    
   101   51  108 1    
   102   51  109 1    
   103   52   53 2    
   104   52   54 am   BACKBONE|DICT|INTERRES
   105   54   55 1    
   106   54  110 1    
   107   55   56 1    
   108   55   59 1    
   109   55  111 1    
   110   56   57 am   BACKBONE|DICT|INTERRES
   111   56   58 2    
   112   57  112 1    
   113   57  113 1    
   114   59   60 1    
   115   59  114 1    
   116   59  115 1    
   117   60   61 1    
   118   61  116 1    
   119   61  117 1    
@<TRIPOS>SUBSTRUCTURE
     1 UNK         1 GROUP             0       ****    0 ROOT    
