@<TRIPOS>MOLECULE
3R8
117   119    1
SMALL
USER_CHARGES


@<TRIPOS>ATOM
      1 CA         18.6400  -29.0728  -42.2334 C.3       0 UNK        -0.2013 
      2 C          17.9893  -27.7976  -42.7470 C.2       0 UNK         0.4866 
      3 O          17.8279  -26.8375  -41.9930 O.2       0 UNK        -0.5176 
      4 N          17.6139  -27.7751  -44.0311 N.am      1 UNK        -0.4884 
      5 CA         16.9734  -26.6500  -44.7252 C.3       1 UNK         0.0853 
      6 C6         16.2420  -27.1008  -46.0213 C.3       10 UNK        -0.0849 
      7 S7         15.0527  -28.4678  -45.7656 S.3       10 UNK        -0.2776 
      8 C8         15.7646  -29.8096  -46.7810 C.3       10 UNK         0.0316 
      9 C9         16.9444  -30.4810  -46.0903 C.ar      10 UNK        -0.0863 
     10 C10        16.7534  -31.6231  -45.3115 C.ar      10 UNK        -0.1009 
     11 C11        17.8277  -32.2395  -44.6626 C.ar      10 UNK        -0.0712 
     12 C12        19.1049  -31.6633  -44.7690 C.ar      10 UNK        -0.0894 
     13 C13        19.3124  -30.5032  -45.5247 C.ar      10 UNK        -0.0745 
     14 C14        18.2291  -29.9567  -46.2262 C.ar      10 UNK        -0.0972 
     15 C15        20.7045  -29.8569  -45.5404 C.3       10 UNK         0.0209 
     16 S16        20.6953  -28.1141  -46.0900 S.3       10 UNK        -0.2568 
     17 C17        22.3305  -27.4635  -45.6097 C.3       10 UNK        -0.0983 
     18 CA         22.2968  -26.4372  -44.4359 C.3       3 UNK         0.0876 
     19 N          21.0890  -25.6003  -44.4534 N.am      3 UNK        -0.4424 
     20 C          20.9238  -24.4015  -43.8834 C.2       2 UNK         0.4918 
     21 O          21.8321  -23.7919  -43.3201 O.2       2 UNK        -0.4875 
     22 CA         19.4971  -23.8162  -43.8589 C.3       2 UNK         0.0481 
     23 CB         19.3287  -22.6901  -44.8977 C.3       2 UNK        -0.1831 
     24 N          18.4302  -24.8304  -43.9436 N.am      2 UNK        -0.4498 
     25 C          18.0072  -25.5334  -45.0052 C.2       1 UNK         0.5027 
     26 O          18.4542  -25.3795  -46.1419 O.2       1 UNK        -0.4969 
     27 C          22.5707  -27.1013  -43.0667 C.2       3 UNK         0.5005 
     28 O          23.5623  -27.8221  -42.9499 O.2       3 UNK        -0.5279 
     29 N          21.7447  -26.8227  -42.0441 N.am      4 UNK        -0.4463 
     30 CA         21.8400  -27.3362  -40.6703 C.3       4 UNK         0.0283 
     31 CB         20.7278  -26.7122  -39.8132 C.3       4 UNK        -0.1875 
     32 C          23.2029  -27.1387  -39.9787 C.2       4 UNK         0.4949 
     33 O          23.5486  -27.9225  -39.0960 O.2       4 UNK        -0.5039 
     34 N          23.9570  -26.1116  -40.3926 N.am      5 UNK        -0.4663 
     35 CA         25.3230  -25.8473  -39.9340 C.3       5 UNK         0.0242 
     36 CB         25.7242  -24.4249  -40.3574 C.3       5 UNK        -0.1982 
     37 C          26.3565  -26.8709  -40.4451 C.2       5 UNK         0.5017 
     38 O          27.4013  -27.0236  -39.8109 O.2       5 UNK        -0.5012 
     39 N          26.0629  -27.5348  -41.5718 N.am      6 UNK        -0.4439 
     40 CA         26.9162  -28.5426  -42.2036 C.3       6 UNK         0.0297 
     41 CB         27.0802  -28.2039  -43.6949 C.3       6 UNK        -0.2006 
     42 C          26.3333  -29.9536  -42.0378 C.2       6 UNK         0.4892 
     43 O          27.0866  -30.8842  -41.7494 O.2       6 UNK        -0.5089 
     44 N          25.0152  -30.0895  -42.2218 N.am      7 UNK        -0.4243 
     45 CA         24.2685  -31.3377  -42.1309 C.3       7 UNK         0.0196 
     46 CB         23.9428  -31.8380  -43.5511 C.3       7 UNK        -0.2007 
     47 C          23.0053  -31.0650  -41.3112 C.2       7 UNK         0.5020 
     48 O          21.9863  -30.6699  -41.8781 O.2       7 UNK        -0.5147 
     49 N          23.1063  -31.2583  -39.9873 N.am      8 UNK        -0.4734 
     50 CA         22.0372  -31.0258  -39.0033 C.3       8 UNK         0.0238 
     51 CB         22.5676  -31.3200  -37.5912 C.3       8 UNK        -0.1912 
     52 C          20.7475  -31.8187  -39.2745 C.2       8 UNK         0.5038 
     53 O          19.6580  -31.3048  -39.0196 O.2       8 UNK        -0.5046 
     54 N          20.9041  -33.0295  -39.8262 N.am      9 UNK        -0.4200 
     55 CA         19.8328  -33.8689  -40.3809 C.3       9 UNK         0.0839 
     56 C          18.8406  -34.4671  -39.3372 C.2       9 UNK         0.5513 
     57 N          19.1754  -34.4908  -38.0526 N.am      9 UNK        -0.7519 
     58 O          17.7661  -34.9438  -39.6935 O.2       9 UNK        -0.4960 
     59 C59        19.1332  -33.1739  -41.5891 C.3       10 UNK        -0.0876 
     60 S60        18.9383  -34.2948  -43.0122 S.3       10 UNK        -0.2414 
     61 C61        17.5310  -33.5206  -43.8760 C.3       10 UNK         0.0169 
     62 H62        19.6955  -29.0981  -42.5040 H         1 UNK         0.0903 
     63 H63        18.5675  -29.1347  -41.1477 H         1 UNK         0.0903 
     64 H64        18.1543  -29.9546  -42.6496 H         1 UNK         0.0903 
     65 H65        17.7657  -28.5979  -44.6009 H         1 UNK         0.3096 
     66 H66        16.2173  -26.2297  -44.0579 H         1 UNK         0.1121 
     67 H67        16.9536  -27.3818  -46.7975 H         1 UNK         0.0849 
     68 H68        15.6844  -26.2591  -46.4364 H         1 UNK         0.0849 
     69 H69        14.9849  -30.5472  -46.9779 H         1 UNK         0.0865 
     70 H70        16.0612  -29.4232  -47.7574 H         1 UNK         0.0865 
     71 H71        15.7605  -32.0422  -45.2170 H         1 UNK         0.1346 
     72 H72        19.9507  -32.1024  -44.2602 H         1 UNK         0.1412 
     73 H73        18.3669  -29.0931  -46.8585 H         1 UNK         0.1426 
     74 H74        21.1301  -29.8979  -44.5360 H         1 UNK         0.0716 
     75 H75        21.3640  -30.4344  -46.1891 H         1 UNK         0.0716 
     76 H76        23.0193  -28.2909  -45.4272 H         1 UNK         0.0695 
     77 H77        22.7259  -26.9611  -46.4937 H         1 UNK         0.0695 
     78 H78        23.1462  -25.7664  -44.5830 H         1 UNK         0.0983 
     79 H79        20.3001  -26.0040  -44.9428 H         1 UNK         0.3095 
     80 H80        19.3750  -23.3628  -42.8740 H         1 UNK         0.0454 
     81 H81        19.5209  -23.0342  -45.9140 H         1 UNK         0.0851 
     82 H82        18.3245  -22.2678  -44.8683 H         1 UNK         0.0851 
     83 H83        20.0278  -21.8766  -44.7001 H         1 UNK         0.0851 
     84 H84        18.0632  -25.1367  -43.0462 H         1 UNK         0.2976 
     85 H85        20.9696  -26.2053  -42.2331 H         1 UNK         0.3116 
     86 H86        21.6573  -28.4073  -40.7257 H         1 UNK         0.0646 
     87 H87        20.8049  -25.6248  -39.7794 H         1 UNK         0.0847 
     88 H88        20.7764  -27.0742  -38.7850 H         1 UNK         0.0847 
     89 H89        19.7395  -26.9687  -40.1906 H         1 UNK         0.0847 
     90 H90        23.5870  -25.5041  -41.1098 H         1 UNK         0.3040 
     91 H91        25.3313  -25.8964  -38.8426 H         1 UNK         0.1015 
     92 H92        25.0479  -23.6798  -39.9379 H         1 UNK         0.0786 
     93 H93        25.7212  -24.3100  -41.4422 H         1 UNK         0.0786 
     94 H94        26.7284  -24.1818  -40.0068 H         1 UNK         0.0786 
     95 H95        25.1517  -27.3892  -41.9980 H         1 UNK         0.3172 
     96 H96        27.9094  -28.5391  -41.7497 H         1 UNK         0.0595 
     97 H97        27.5512  -27.2301  -43.8290 H         1 UNK         0.0839 
     98 H98        26.1221  -28.1863  -44.2164 H         1 UNK         0.0839 
     99 H99        27.7108  -28.9402  -44.1953 H         1 UNK         0.0839 
    100 H100       24.4569  -29.2675  -42.4533 H         1 UNK         0.2998 
    101 H101       24.8519  -32.1060  -41.6189 H         1 UNK         0.0822 
    102 H102       24.8516  -32.0894  -44.0979 H         1 UNK         0.0787 
    103 H103       23.3228  -32.7347  -43.5172 H         1 UNK         0.0787 
    104 H104       23.4031  -31.0876  -44.1304 H         1 UNK         0.0787 
    105 H105       23.9984  -31.5516  -39.6151 H         1 UNK         0.3055 
    106 H106       21.7711  -29.9693  -39.0472 H         1 UNK         0.1106 
    107 H107       21.7959  -31.1456  -36.8399 H         1 UNK         0.0828 
    108 H108       22.8969  -32.3545  -37.4874 H         1 UNK         0.0828 
    109 H109       23.4080  -30.6712  -37.3428 H         1 UNK         0.0828 
    110 H110       21.8447  -33.3658  -39.9704 H         1 UNK         0.2931 
    111 H111       20.3724  -34.7385  -40.7576 H         1 UNK         0.0412 
    112 H112       18.5358  -34.8870  -37.3817 H         1 UNK         0.3472 
    113 H113       20.0560  -34.1082  -37.7478 H         1 UNK         0.3472 
    114 H114       19.7205  -32.3242  -41.9400 H         1 UNK         0.0970 
    115 H115       18.1690  -32.7518  -41.2998 H         1 UNK         0.0970 
    116 H116       16.7374  -33.3259  -43.1531 H         1 UNK         0.0612 
    117 H117       17.1320  -34.2587  -44.5732 H         1 UNK         0.0612 
@<TRIPOS>BOND
     1    1    2 1    
     2    1   62 1    
     3    1   63 1    
     4    1   64 1    
     5    2    3 2    
     6    2    4 am   BACKBONE|DICT|INTERRES
     7    4    5 1    
     8    4   65 1    
     9    5    6 1    
    10    5   25 1    
    11    5   66 1    
    12    6    7 1    
    13    6   67 1    
    14    6   68 1    
    15    7    8 1    
    16    8    9 1    
    17    8   69 1    
    18    8   70 1    
    19    9   10 ar   
    20    9   14 ar   
    21   10   11 ar   
    22   10   71 1    
    23   11   12 ar   
    24   11   61 1    
    25   12   13 ar   
    26   12   72 1    
    27   13   14 ar   
    28   13   15 1    
    29   14   73 1    
    30   15   16 1    
    31   15   74 1    
    32   15   75 1    
    33   16   17 1    
    34   17   18 1    
    35   17   76 1    
    36   17   77 1    
    37   18   19 1    
    38   18   27 1    
    39   18   78 1    
    40   19   20 am   BACKBONE|DICT|INTERRES
    41   19   79 1    
    42   20   21 2    
    43   20   22 1    
    44   22   23 1    
    45   22   24 1    
    46   22   80 1    
    47   23   81 1    
    48   23   82 1    
    49   23   83 1    
    50   24   25 am   BACKBONE|DICT|INTERRES
    51   24   84 1    
    52   25   26 2    
    53   27   28 2    
    54   27   29 am   BACKBONE|DICT|INTERRES
    55   29   30 1    
    56   29   85 1    
    57   30   31 1    
    58   30   32 1    
    59   30   86 1    
    60   31   87 1    
    61   31   88 1    
    62   31   89 1    
    63   32   33 2    
    64   32   34 am   BACKBONE|DICT|INTERRES
    65   34   35 1    
    66   34   90 1    
    67   35   36 1    
    68   35   37 1    
    69   35   91 1    
    70   36   92 1    
    71   36   93 1    
    72   36   94 1    
    73   37   38 2    
    74   37   39 am   BACKBONE|DICT|INTERRES
    75   39   40 1    
    76   39   95 1    
    77   40   41 1    
    78   40   42 1    
    79   40   96 1    
    80   41   97 1    
    81   41   98 1    
    82   41   99 1    
    83   42   43 2    
    84   42   44 am   BACKBONE|DICT|INTERRES
    85   44   45 1    
    86   44  100 1    
    87   45   46 1    
    88   45   47 1    
    89   45  101 1    
    90   46  102 1    
    91   46  103 1    
    92   46  104 1    
    93   47   48 2    
    94   47   49 am   BACKBONE|DICT|INTERRES
    95   49   50 1    
    96   49  105 1    
    97   50   51 1    
    98   50   52 1    
    99   50  106 1    
   100   51  107 1    
   101   51  108 1    
   102   51  109 1    
   103   52   53 2    
   104   52   54 am   BACKBONE|DICT|INTERRES
   105   54   55 1    
   106   54  110 1    
   107   55   56 1    
   108   55   59 1    
   109   55  111 1    
   110   56   57 am   BACKBONE|DICT|INTERRES
   111   56   58 2    
   112   57  112 1    
   113   57  113 1    
   114   59   60 1    
   115   59  114 1    
   116   59  115 1    
   117   60   61 1    
   118   61  116 1    
   119   61  117 1    
@<TRIPOS>SUBSTRUCTURE
     1 UNK         1 GROUP             0       ****    0 ROOT    
