@<TRIPOS>MOLECULE
3R8
117   119    1
SMALL
USER_CHARGES


@<TRIPOS>ATOM
      1 CA         17.7275  -26.9525  -41.4482 C.3       0 UNK        -0.2013 
      2 C          17.8841  -26.6619  -42.9315 C.2       0 UNK         0.4866 
      3 O          18.9625  -26.8716  -43.4832 O.2       0 UNK        -0.5176 
      4 N          16.8240  -26.1429  -43.5699 N.am      1 UNK        -0.4884 
      5 CA         16.6929  -25.8842  -45.0184 C.3       1 UNK         0.0853 
      6 C6         16.6425  -27.1889  -45.8625 C.3       10 UNK        -0.0849 
      7 S7         15.3493  -28.3502  -45.3005 S.3       10 UNK        -0.2776 
      8 C8         16.1382  -29.9665  -45.5995 C.3       10 UNK         0.0316 
      9 C9         17.3477  -30.2049  -44.7046 C.ar      10 UNK        -0.0863 
     10 C10        17.1765  -30.4207  -43.3334 C.ar      10 UNK        -0.1009 
     11 C11        18.2816  -30.6532  -42.5102 C.ar      10 UNK        -0.0712 
     12 C12        19.5621  -30.6801  -43.0686 C.ar      10 UNK        -0.0894 
     13 C13        19.7490  -30.4609  -44.4360 C.ar      10 UNK        -0.0745 
     14 C14        18.6366  -30.2260  -45.2498 C.ar      10 UNK        -0.0972 
     15 C15        21.1507  -30.4969  -45.0311 C.3       10 UNK         0.0209 
     16 S16        22.1614  -29.0808  -44.5035 S.3       10 UNK        -0.2568 
     17 C17        21.5026  -27.7666  -45.5912 C.3       10 UNK        -0.0983 
     18 CA         21.9877  -26.2927  -45.3848 C.3       3 UNK         0.0876 
     19 N          20.8625  -25.4010  -45.0969 N.am      3 UNK        -0.4424 
     20 C          20.8148  -24.0963  -45.4063 C.2       2 UNK         0.4918 
     21 O          21.7032  -23.5193  -46.0364 O.2       2 UNK        -0.4875 
     22 CA         19.5802  -23.2940  -44.9320 C.3       2 UNK         0.0481 
     23 CB         19.2488  -22.1057  -45.8598 C.3       2 UNK        -0.1831 
     24 N          18.3947  -24.1264  -44.6932 N.am      2 UNK        -0.4498 
     25 C          17.7401  -24.8908  -45.5825 C.2       1 UNK         0.5027 
     26 O          17.9545  -24.8560  -46.7956 O.2       1 UNK        -0.4969 
     27 C          23.0996  -26.0752  -44.3333 C.2       3 UNK         0.5005 
     28 O          22.8129  -25.6374  -43.2138 O.2       3 UNK        -0.5279 
     29 N          24.3465  -26.3859  -44.7214 N.am      4 UNK        -0.4463 
     30 CA         25.5776  -26.2232  -43.9399 C.3       4 UNK         0.0283 
     31 CB         26.7592  -26.8053  -44.7342 C.3       4 UNK        -0.1875 
     32 C          25.4894  -26.8565  -42.5407 C.2       4 UNK         0.4949 
     33 O          25.5433  -28.0810  -42.4177 O.2       4 UNK        -0.5039 
     34 N          25.2946  -25.9989  -41.5279 N.am      5 UNK        -0.4663 
     35 CA         25.1213  -26.3099  -40.1017 C.3       5 UNK         0.0242 
     36 CB         26.4443  -26.8478  -39.5151 C.3       5 UNK        -0.1982 
     37 C          23.9314  -27.2411  -39.7796 C.2       5 UNK         0.5017 
     38 O          23.8961  -27.7963  -38.6802 O.2       5 UNK        -0.5012 
     39 N          22.9984  -27.4182  -40.7327 N.am      6 UNK        -0.4439 
     40 CA         21.8961  -28.3928  -40.7197 C.3       6 UNK         0.0297 
     41 CB         20.8407  -27.9842  -39.6705 C.3       6 UNK        -0.2006 
     42 C          22.3804  -29.8533  -40.5417 C.2       6 UNK         0.4892 
     43 O          21.6712  -30.6637  -39.9408 O.2       6 UNK        -0.5089 
     44 N          23.5920  -30.1509  -41.0419 N.am      7 UNK        -0.4243 
     45 CA         24.4017  -31.3271  -40.7020 C.3       7 UNK         0.0196 
     46 CB         25.7329  -31.2664  -41.4672 C.3       7 UNK        -0.2007 
     47 C          23.7371  -32.6980  -40.8996 C.2       7 UNK         0.5020 
     48 O          23.9927  -33.6019  -40.1029 O.2       7 UNK        -0.5147 
     49 N          22.8916  -32.8397  -41.9304 N.am      8 UNK        -0.4734 
     50 CA         22.1934  -34.0946  -42.2443 C.3       8 UNK         0.0238 
     51 CB         21.5064  -33.9911  -43.6144 C.3       8 UNK        -0.1912 
     52 C          21.1818  -34.5427  -41.1732 C.2       8 UNK         0.5038 
     53 O          20.8707  -35.7335  -41.1175 O.2       8 UNK        -0.5046 
     54 N          20.7019  -33.6040  -40.3471 N.am      9 UNK        -0.4200 
     55 CA         19.8095  -33.8756  -39.2102 C.3       9 UNK         0.0839 
     56 C          20.5726  -34.1208  -37.8756 C.2       9 UNK         0.5513 
     57 N          21.9013  -34.1079  -37.8453 N.am      9 UNK        -0.7519 
     58 O          19.9453  -34.3450  -36.8436 O.2       9 UNK        -0.4960 
     59 C59        18.7127  -32.7890  -39.0580 C.3       10 UNK        -0.0876 
     60 S60        17.7336  -32.5710  -40.5884 S.3       10 UNK        -0.2414 
     61 C61        18.1033  -30.8429  -41.0133 C.3       10 UNK         0.0169 
     62 H62        16.6828  -26.9466  -41.1397 H         1 UNK         0.0903 
     63 H63        18.1404  -27.9327  -41.2208 H         1 UNK         0.0903 
     64 H64        18.2662  -26.2108  -40.8604 H         1 UNK         0.0903 
     65 H65        15.9800  -25.9742  -43.0396 H         1 UNK         0.3096 
     66 H66        15.7330  -25.3806  -45.1442 H         1 UNK         0.1121 
     67 H67        16.4403  -26.9652  -46.9115 H         1 UNK         0.0849 
     68 H68        17.6165  -27.6788  -45.8408 H         1 UNK         0.0849 
     69 H69        15.4044  -30.7537  -45.4211 H         1 UNK         0.0865 
     70 H70        16.4116  -30.0416  -46.6531 H         1 UNK         0.0865 
     71 H71        16.1832  -30.3986  -42.9064 H         1 UNK         0.1346 
     72 H72        20.4177  -30.8632  -42.4360 H         1 UNK         0.1412 
     73 H73        18.7751  -30.0589  -46.3092 H         1 UNK         0.1426 
     74 H74        21.1142  -30.5331  -46.1210 H         1 UNK         0.0716 
     75 H75        21.6552  -31.4083  -44.7173 H         1 UNK         0.0716 
     76 H76        20.4148  -27.8199  -45.5384 H         1 UNK         0.0695 
     77 H77        21.7386  -28.0667  -46.6123 H         1 UNK         0.0695 
     78 H78        22.4090  -25.9675  -46.3391 H         1 UNK         0.0983 
     79 H79        20.1258  -25.8063  -44.5229 H         1 UNK         0.3095 
     80 H80        19.8524  -22.8819  -43.9595 H         1 UNK         0.0454 
     81 H81        20.0794  -21.4004  -45.9039 H         1 UNK         0.0851 
     82 H82        18.3782  -21.5547  -45.5046 H         1 UNK         0.0851 
     83 H83        19.0476  -22.4305  -46.8809 H         1 UNK         0.0851 
     84 H84        18.1386  -24.2490  -43.7232 H         1 UNK         0.2976 
     85 H85        24.4655  -26.7828  -45.6422 H         1 UNK         0.3116 
     86 H86        25.7502  -25.1511  -43.8258 H         1 UNK         0.0646 
     87 H87        26.8936  -26.2908  -45.6858 H         1 UNK         0.0847 
     88 H88        26.6225  -27.8676  -44.9420 H         1 UNK         0.0847 
     89 H89        27.6916  -26.7016  -44.1776 H         1 UNK         0.0847 
     90 H90        25.1958  -25.0205  -41.7648 H         1 UNK         0.3040 
     91 H91        24.8984  -25.3633  -39.6068 H         1 UNK         0.1015 
     92 H92        26.3852  -26.9444  -38.4302 H         1 UNK         0.0786 
     93 H93        27.2766  -26.1781  -39.7316 H         1 UNK         0.0786 
     94 H94        26.6922  -27.8315  -39.9155 H         1 UNK         0.0786 
     95 H95        23.0976  -26.8816  -41.5908 H         1 UNK         0.3172 
     96 H96        21.4238  -28.3382  -41.7013 H         1 UNK         0.0595 
     97 H97        19.9548  -28.6131  -39.7331 H         1 UNK         0.0839 
     98 H98        20.5158  -26.9545  -39.8174 H         1 UNK         0.0839 
     99 H99        21.2244  -28.0735  -38.6539 H         1 UNK         0.0839 
    100 H100       24.0831  -29.4161  -41.5409 H         1 UNK         0.2998 
    101 H101       24.6269  -31.2443  -39.6368 H         1 UNK         0.0822 
    102 H102       26.3099  -30.3851  -41.1864 H         1 UNK         0.0787 
    103 H103       26.3534  -32.1375  -41.2513 H         1 UNK         0.0787 
    104 H104       25.5756  -31.2336  -42.5460 H         1 UNK         0.0787 
    105 H105       22.7336  -32.0472  -42.5353 H         1 UNK         0.3055 
    106 H106       22.9506  -34.8796  -42.3082 H         1 UNK         0.1106 
    107 H107       22.2127  -33.7168  -44.3977 H         1 UNK         0.0828 
    108 H108       21.0705  -34.9495  -43.9001 H         1 UNK         0.0828 
    109 H109       20.6948  -33.2642  -43.6055 H         1 UNK         0.0828 
    110 H110       21.0437  -32.6529  -40.4238 H         1 UNK         0.2931 
    111 H111       19.2815  -34.8109  -39.4052 H         1 UNK         0.0412 
    112 H112       22.4431  -33.9405  -38.6842 H         1 UNK         0.3472 
    113 H113       22.3732  -34.2755  -36.9708 H         1 UNK         0.3472 
    114 H114       18.0163  -33.0651  -38.2641 H         1 UNK         0.0970 
    115 H115       19.1586  -31.8441  -38.7435 H         1 UNK         0.0970 
    116 H116       19.0106  -30.5185  -40.5076 H         1 UNK         0.0612 
    117 H117       17.2996  -30.2055  -40.6423 H         1 UNK         0.0612 
@<TRIPOS>BOND
     1    1    2 1    
     2    1   62 1    
     3    1   63 1    
     4    1   64 1    
     5    2    3 2    
     6    2    4 am   BACKBONE|DICT|INTERRES
     7    4    5 1    
     8    4   65 1    
     9    5    6 1    
    10    5   25 1    
    11    5   66 1    
    12    6    7 1    
    13    6   67 1    
    14    6   68 1    
    15    7    8 1    
    16    8    9 1    
    17    8   69 1    
    18    8   70 1    
    19    9   10 ar   
    20    9   14 ar   
    21   10   11 ar   
    22   10   71 1    
    23   11   12 ar   
    24   11   61 1    
    25   12   13 ar   
    26   12   72 1    
    27   13   14 ar   
    28   13   15 1    
    29   14   73 1    
    30   15   16 1    
    31   15   74 1    
    32   15   75 1    
    33   16   17 1    
    34   17   18 1    
    35   17   76 1    
    36   17   77 1    
    37   18   19 1    
    38   18   27 1    
    39   18   78 1    
    40   19   20 am   BACKBONE|DICT|INTERRES
    41   19   79 1    
    42   20   21 2    
    43   20   22 1    
    44   22   23 1    
    45   22   24 1    
    46   22   80 1    
    47   23   81 1    
    48   23   82 1    
    49   23   83 1    
    50   24   25 am   BACKBONE|DICT|INTERRES
    51   24   84 1    
    52   25   26 2    
    53   27   28 2    
    54   27   29 am   BACKBONE|DICT|INTERRES
    55   29   30 1    
    56   29   85 1    
    57   30   31 1    
    58   30   32 1    
    59   30   86 1    
    60   31   87 1    
    61   31   88 1    
    62   31   89 1    
    63   32   33 2    
    64   32   34 am   BACKBONE|DICT|INTERRES
    65   34   35 1    
    66   34   90 1    
    67   35   36 1    
    68   35   37 1    
    69   35   91 1    
    70   36   92 1    
    71   36   93 1    
    72   36   94 1    
    73   37   38 2    
    74   37   39 am   BACKBONE|DICT|INTERRES
    75   39   40 1    
    76   39   95 1    
    77   40   41 1    
    78   40   42 1    
    79   40   96 1    
    80   41   97 1    
    81   41   98 1    
    82   41   99 1    
    83   42   43 2    
    84   42   44 am   BACKBONE|DICT|INTERRES
    85   44   45 1    
    86   44  100 1    
    87   45   46 1    
    88   45   47 1    
    89   45  101 1    
    90   46  102 1    
    91   46  103 1    
    92   46  104 1    
    93   47   48 2    
    94   47   49 am   BACKBONE|DICT|INTERRES
    95   49   50 1    
    96   49  105 1    
    97   50   51 1    
    98   50   52 1    
    99   50  106 1    
   100   51  107 1    
   101   51  108 1    
   102   51  109 1    
   103   52   53 2    
   104   52   54 am   BACKBONE|DICT|INTERRES
   105   54   55 1    
   106   54  110 1    
   107   55   56 1    
   108   55   59 1    
   109   55  111 1    
   110   56   57 am   BACKBONE|DICT|INTERRES
   111   56   58 2    
   112   57  112 1    
   113   57  113 1    
   114   59   60 1    
   115   59  114 1    
   116   59  115 1    
   117   60   61 1    
   118   61  116 1    
   119   61  117 1    
@<TRIPOS>SUBSTRUCTURE
     1 UNK         1 GROUP             0       ****    0 ROOT    
