@<TRIPOS>MOLECULE
3R8
117   119    1
SMALL
USER_CHARGES


@<TRIPOS>ATOM
      1 CA         18.1262  -23.6993  -48.3579 C.3       0 UNK        -0.2013 
      2 C          19.1562  -24.7165  -47.8903 C.2       0 UNK         0.4866 
      3 O          20.3281  -24.6119  -48.2525 O.2       0 UNK        -0.5176 
      4 N          18.7276  -25.7016  -47.0899 N.am      1 UNK        -0.4884 
      5 CA         19.5724  -26.7817  -46.5572 C.3       1 UNK         0.0853 
      6 C6         18.7329  -27.9342  -45.9494 C.3       10 UNK        -0.0849 
      7 S7         17.3948  -28.5360  -47.0387 S.3       10 UNK        -0.2776 
      8 C8         17.3369  -30.3191  -46.6327 C.3       10 UNK         0.0316 
      9 C9         17.2104  -30.6521  -45.1435 C.ar      10 UNK        -0.0863 
     10 C10        17.7328  -31.8645  -44.6797 C.ar      10 UNK        -0.1009 
     11 C11        17.6675  -32.2008  -43.3244 C.ar      10 UNK        -0.0712 
     12 C12        17.0856  -31.3078  -42.4221 C.ar      10 UNK        -0.0894 
     13 C13        16.5710  -30.0871  -42.8654 C.ar      10 UNK        -0.0745 
     14 C14        16.6002  -29.7824  -44.2290 C.ar      10 UNK        -0.0972 
     15 C15        16.0499  -29.0690  -41.8599 C.3       10 UNK         0.0209 
     16 S16        17.1817  -27.6454  -41.6743 S.3       10 UNK        -0.2568 
     17 C17        18.8002  -28.4721  -41.4671 C.3       10 UNK        -0.0983 
     18 CA         19.9940  -27.5137  -41.2257 C.3       3 UNK         0.0876 
     19 N          20.0345  -26.4309  -42.2202 N.am      3 UNK        -0.4424 
     20 C          21.0495  -25.5856  -42.4469 C.2       2 UNK         0.4918 
     21 O          22.0644  -25.5461  -41.7513 O.2       2 UNK        -0.4875 
     22 CA         20.8807  -24.6087  -43.6278 C.3       2 UNK         0.0481 
     23 CB         22.2082  -23.9557  -44.0657 C.3       2 UNK        -0.1831 
     24 N          20.1857  -25.2128  -44.7716 N.am      2 UNK        -0.4498 
     25 C          20.5732  -26.2779  -45.4953 C.2       1 UNK         0.5027 
     26 O          21.6372  -26.8763  -45.3341 O.2       1 UNK        -0.4969 
     27 C          20.1068  -27.0724  -39.7492 C.2       3 UNK         0.5005 
     28 O          20.2942  -27.9251  -38.8799 O.2       3 UNK        -0.5279 
     29 N          20.0431  -25.7603  -39.4848 N.am      4 UNK        -0.4463 
     30 CA         20.3754  -25.1519  -38.1958 C.3       4 UNK         0.0283 
     31 CB         19.9126  -23.6860  -38.1986 C.3       4 UNK        -0.1875 
     32 C          21.8757  -25.2388  -37.8446 C.2       4 UNK         0.4949 
     33 O          22.2075  -25.1554  -36.6616 O.2       4 UNK        -0.5039 
     34 N          22.7497  -25.3901  -38.8523 N.am      5 UNK        -0.4663 
     35 CA         24.2048  -25.4647  -38.6784 C.3       5 UNK         0.0242 
     36 CB         24.8169  -24.0706  -38.9008 C.3       5 UNK        -0.1982 
     37 C          24.8820  -26.5025  -39.5890 C.2       5 UNK         0.5017 
     38 O          25.8895  -27.0792  -39.1767 O.2       5 UNK        -0.5012 
     39 N          24.3509  -26.7105  -40.7999 N.am      6 UNK        -0.4439 
     40 CA         24.8825  -27.6059  -41.8260 C.3       6 UNK         0.0297 
     41 CB         25.2104  -26.7737  -43.0833 C.3       6 UNK        -0.2006 
     42 C          23.8890  -28.7543  -42.0818 C.2       6 UNK         0.4892 
     43 O          23.3499  -29.3097  -41.1230 O.2       6 UNK        -0.5089 
     44 N          23.7014  -29.1265  -43.3572 N.am      7 UNK        -0.4243 
     45 CA         22.8874  -30.2251  -43.9054 C.3       7 UNK         0.0196 
     46 CB         21.4011  -30.0856  -43.5273 C.3       7 UNK        -0.2007 
     47 C          23.4043  -31.6377  -43.5758 C.2       7 UNK         0.5020 
     48 O          23.3548  -32.5064  -44.4472 O.2       7 UNK        -0.5147 
     49 N          23.8856  -31.8477  -42.3429 N.am      8 UNK        -0.4734 
     50 CA         24.4380  -33.0740  -41.7441 C.3       8 UNK         0.0238 
     51 CB         25.6762  -33.5768  -42.5121 C.3       8 UNK        -0.1912 
     52 C          23.4095  -34.2013  -41.5409 C.2       8 UNK         0.5038 
     53 O          23.3631  -34.7777  -40.4536 O.2       8 UNK        -0.5046 
     54 N          22.5994  -34.4738  -42.5702 N.am      9 UNK        -0.4200 
     55 CA         21.4574  -35.4042  -42.5786 C.3       9 UNK         0.0839 
     56 C          21.8344  -36.9096  -42.4315 C.2       9 UNK         0.5513 
     57 N          23.0818  -37.3025  -42.6598 N.am      9 UNK        -0.7519 
     58 O          20.9799  -37.7425  -42.1388 O.2       9 UNK        -0.4960 
     59 C59        20.3206  -34.9676  -41.6085 C.3       10 UNK        -0.0876 
     60 S60        19.7794  -33.2469  -41.8960 S.3       10 UNK        -0.2414 
     61 C61        18.2425  -33.5174  -42.8271 C.3       10 UNK         0.0169 
     62 H62        18.0693  -23.6966  -49.4461 H         1 UNK         0.0903 
     63 H63        17.1319  -23.9158  -47.9675 H         1 UNK         0.0903 
     64 H64        18.4097  -22.6999  -48.0290 H         1 UNK         0.0903 
     65 H65        17.7454  -25.7655  -46.8594 H         1 UNK         0.3096 
     66 H66        20.1580  -27.1859  -47.3862 H         1 UNK         0.1121 
     67 H67        19.3848  -28.7737  -45.6985 H         1 UNK         0.0849 
     68 H68        18.2736  -27.6184  -45.0106 H         1 UNK         0.0849 
     69 H69        16.4953  -30.7686  -47.1611 H         1 UNK         0.0865 
     70 H70        18.2372  -30.7831  -47.0389 H         1 UNK         0.0865 
     71 H71        18.2008  -32.5478  -45.3755 H         1 UNK         0.1346 
     72 H72        17.0680  -31.5518  -41.3685 H         1 UNK         0.1412 
     73 H73        16.1897  -28.8396  -44.5619 H         1 UNK         0.1426 
     74 H74        15.9040  -29.5324  -40.8830 H         1 UNK         0.0716 
     75 H75        15.0709  -28.7084  -42.1784 H         1 UNK         0.0716 
     76 H76        18.9963  -29.0322  -42.3813 H         1 UNK         0.0695 
     77 H77        18.7244  -29.2230  -40.6781 H         1 UNK         0.0695 
     78 H78        20.9012  -28.0972  -41.3913 H         1 UNK         0.0983 
     79 H79        19.2146  -26.3604  -42.8048 H         1 UNK         0.3095 
     80 H80        20.2314  -23.8115  -43.2636 H         1 UNK         0.0454 
     81 H81        22.9218  -24.6906  -44.4361 H         1 UNK         0.0851 
     82 H82        22.6827  -23.4314  -43.2353 H         1 UNK         0.0851 
     83 H83        22.0451  -23.2242  -44.8569 H         1 UNK         0.0851 
     84 H84        19.2963  -24.7977  -45.0130 H         1 UNK         0.2976 
     85 H85        19.8715  -25.1321  -40.2559 H         1 UNK         0.3116 
     86 H86        19.8237  -25.6834  -37.4174 H         1 UNK         0.0646 
     87 H87        20.4249  -23.1011  -38.9635 H         1 UNK         0.0847 
     88 H88        20.1156  -23.2118  -37.2373 H         1 UNK         0.0847 
     89 H89        18.8397  -23.6072  -38.3752 H         1 UNK         0.0847 
     90 H90        22.3931  -25.4478  -39.8000 H         1 UNK         0.3040 
     91 H91        24.4319  -25.7748  -37.6556 H         1 UNK         0.1015 
     92 H92        24.6045  -23.6939  -39.9022 H         1 UNK         0.0786 
     93 H93        25.9012  -24.0945  -38.7823 H         1 UNK         0.0786 
     94 H94        24.4291  -23.3488  -38.1817 H         1 UNK         0.0786 
     95 H95        23.5017  -26.2167  -41.0694 H         1 UNK         0.3172 
     96 H96        25.8087  -28.0702  -41.4823 H         1 UNK         0.0595 
     97 H97        24.3096  -26.3719  -43.5483 H         1 UNK         0.0839 
     98 H98        25.7405  -27.3659  -43.8302 H         1 UNK         0.0839 
     99 H99        25.8565  -25.9307  -42.8373 H         1 UNK         0.0839 
    100 H100       24.2086  -28.6015  -44.0561 H         1 UNK         0.2998 
    101 H101       22.9541  -30.1168  -44.9893 H         1 UNK         0.0822 
    102 H102       21.0234  -29.0935  -43.7715 H         1 UNK         0.0787 
    103 H103       20.7909  -30.8089  -44.0704 H         1 UNK         0.0787 
    104 H104       21.2333  -30.2637  -42.4649 H         1 UNK         0.0787 
    105 H105       23.7973  -31.0589  -41.7055 H         1 UNK         0.3055 
    106 H106       24.7725  -32.7833  -40.7465 H         1 UNK         0.1106 
    107 H107       26.1315  -34.4258  -42.0004 H         1 UNK         0.0828 
    108 H108       25.4300  -33.9038  -43.5225 H         1 UNK         0.0828 
    109 H109       26.4368  -32.7998  -42.5880 H         1 UNK         0.0828 
    110 H110       22.7389  -33.9295  -43.4174 H         1 UNK         0.2931 
    111 H111       21.0509  -35.3305  -43.5878 H         1 UNK         0.0412 
    112 H112       23.7891  -36.6304  -42.9111 H         1 UNK         0.3472 
    113 H113       23.3177  -38.2789  -42.5738 H         1 UNK         0.3472 
    114 H114       20.6508  -35.0545  -40.5723 H         1 UNK         0.0970 
    115 H115       19.4580  -35.6300  -41.7007 H         1 UNK         0.0970 
    116 H116       18.4418  -34.1898  -43.6631 H         1 UNK         0.0612 
    117 H117       17.5134  -34.0177  -42.1882 H         1 UNK         0.0612 
@<TRIPOS>BOND
     1    1    2 1    
     2    1   62 1    
     3    1   63 1    
     4    1   64 1    
     5    2    3 2    
     6    2    4 am   BACKBONE|DICT|INTERRES
     7    4    5 1    
     8    4   65 1    
     9    5    6 1    
    10    5   25 1    
    11    5   66 1    
    12    6    7 1    
    13    6   67 1    
    14    6   68 1    
    15    7    8 1    
    16    8    9 1    
    17    8   69 1    
    18    8   70 1    
    19    9   10 ar   
    20    9   14 ar   
    21   10   11 ar   
    22   10   71 1    
    23   11   12 ar   
    24   11   61 1    
    25   12   13 ar   
    26   12   72 1    
    27   13   14 ar   
    28   13   15 1    
    29   14   73 1    
    30   15   16 1    
    31   15   74 1    
    32   15   75 1    
    33   16   17 1    
    34   17   18 1    
    35   17   76 1    
    36   17   77 1    
    37   18   19 1    
    38   18   27 1    
    39   18   78 1    
    40   19   20 am   BACKBONE|DICT|INTERRES
    41   19   79 1    
    42   20   21 2    
    43   20   22 1    
    44   22   23 1    
    45   22   24 1    
    46   22   80 1    
    47   23   81 1    
    48   23   82 1    
    49   23   83 1    
    50   24   25 am   BACKBONE|DICT|INTERRES
    51   24   84 1    
    52   25   26 2    
    53   27   28 2    
    54   27   29 am   BACKBONE|DICT|INTERRES
    55   29   30 1    
    56   29   85 1    
    57   30   31 1    
    58   30   32 1    
    59   30   86 1    
    60   31   87 1    
    61   31   88 1    
    62   31   89 1    
    63   32   33 2    
    64   32   34 am   BACKBONE|DICT|INTERRES
    65   34   35 1    
    66   34   90 1    
    67   35   36 1    
    68   35   37 1    
    69   35   91 1    
    70   36   92 1    
    71   36   93 1    
    72   36   94 1    
    73   37   38 2    
    74   37   39 am   BACKBONE|DICT|INTERRES
    75   39   40 1    
    76   39   95 1    
    77   40   41 1    
    78   40   42 1    
    79   40   96 1    
    80   41   97 1    
    81   41   98 1    
    82   41   99 1    
    83   42   43 2    
    84   42   44 am   BACKBONE|DICT|INTERRES
    85   44   45 1    
    86   44  100 1    
    87   45   46 1    
    88   45   47 1    
    89   45  101 1    
    90   46  102 1    
    91   46  103 1    
    92   46  104 1    
    93   47   48 2    
    94   47   49 am   BACKBONE|DICT|INTERRES
    95   49   50 1    
    96   49  105 1    
    97   50   51 1    
    98   50   52 1    
    99   50  106 1    
   100   51  107 1    
   101   51  108 1    
   102   51  109 1    
   103   52   53 2    
   104   52   54 am   BACKBONE|DICT|INTERRES
   105   54   55 1    
   106   54  110 1    
   107   55   56 1    
   108   55   59 1    
   109   55  111 1    
   110   56   57 am   BACKBONE|DICT|INTERRES
   111   56   58 2    
   112   57  112 1    
   113   57  113 1    
   114   59   60 1    
   115   59  114 1    
   116   59  115 1    
   117   60   61 1    
   118   61  116 1    
   119   61  117 1    
@<TRIPOS>SUBSTRUCTURE
     1 UNK         1 GROUP             0       ****    0 ROOT    
