@<TRIPOS>MOLECULE
3R8
117   119    1
SMALL
USER_CHARGES


@<TRIPOS>ATOM
      1 CA         14.4580  -24.4255  -42.0289 C.3       0 UNK        -0.2013 
      2 C          15.3729  -24.3986  -43.2443 C.2       0 UNK         0.4866 
      3 O          15.5593  -23.3408  -43.8473 O.2       0 UNK        -0.5176 
      4 N          15.9375  -25.5547  -43.6137 N.am      1 UNK        -0.4884 
      5 CA         16.8893  -25.7037  -44.7190 C.3       1 UNK         0.0853 
      6 C6         17.0912  -27.1904  -45.0983 C.3       10 UNK        -0.0849 
      7 S7         15.6438  -27.9033  -45.9546 S.3       10 UNK        -0.2776 
      8 C8         15.5292  -29.5926  -45.2551 C.3       10 UNK         0.0316 
      9 C9         16.8691  -30.3155  -45.1152 C.ar      10 UNK        -0.0863 
     10 C10        17.1330  -31.0537  -43.9563 C.ar      10 UNK        -0.1009 
     11 C11        18.3783  -31.6591  -43.7618 C.ar      10 UNK        -0.0712 
     12 C12        19.3686  -31.5156  -44.7374 C.ar      10 UNK        -0.0894 
     13 C13        19.1155  -30.7929  -45.9067 C.ar      10 UNK        -0.0745 
     14 C14        17.8550  -30.2240  -46.1052 C.ar      10 UNK        -0.0972 
     15 C15        20.2283  -30.5632  -46.9194 C.3       10 UNK         0.0209 
     16 S16        20.8739  -28.8574  -46.8360 S.3       10 UNK        -0.2568 
     17 C17        21.3208  -28.7367  -45.0706 C.3       10 UNK        -0.0983 
     18 CA         21.9544  -27.3836  -44.6680 C.3       3 UNK         0.0876 
     19 N          21.0924  -26.2602  -45.0454 N.am      3 UNK        -0.4424 
     20 C          21.3986  -24.9581  -44.9808 C.2       2 UNK         0.4918 
     21 O          22.5030  -24.5317  -44.6451 O.2       2 UNK        -0.4875 
     22 CA         20.2792  -23.9573  -45.3371 C.3       2 UNK         0.0481 
     23 CB         20.5915  -23.2581  -46.6703 C.3       2 UNK        -0.1831 
     24 N          18.9349  -24.5478  -45.4109 N.am      2 UNK        -0.4498 
     25 C          18.2513  -25.0637  -44.3779 C.2       1 UNK         0.5027 
     26 O          18.6901  -25.1152  -43.2257 O.2       1 UNK        -0.4969 
     27 C          22.2883  -27.4238  -43.1596 C.2       3 UNK         0.5005 
     28 O          23.2345  -28.1183  -42.7892 O.2       3 UNK        -0.5279 
     29 N          21.5020  -26.7260  -42.3210 N.am      4 UNK        -0.4463 
     30 CA         21.5944  -26.6926  -40.8565 C.3       4 UNK         0.0283 
     31 CB         20.6500  -25.6061  -40.3190 C.3       4 UNK        -0.1875 
     32 C          23.0215  -26.4727  -40.3214 C.2       4 UNK         0.4949 
     33 O          23.7668  -25.6569  -40.8676 O.2       4 UNK        -0.5039 
     34 N          23.3731  -27.2364  -39.2789 N.am      5 UNK        -0.4663 
     35 CA         24.6854  -27.3584  -38.6242 C.3       5 UNK         0.0242 
     36 CB         25.1862  -26.0070  -38.0768 C.3       5 UNK        -0.1982 
     37 C          25.7660  -28.0513  -39.4783 C.2       5 UNK         0.5017 
     38 O          26.5260  -28.8507  -38.9313 O.2       5 UNK        -0.5012 
     39 N          25.8204  -27.7559  -40.7839 N.am      6 UNK        -0.4439 
     40 CA         26.7537  -28.3560  -41.7419 C.3       6 UNK         0.0297 
     41 CB         26.7914  -27.5104  -43.0256 C.3       6 UNK        -0.2006 
     42 C          26.4091  -29.8215  -42.0591 C.2       6 UNK         0.4892 
     43 O          27.2976  -30.6740  -42.0416 O.2       6 UNK        -0.5089 
     44 N          25.1259  -30.0821  -42.3253 N.am      7 UNK        -0.4243 
     45 CA         24.5473  -31.3931  -42.5936 C.3       7 UNK         0.0196 
     46 CB         24.4972  -31.6400  -44.1134 C.3       7 UNK        -0.2007 
     47 C          23.1673  -31.4185  -41.9278 C.2       7 UNK         0.5020 
     48 O          22.1426  -31.3674  -42.6060 O.2       7 UNK        -0.5147 
     49 N          23.1751  -31.4480  -40.5893 N.am      8 UNK        -0.4734 
     50 CA         21.9945  -31.3238  -39.7259 C.3       8 UNK         0.0238 
     51 CB         22.4682  -30.9624  -38.3067 C.3       8 UNK        -0.1912 
     52 C          21.0650  -32.5551  -39.6892 C.2       8 UNK         0.5038 
     53 O          20.0481  -32.5004  -38.9966 O.2       8 UNK        -0.5046 
     54 N          21.4171  -33.6315  -40.4068 N.am      9 UNK        -0.4200 
     55 CA         20.6899  -34.9141  -40.4764 C.3       9 UNK         0.0839 
     56 C          20.7272  -35.7453  -39.1560 C.2       9 UNK         0.5513 
     57 N          21.6265  -35.4624  -38.2208 N.am      9 UNK        -0.7519 
     58 O          19.9535  -36.6843  -38.9852 O.2       9 UNK        -0.4960 
     59 C59        19.2494  -34.7838  -41.0594 C.3       10 UNK        -0.0876 
     60 S60        19.2047  -34.1240  -42.7615 S.3       10 UNK        -0.2414 
     61 C61        18.6743  -32.4061  -42.4683 C.3       10 UNK         0.0169 
     62 H62        13.4593  -24.0868  -42.3033 H         1 UNK         0.0903 
     63 H63        14.3720  -25.4258  -41.6047 H         1 UNK         0.0903 
     64 H64        14.8429  -23.7614  -41.2554 H         1 UNK         0.0903 
     65 H65        15.7590  -26.3900  -43.0752 H         1 UNK         0.3096 
     66 H66        16.4807  -25.1744  -45.5833 H         1 UNK         0.1121 
     67 H67        17.3323  -27.7767  -44.2092 H         1 UNK         0.0849 
     68 H68        17.9386  -27.3110  -45.7765 H         1 UNK         0.0849 
     69 H69        15.0380  -29.5183  -44.2836 H         1 UNK         0.0865 
     70 H70        14.8705  -30.1911  -45.8855 H         1 UNK         0.0865 
     71 H71        16.3755  -31.1344  -43.1885 H         1 UNK         0.1346 
     72 H72        20.3477  -31.9435  -44.5670 H         1 UNK         0.1412 
     73 H73        17.6667  -29.6533  -47.0043 H         1 UNK         0.1426 
     74 H74        19.8537  -30.7555  -47.9257 H         1 UNK         0.0716 
     75 H75        21.0491  -31.2635  -46.7564 H         1 UNK         0.0716 
     76 H76        21.9960  -29.5621  -44.8390 H         1 UNK         0.0695 
     77 H77        20.4201  -28.9051  -44.4773 H         1 UNK         0.0695 
     78 H78        22.9001  -27.2690  -45.2017 H         1 UNK         0.0983 
     79 H79        20.1758  -26.5121  -45.3800 H         1 UNK         0.3095 
     80 H80        20.2651  -23.1997  -44.5510 H         1 UNK         0.0454 
     81 H81        20.6069  -23.9628  -47.5027 H         1 UNK         0.0851 
     82 H82        21.5678  -22.7723  -46.6383 H         1 UNK         0.0851 
     83 H83        19.8572  -22.4848  -46.8962 H         1 UNK         0.0851 
     84 H84        18.5078  -24.5588  -46.3269 H         1 UNK         0.2976 
     85 H85        20.7522  -26.1815  -42.7271 H         1 UNK         0.3116 
     86 H86        21.2388  -27.6624  -40.5029 H         1 UNK         0.0646 
     87 H87        19.6160  -25.7981  -40.6065 H         1 UNK         0.0847 
     88 H88        20.9229  -24.6181  -40.6924 H         1 UNK         0.0847 
     89 H89        20.6791  -25.5627  -39.2293 H         1 UNK         0.0847 
     90 H90        22.6703  -27.8676  -38.9203 H         1 UNK         0.3040 
     91 H91        24.5194  -28.0076  -37.7626 H         1 UNK         0.1015 
     92 H92        25.4305  -25.3044  -38.8738 H         1 UNK         0.0786 
     93 H93        26.0903  -26.1425  -37.4816 H         1 UNK         0.0786 
     94 H94        24.4417  -25.5391  -37.4327 H         1 UNK         0.0786 
     95 H95        25.1466  -27.0842  -41.1404 H         1 UNK         0.3172 
     96 H96        27.7519  -28.3371  -41.2991 H         1 UNK         0.0595 
     97 H97        25.8139  -27.4563  -43.5064 H         1 UNK         0.0839 
     98 H98        27.4882  -27.9334  -43.7506 H         1 UNK         0.0839 
     99 H99        27.1185  -26.4913  -42.8190 H         1 UNK         0.0839 
    100 H100       24.4601  -29.3067  -42.3476 H         1 UNK         0.2998 
    101 H101       25.1529  -32.1764  -42.1326 H         1 UNK         0.0822 
    102 H102       25.5000  -31.6809  -44.5387 H         1 UNK         0.0787 
    103 H103       24.0075  -32.5878  -44.3400 H         1 UNK         0.0787 
    104 H104       23.9484  -30.8538  -44.6318 H         1 UNK         0.0787 
    105 H105       24.0698  -31.4885  -40.1213 H         1 UNK         0.3055 
    106 H106       21.3918  -30.4959  -40.1067 H         1 UNK         0.1106 
    107 H107       23.0443  -31.7718  -37.8567 H         1 UNK         0.0828 
    108 H108       21.6221  -30.7615  -37.6478 H         1 UNK         0.0828 
    109 H109       23.0928  -30.0702  -38.3075 H         1 UNK         0.0828 
    110 H110       22.2654  -33.5775  -40.9497 H         1 UNK         0.2931 
    111 H111       21.2597  -35.5178  -41.1836 H         1 UNK         0.0412 
    112 H112       22.2793  -34.7064  -38.3499 H         1 UNK         0.3472 
    113 H113       21.6503  -36.0126  -37.3763 H         1 UNK         0.3472 
    114 H114       18.6157  -34.1839  -40.4051 H         1 UNK         0.0970 
    115 H115       18.7723  -35.7644  -41.1032 H         1 UNK         0.0970 
    116 H116       17.7976  -32.4102  -41.8189 H         1 UNK         0.0612 
    117 H117       19.4578  -31.8703  -41.9340 H         1 UNK         0.0612 
@<TRIPOS>BOND
     1    1    2 1    
     2    1   62 1    
     3    1   63 1    
     4    1   64 1    
     5    2    3 2    
     6    2    4 am   BACKBONE|DICT|INTERRES
     7    4    5 1    
     8    4   65 1    
     9    5    6 1    
    10    5   25 1    
    11    5   66 1    
    12    6    7 1    
    13    6   67 1    
    14    6   68 1    
    15    7    8 1    
    16    8    9 1    
    17    8   69 1    
    18    8   70 1    
    19    9   10 ar   
    20    9   14 ar   
    21   10   11 ar   
    22   10   71 1    
    23   11   12 ar   
    24   11   61 1    
    25   12   13 ar   
    26   12   72 1    
    27   13   14 ar   
    28   13   15 1    
    29   14   73 1    
    30   15   16 1    
    31   15   74 1    
    32   15   75 1    
    33   16   17 1    
    34   17   18 1    
    35   17   76 1    
    36   17   77 1    
    37   18   19 1    
    38   18   27 1    
    39   18   78 1    
    40   19   20 am   BACKBONE|DICT|INTERRES
    41   19   79 1    
    42   20   21 2    
    43   20   22 1    
    44   22   23 1    
    45   22   24 1    
    46   22   80 1    
    47   23   81 1    
    48   23   82 1    
    49   23   83 1    
    50   24   25 am   BACKBONE|DICT|INTERRES
    51   24   84 1    
    52   25   26 2    
    53   27   28 2    
    54   27   29 am   BACKBONE|DICT|INTERRES
    55   29   30 1    
    56   29   85 1    
    57   30   31 1    
    58   30   32 1    
    59   30   86 1    
    60   31   87 1    
    61   31   88 1    
    62   31   89 1    
    63   32   33 2    
    64   32   34 am   BACKBONE|DICT|INTERRES
    65   34   35 1    
    66   34   90 1    
    67   35   36 1    
    68   35   37 1    
    69   35   91 1    
    70   36   92 1    
    71   36   93 1    
    72   36   94 1    
    73   37   38 2    
    74   37   39 am   BACKBONE|DICT|INTERRES
    75   39   40 1    
    76   39   95 1    
    77   40   41 1    
    78   40   42 1    
    79   40   96 1    
    80   41   97 1    
    81   41   98 1    
    82   41   99 1    
    83   42   43 2    
    84   42   44 am   BACKBONE|DICT|INTERRES
    85   44   45 1    
    86   44  100 1    
    87   45   46 1    
    88   45   47 1    
    89   45  101 1    
    90   46  102 1    
    91   46  103 1    
    92   46  104 1    
    93   47   48 2    
    94   47   49 am   BACKBONE|DICT|INTERRES
    95   49   50 1    
    96   49  105 1    
    97   50   51 1    
    98   50   52 1    
    99   50  106 1    
   100   51  107 1    
   101   51  108 1    
   102   51  109 1    
   103   52   53 2    
   104   52   54 am   BACKBONE|DICT|INTERRES
   105   54   55 1    
   106   54  110 1    
   107   55   56 1    
   108   55   59 1    
   109   55  111 1    
   110   56   57 am   BACKBONE|DICT|INTERRES
   111   56   58 2    
   112   57  112 1    
   113   57  113 1    
   114   59   60 1    
   115   59  114 1    
   116   59  115 1    
   117   60   61 1    
   118   61  116 1    
   119   61  117 1    
@<TRIPOS>SUBSTRUCTURE
     1 UNK         1 GROUP             0       ****    0 ROOT    
