@<TRIPOS>MOLECULE
3R8
117   119    1
SMALL
USER_CHARGES


@<TRIPOS>ATOM
      1 CA         16.8776  -24.1200  -40.3428 C.3       0 UNK        -0.2013 
      2 C          17.4163  -24.8749  -41.5482 C.2       0 UNK         0.4866 
      3 O          17.0329  -24.5788  -42.6809 O.2       0 UNK        -0.5176 
      4 N          18.3119  -25.8440  -41.3211 N.am      1 UNK        -0.4884 
      5 CA         18.9281  -26.6979  -42.3448 C.3       1 UNK         0.0853 
      6 C6         19.4259  -28.0413  -41.7501 C.3       10 UNK        -0.0849 
      7 S7         18.1235  -29.0040  -40.9030 S.3       10 UNK        -0.2776 
      8 C8         17.1356  -29.6886  -42.2766 C.3       10 UNK         0.0316 
      9 C9         17.9948  -30.3648  -43.3350 C.ar      10 UNK        -0.0863 
     10 C10        18.6386  -31.5717  -43.0595 C.ar      10 UNK        -0.1009 
     11 C11        19.4608  -32.1732  -44.0178 C.ar      10 UNK        -0.0712 
     12 C12        19.6329  -31.5516  -45.2598 C.ar      10 UNK        -0.0894 
     13 C13        19.0108  -30.3309  -45.5470 C.ar      10 UNK        -0.0745 
     14 C14        18.1720  -29.7592  -44.5804 C.ar      10 UNK        -0.0972 
     15 C15        19.2986  -29.6589  -46.8941 C.3       10 UNK         0.0209 
     16 S16        18.7805  -27.9085  -47.0040 S.3       10 UNK        -0.2568 
     17 C17        20.0231  -27.1803  -48.1288 C.3       10 UNK        -0.0983 
     18 CA         21.1527  -26.3981  -47.4027 C.3       3 UNK         0.0876 
     19 N          20.6343  -25.5561  -46.3178 N.am      3 UNK        -0.4424 
     20 C          21.3137  -24.6007  -45.6713 C.2       2 UNK         0.4918 
     21 O          22.4631  -24.2656  -45.9530 O.2       2 UNK        -0.4875 
     22 CA         20.6072  -23.9367  -44.4759 C.3       2 UNK         0.0481 
     23 CB         19.8388  -22.6872  -44.9321 C.3       2 UNK        -0.1831 
     24 N          19.6967  -24.8287  -43.7482 N.am      2 UNK        -0.4498 
     25 C          20.0493  -25.9484  -43.1018 C.2       1 UNK         0.5027 
     26 O          21.2061  -26.3753  -43.0812 O.2       1 UNK        -0.4969 
     27 C          22.2958  -27.3326  -46.9493 C.2       3 UNK         0.5005 
     28 O          23.2007  -27.6007  -47.7413 O.2       3 UNK        -0.5279 
     29 N          22.2486  -27.7957  -45.6922 N.am      4 UNK        -0.4463 
     30 CA         23.2944  -28.6117  -45.0680 C.3       4 UNK         0.0283 
     31 CB         22.6373  -29.5889  -44.0809 C.3       4 UNK        -0.1875 
     32 C          24.3534  -27.7622  -44.3418 C.2       4 UNK         0.4949 
     33 O          25.4152  -28.2915  -44.0134 O.2       4 UNK        -0.5039 
     34 N          24.0397  -26.4796  -44.0986 N.am      5 UNK        -0.4663 
     35 CA         24.7485  -25.5254  -43.2388 C.3       5 UNK         0.0242 
     36 CB         26.1689  -25.2284  -43.7663 C.3       5 UNK        -0.1982 
     37 C          24.7140  -25.9788  -41.7663 C.2       5 UNK         0.5017 
     38 O          25.7594  -26.0571  -41.1177 O.2       5 UNK        -0.5012 
     39 N          23.4957  -26.2779  -41.2872 N.am      6 UNK        -0.4439 
     40 CA         23.1639  -26.8840  -39.9911 C.3       6 UNK         0.0297 
     41 CB         23.6914  -26.0417  -38.8066 C.3       6 UNK        -0.2006 
     42 C          23.5759  -28.3701  -39.9386 C.2       6 UNK         0.4892 
     43 O          23.7391  -28.9859  -40.9924 O.2       6 UNK        -0.5089 
     44 N          23.6893  -28.9293  -38.7220 N.am      7 UNK        -0.4243 
     45 CA         23.9891  -30.3393  -38.4222 C.3       7 UNK         0.0196 
     46 CB         25.4426  -30.6847  -38.8129 C.3       7 UNK        -0.2007 
     47 C          22.9518  -31.2900  -39.0537 C.2       7 UNK         0.5020 
     48 O          23.2910  -32.0980  -39.9205 O.2       7 UNK        -0.5147 
     49 N          21.6906  -31.1200  -38.6316 N.am      8 UNK        -0.4734 
     50 CA         20.5010  -31.7898  -39.1662 C.3       8 UNK         0.0238 
     51 CB         19.2708  -31.3338  -38.3641 C.3       8 UNK        -0.1912 
     52 C          20.5920  -33.3270  -39.1605 C.2       8 UNK         0.5038 
     53 O          20.9927  -33.9161  -38.1539 O.2       8 UNK        -0.5046 
     54 N          20.1822  -33.9326  -40.2791 N.am      9 UNK        -0.4200 
     55 CA         20.1205  -35.3836  -40.5088 C.3       9 UNK         0.0839 
     56 C          18.8925  -36.0961  -39.8686 C.2       9 UNK         0.5513 
     57 N          17.9366  -35.3856  -39.2813 N.am      9 UNK        -0.7519 
     58 O          18.8148  -37.3218  -39.8919 O.2       9 UNK        -0.4960 
     59 C59        20.2789  -35.7180  -42.0199 C.3       10 UNK        -0.0876 
     60 S60        19.1319  -34.7907  -43.1044 S.3       10 UNK        -0.2414 
     61 C61        20.2234  -33.4495  -43.6852 C.3       10 UNK         0.0169 
     62 H62        17.1098  -23.0590  -40.4305 H         1 UNK         0.0903 
     63 H63        15.7948  -24.2286  -40.2864 H         1 UNK         0.0903 
     64 H64        17.3041  -24.4851  -39.4087 H         1 UNK         0.0903 
     65 H65        18.5931  -26.0417  -40.3711 H         1 UNK         0.3096 
     66 H66        18.1676  -26.9368  -43.0911 H         1 UNK         0.1121 
     67 H67        19.8811  -28.6633  -42.5214 H         1 UNK         0.0849 
     68 H68        20.2174  -27.8610  -41.0220 H         1 UNK         0.0849 
     69 H69        16.4238  -30.4108  -41.8741 H         1 UNK         0.0865 
     70 H70        16.5369  -28.8887  -42.7147 H         1 UNK         0.0865 
     71 H71        18.5076  -32.0309  -42.0904 H         1 UNK         0.1346 
     72 H72        20.2852  -32.0017  -45.9960 H         1 UNK         0.1412 
     73 H73        17.6653  -28.8258  -44.7748 H         1 UNK         0.1426 
     74 H74        18.8047  -30.2211  -47.6875 H         1 UNK         0.0716 
     75 H75        20.3702  -29.7219  -47.0884 H         1 UNK         0.0716 
     76 H76        19.4853  -26.4900  -48.7804 H         1 UNK         0.0695 
     77 H77        20.4241  -27.9466  -48.7955 H         1 UNK         0.0695 
     78 H78        21.5993  -25.7225  -48.1361 H         1 UNK         0.0983 
     79 H79        19.6900  -25.7618  -46.0241 H         1 UNK         0.3095 
     80 H80        21.3822  -23.6206  -43.7745 H         1 UNK         0.0454 
     81 H81        20.4976  -21.9919  -45.4546 H         1 UNK         0.0851 
     82 H82        19.4132  -22.1512  -44.0836 H         1 UNK         0.0851 
     83 H83        19.0244  -22.9390  -45.6125 H         1 UNK         0.0851 
     84 H84        18.7260  -24.5376  -43.6666 H         1 UNK         0.2976 
     85 H85        21.4799  -27.5163  -45.0978 H         1 UNK         0.3116 
     86 H86        23.8087  -29.1996  -45.8312 H         1 UNK         0.0646 
     87 H87        22.1098  -29.0642  -43.2842 H         1 UNK         0.0847 
     88 H88        21.9298  -30.2448  -44.5830 H         1 UNK         0.0847 
     89 H89        23.3843  -30.2249  -43.6037 H         1 UNK         0.0847 
     90 H90        23.1329  -26.1696  -44.4196 H         1 UNK         0.3040 
     91 H91        24.1834  -24.5928  -43.2854 H         1 UNK         0.1015 
     92 H92        26.6343  -24.4260  -43.1927 H         1 UNK         0.0786 
     93 H93        26.1451  -24.9106  -44.8087 H         1 UNK         0.0786 
     94 H94        26.8240  -26.0968  -43.6943 H         1 UNK         0.0786 
     95 H95        22.7231  -26.2509  -41.9489 H         1 UNK         0.3172 
     96 H96        22.0753  -26.8702  -39.9361 H         1 UNK         0.0595 
     97 H97        24.7695  -26.1456  -38.6787 H         1 UNK         0.0839 
     98 H98        23.2208  -26.3357  -37.8682 H         1 UNK         0.0839 
     99 H99        23.4747  -24.9828  -38.9482 H         1 UNK         0.0839 
    100 H100       23.5209  -28.3402  -37.9186 H         1 UNK         0.2998 
    101 H101       23.9055  -30.4583  -37.3407 H         1 UNK         0.0822 
    102 H102       26.1539  -30.0266  -38.3141 H         1 UNK         0.0787 
    103 H103       25.6071  -30.6012  -39.8878 H         1 UNK         0.0787 
    104 H104       25.6894  -31.7076  -38.5260 H         1 UNK         0.0787 
    105 H105       21.5243  -30.4365  -37.9075 H         1 UNK         0.3055 
    106 H106       20.3877  -31.4455  -40.1969 H         1 UNK         0.1106 
    107 H107       19.1738  -30.2483  -38.3615 H         1 UNK         0.0828 
    108 H108       18.3523  -31.7360  -38.7935 H         1 UNK         0.0828 
    109 H109       19.3198  -31.6667  -37.3264 H         1 UNK         0.0828 
    110 H110       19.8461  -33.3736  -41.0474 H         1 UNK         0.2931 
    111 H111       20.9861  -35.8197  -40.0062 H         1 UNK         0.0412 
    112 H112       17.1518  -35.8634  -38.8664 H         1 UNK         0.3472 
    113 H113       17.9897  -34.3811  -39.2499 H         1 UNK         0.3472 
    114 H114       20.1394  -36.7858  -42.1994 H         1 UNK         0.0970 
    115 H115       21.3050  -35.5149  -42.3301 H         1 UNK         0.0970 
    116 H116       20.9644  -33.2080  -42.9222 H         1 UNK         0.0612 
    117 H117       20.7819  -33.8093  -44.5508 H         1 UNK         0.0612 
@<TRIPOS>BOND
     1    1    2 1    
     2    1   62 1    
     3    1   63 1    
     4    1   64 1    
     5    2    3 2    
     6    2    4 am   BACKBONE|DICT|INTERRES
     7    4    5 1    
     8    4   65 1    
     9    5    6 1    
    10    5   25 1    
    11    5   66 1    
    12    6    7 1    
    13    6   67 1    
    14    6   68 1    
    15    7    8 1    
    16    8    9 1    
    17    8   69 1    
    18    8   70 1    
    19    9   10 ar   
    20    9   14 ar   
    21   10   11 ar   
    22   10   71 1    
    23   11   12 ar   
    24   11   61 1    
    25   12   13 ar   
    26   12   72 1    
    27   13   14 ar   
    28   13   15 1    
    29   14   73 1    
    30   15   16 1    
    31   15   74 1    
    32   15   75 1    
    33   16   17 1    
    34   17   18 1    
    35   17   76 1    
    36   17   77 1    
    37   18   19 1    
    38   18   27 1    
    39   18   78 1    
    40   19   20 am   BACKBONE|DICT|INTERRES
    41   19   79 1    
    42   20   21 2    
    43   20   22 1    
    44   22   23 1    
    45   22   24 1    
    46   22   80 1    
    47   23   81 1    
    48   23   82 1    
    49   23   83 1    
    50   24   25 am   BACKBONE|DICT|INTERRES
    51   24   84 1    
    52   25   26 2    
    53   27   28 2    
    54   27   29 am   BACKBONE|DICT|INTERRES
    55   29   30 1    
    56   29   85 1    
    57   30   31 1    
    58   30   32 1    
    59   30   86 1    
    60   31   87 1    
    61   31   88 1    
    62   31   89 1    
    63   32   33 2    
    64   32   34 am   BACKBONE|DICT|INTERRES
    65   34   35 1    
    66   34   90 1    
    67   35   36 1    
    68   35   37 1    
    69   35   91 1    
    70   36   92 1    
    71   36   93 1    
    72   36   94 1    
    73   37   38 2    
    74   37   39 am   BACKBONE|DICT|INTERRES
    75   39   40 1    
    76   39   95 1    
    77   40   41 1    
    78   40   42 1    
    79   40   96 1    
    80   41   97 1    
    81   41   98 1    
    82   41   99 1    
    83   42   43 2    
    84   42   44 am   BACKBONE|DICT|INTERRES
    85   44   45 1    
    86   44  100 1    
    87   45   46 1    
    88   45   47 1    
    89   45  101 1    
    90   46  102 1    
    91   46  103 1    
    92   46  104 1    
    93   47   48 2    
    94   47   49 am   BACKBONE|DICT|INTERRES
    95   49   50 1    
    96   49  105 1    
    97   50   51 1    
    98   50   52 1    
    99   50  106 1    
   100   51  107 1    
   101   51  108 1    
   102   51  109 1    
   103   52   53 2    
   104   52   54 am   BACKBONE|DICT|INTERRES
   105   54   55 1    
   106   54  110 1    
   107   55   56 1    
   108   55   59 1    
   109   55  111 1    
   110   56   57 am   BACKBONE|DICT|INTERRES
   111   56   58 2    
   112   57  112 1    
   113   57  113 1    
   114   59   60 1    
   115   59  114 1    
   116   59  115 1    
   117   60   61 1    
   118   61  116 1    
   119   61  117 1    
@<TRIPOS>SUBSTRUCTURE
     1 UNK         1 GROUP             0       ****    0 ROOT    
