@<TRIPOS>MOLECULE
3R8
117   119    1
SMALL
USER_CHARGES


@<TRIPOS>ATOM
      1 CA         15.5994  -22.9259  -44.8432 C.3       0 UNK        -0.2013 
      2 C          15.8202  -24.4244  -44.6977 C.2       0 UNK         0.4866 
      3 O          15.5519  -25.1726  -45.6375 O.2       0 UNK        -0.5176 
      4 N          16.3105  -24.8569  -43.5313 N.am      1 UNK        -0.4884 
      5 CA         16.6540  -26.2438  -43.2063 C.3       1 UNK         0.0853 
      6 C6         15.5813  -26.9168  -42.3078 C.3       10 UNK        -0.0849 
      7 S7         14.1524  -27.4619  -43.3030 S.3       10 UNK        -0.2776 
      8 C8         14.4242  -29.2628  -43.4421 C.3       10 UNK         0.0316 
      9 C9         15.8403  -29.6312  -43.8749 C.ar      10 UNK        -0.0863 
     10 C10        16.6612  -30.3675  -43.0168 C.ar      10 UNK        -0.1009 
     11 C11        17.9575  -30.7205  -43.3997 C.ar      10 UNK        -0.0712 
     12 C12        18.4438  -30.3177  -44.6487 C.ar      10 UNK        -0.0894 
     13 C13        17.6316  -29.5805  -45.5175 C.ar      10 UNK        -0.0745 
     14 C14        16.3273  -29.2534  -45.1301 C.ar      10 UNK        -0.0972 
     15 C15        18.1368  -29.1618  -46.8911 C.3       10 UNK         0.0209 
     16 S16        18.6877  -27.4233  -46.9123 S.3       10 UNK        -0.2568 
     17 C17        20.5108  -27.5583  -46.8997 C.3       10 UNK        -0.0983 
     18 CA         21.1461  -26.8989  -45.6519 C.3       3 UNK         0.0876 
     19 N          20.6467  -27.5179  -44.4196 N.am      3 UNK        -0.4424 
     20 C          20.9748  -27.2048  -43.1590 C.2       2 UNK         0.4918 
     21 O          21.9265  -26.4911  -42.8445 O.2       2 UNK        -0.4875 
     22 CA         20.0209  -27.7606  -42.0846 C.3       2 UNK         0.0481 
     23 CB         20.3675  -27.2886  -40.6570 C.3       2 UNK        -0.1831 
     24 N          18.6201  -27.4787  -42.4348 N.am      2 UNK        -0.4498 
     25 C          18.0520  -26.2678  -42.5648 C.2       1 UNK         0.5027 
     26 O          18.5924  -25.2084  -42.2340 O.2       1 UNK        -0.4969 
     27 C          22.6823  -26.8420  -45.7930 C.2       3 UNK         0.5005 
     28 O          23.2013  -25.8389  -46.2854 O.2       3 UNK        -0.5279 
     29 N          23.3817  -27.9009  -45.3616 N.am      4 UNK        -0.4463 
     30 CA         24.8465  -28.0013  -45.4192 C.3       4 UNK         0.0283 
     31 CB         25.2469  -29.4721  -45.6344 C.3       4 UNK        -0.1875 
     32 C          25.5590  -27.4140  -44.1827 C.2       4 UNK         0.4949 
     33 O          26.7886  -27.4692  -44.1365 O.2       4 UNK        -0.5039 
     34 N          24.7927  -26.8803  -43.2170 N.am      5 UNK        -0.4663 
     35 CA         25.1928  -26.3961  -41.8876 C.3       5 UNK         0.0242 
     36 CB         26.2851  -25.3085  -41.9791 C.3       5 UNK        -0.1982 
     37 C          25.5886  -27.5341  -40.9260 C.2       5 UNK         0.5017 
     38 O          25.7641  -28.6794  -41.3475 O.2       5 UNK        -0.5012 
     39 N          25.6935  -27.1895  -39.6315 N.am      6 UNK        -0.4439 
     40 CA         25.9987  -28.0796  -38.4997 C.3       6 UNK         0.0297 
     41 CB         27.4681  -28.5491  -38.5583 C.3       6 UNK        -0.2006 
     42 C          24.9984  -29.2482  -38.3941 C.2       6 UNK         0.4892 
     43 O          25.3990  -30.4135  -38.3990 O.2       6 UNK        -0.5089 
     44 N          23.7023  -28.9009  -38.3795 N.am      7 UNK        -0.4243 
     45 CA         22.5108  -29.7657  -38.4259 C.3       7 UNK         0.0196 
     46 CB         22.4784  -30.7737  -37.2604 C.3       7 UNK        -0.2007 
     47 C          22.2895  -30.4741  -39.7755 C.2       7 UNK         0.5020 
     48 O          21.1373  -30.6298  -40.1782 O.2       7 UNK        -0.5147 
     49 N          23.3739  -30.8738  -40.4535 N.am      8 UNK        -0.4734 
     50 CA         23.4842  -31.4851  -41.7871 C.3       8 UNK         0.0238 
     51 CB         22.9508  -30.5368  -42.8771 C.3       8 UNK        -0.1912 
     52 C          22.8689  -32.8902  -41.9190 C.2       8 UNK         0.5038 
     53 O          23.5164  -33.7808  -42.4701 O.2       8 UNK        -0.5046 
     54 N          21.6472  -33.0648  -41.4095 N.am      9 UNK        -0.4200 
     55 CA         20.8995  -34.3293  -41.3694 C.3       9 UNK         0.0839 
     56 C          21.3473  -35.2925  -40.2305 C.2       9 UNK         0.5513 
     57 N          22.2255  -34.8919  -39.3183 N.am      9 UNK        -0.7519 
     58 O          20.8935  -36.4328  -40.1797 O.2       9 UNK        -0.4960 
     59 C59        19.3705  -34.0709  -41.3167 C.3       10 UNK        -0.0876 
     60 S60        18.7171  -33.3150  -42.8453 S.3       10 UNK        -0.2414 
     61 C61        18.8209  -31.5424  -42.4568 C.3       10 UNK         0.0169 
     62 H62        14.5506  -22.7208  -45.0562 H         1 UNK         0.0903 
     63 H63        15.8738  -22.3825  -43.9390 H         1 UNK         0.0903 
     64 H64        16.1971  -22.5369  -45.6671 H         1 UNK         0.0903 
     65 H65        16.5967  -24.1879  -42.8278 H         1 UNK         0.3096 
     66 H66        16.7589  -26.8053  -44.1358 H         1 UNK         0.1121 
     67 H67        15.9749  -27.7780  -41.7656 H         1 UNK         0.0849 
     68 H68        15.2333  -26.2241  -41.5396 H         1 UNK         0.0849 
     69 H69        14.1807  -29.7251  -42.4841 H         1 UNK         0.0865 
     70 H70        13.7145  -29.6716  -44.1628 H         1 UNK         0.0865 
     71 H71        16.2878  -30.6799  -42.0506 H         1 UNK         0.1346 
     72 H72        19.4441  -30.5984  -44.9500 H         1 UNK         0.1412 
     73 H73        15.6939  -28.6864  -45.7999 H         1 UNK         0.1426 
     74 H74        17.3289  -29.2724  -47.6162 H         1 UNK         0.0716 
     75 H75        18.9295  -29.8282  -47.2330 H         1 UNK         0.0716 
     76 H76        20.8721  -27.0758  -47.8103 H         1 UNK         0.0695 
     77 H77        20.8138  -28.6039  -46.9738 H         1 UNK         0.0695 
     78 H78        20.8113  -25.8596  -45.6192 H         1 UNK         0.0983 
     79 H79        19.8325  -28.0989  -44.5539 H         1 UNK         0.3095 
     80 H80        20.1302  -28.8441  -42.1021 H         1 UNK         0.0454 
     81 H81        21.3860  -27.5750  -40.3947 H         1 UNK         0.0851 
     82 H82        19.7038  -27.7399  -39.9199 H         1 UNK         0.0851 
     83 H83        20.3049  -26.2056  -40.5517 H         1 UNK         0.0851 
     84 H84        18.0781  -28.2855  -42.7171 H         1 UNK         0.2976 
     85 H85        22.8799  -28.6816  -44.9657 H         1 UNK         0.3116 
     86 H86        25.2043  -27.4400  -46.2851 H         1 UNK         0.0646 
     87 H87        25.0638  -30.0798  -44.7493 H         1 UNK         0.0847 
     88 H88        24.7105  -29.9175  -46.4723 H         1 UNK         0.0847 
     89 H89        26.3117  -29.5526  -45.8573 H         1 UNK         0.0847 
     90 H90        23.7882  -26.8743  -43.3654 H         1 UNK         0.3040 
     91 H91        24.2960  -25.9336  -41.4717 H         1 UNK         0.1015 
     92 H92        26.4229  -24.8057  -41.0215 H         1 UNK         0.0786 
     93 H93        26.0213  -24.5420  -42.7079 H         1 UNK         0.0786 
     94 H94        27.2526  -25.7231  -42.2634 H         1 UNK         0.0786 
     95 H95        25.5240  -26.2234  -39.3862 H         1 UNK         0.3172 
     96 H96        25.8788  -27.4868  -37.5916 H         1 UNK         0.0595 
     97 H97        27.6620  -29.1697  -39.4340 H         1 UNK         0.0839 
     98 H98        27.7238  -29.1413  -37.6787 H         1 UNK         0.0839 
     99 H99        28.1544  -27.7030  -38.5895 H         1 UNK         0.0839 
    100 H100       23.5024  -27.9107  -38.4110 H         1 UNK         0.2998 
    101 H101       21.6606  -29.0946  -38.2930 H         1 UNK         0.0822 
    102 H102       21.5305  -31.3134  -37.2428 H         1 UNK         0.0787 
    103 H103       22.5830  -30.2716  -36.2987 H         1 UNK         0.0787 
    104 H104       23.2699  -31.5194  -37.3382 H         1 UNK         0.0787 
    105 H105       24.2614  -30.7322  -39.9780 H         1 UNK         0.3055 
    106 H106       24.5552  -31.6045  -41.9621 H         1 UNK         0.1106 
    107 H107       23.5044  -29.5984  -42.8746 H         1 UNK         0.0828 
    108 H108       23.0519  -30.9838  -43.8666 H         1 UNK         0.0828 
    109 H109       21.8993  -30.3001  -42.7375 H         1 UNK         0.0828 
    110 H110       21.2192  -32.2631  -40.9522 H         1 UNK         0.2931 
    111 H111       21.1075  -34.8636  -42.2985 H         1 UNK         0.0412 
    112 H112       22.6129  -33.9633  -39.3556 H         1 UNK         0.3472 
    113 H113       22.5081  -35.5302  -38.5909 H         1 UNK         0.3472 
    114 H114       18.8302  -35.0104  -41.1845 H         1 UNK         0.0970 
    115 H115       19.1104  -33.4572  -40.4524 H         1 UNK         0.0970 
    116 H116       19.8579  -31.2247  -42.5357 H         1 UNK         0.0612 
    117 H117       18.5195  -31.3668  -41.4229 H         1 UNK         0.0612 
@<TRIPOS>BOND
     1    1    2 1    
     2    1   62 1    
     3    1   63 1    
     4    1   64 1    
     5    2    3 2    
     6    2    4 am   BACKBONE|DICT|INTERRES
     7    4    5 1    
     8    4   65 1    
     9    5    6 1    
    10    5   25 1    
    11    5   66 1    
    12    6    7 1    
    13    6   67 1    
    14    6   68 1    
    15    7    8 1    
    16    8    9 1    
    17    8   69 1    
    18    8   70 1    
    19    9   10 ar   
    20    9   14 ar   
    21   10   11 ar   
    22   10   71 1    
    23   11   12 ar   
    24   11   61 1    
    25   12   13 ar   
    26   12   72 1    
    27   13   14 ar   
    28   13   15 1    
    29   14   73 1    
    30   15   16 1    
    31   15   74 1    
    32   15   75 1    
    33   16   17 1    
    34   17   18 1    
    35   17   76 1    
    36   17   77 1    
    37   18   19 1    
    38   18   27 1    
    39   18   78 1    
    40   19   20 am   BACKBONE|DICT|INTERRES
    41   19   79 1    
    42   20   21 2    
    43   20   22 1    
    44   22   23 1    
    45   22   24 1    
    46   22   80 1    
    47   23   81 1    
    48   23   82 1    
    49   23   83 1    
    50   24   25 am   BACKBONE|DICT|INTERRES
    51   24   84 1    
    52   25   26 2    
    53   27   28 2    
    54   27   29 am   BACKBONE|DICT|INTERRES
    55   29   30 1    
    56   29   85 1    
    57   30   31 1    
    58   30   32 1    
    59   30   86 1    
    60   31   87 1    
    61   31   88 1    
    62   31   89 1    
    63   32   33 2    
    64   32   34 am   BACKBONE|DICT|INTERRES
    65   34   35 1    
    66   34   90 1    
    67   35   36 1    
    68   35   37 1    
    69   35   91 1    
    70   36   92 1    
    71   36   93 1    
    72   36   94 1    
    73   37   38 2    
    74   37   39 am   BACKBONE|DICT|INTERRES
    75   39   40 1    
    76   39   95 1    
    77   40   41 1    
    78   40   42 1    
    79   40   96 1    
    80   41   97 1    
    81   41   98 1    
    82   41   99 1    
    83   42   43 2    
    84   42   44 am   BACKBONE|DICT|INTERRES
    85   44   45 1    
    86   44  100 1    
    87   45   46 1    
    88   45   47 1    
    89   45  101 1    
    90   46  102 1    
    91   46  103 1    
    92   46  104 1    
    93   47   48 2    
    94   47   49 am   BACKBONE|DICT|INTERRES
    95   49   50 1    
    96   49  105 1    
    97   50   51 1    
    98   50   52 1    
    99   50  106 1    
   100   51  107 1    
   101   51  108 1    
   102   51  109 1    
   103   52   53 2    
   104   52   54 am   BACKBONE|DICT|INTERRES
   105   54   55 1    
   106   54  110 1    
   107   55   56 1    
   108   55   59 1    
   109   55  111 1    
   110   56   57 am   BACKBONE|DICT|INTERRES
   111   56   58 2    
   112   57  112 1    
   113   57  113 1    
   114   59   60 1    
   115   59  114 1    
   116   59  115 1    
   117   60   61 1    
   118   61  116 1    
   119   61  117 1    
@<TRIPOS>SUBSTRUCTURE
     1 UNK         1 GROUP             0       ****    0 ROOT    
