@<TRIPOS>MOLECULE
3R8
117   119    1
SMALL
USER_CHARGES


@<TRIPOS>ATOM
      1 CA         14.8615  -24.0989  -46.9747 C.3       0 UNK        -0.2013 
      2 C          15.9348  -25.1680  -47.1165 C.2       0 UNK         0.4866 
      3 O          16.0232  -25.8130  -48.1615 O.2       0 UNK        -0.5176 
      4 N          16.7510  -25.3597  -46.0761 N.am      1 UNK        -0.4884 
      5 CA         17.8594  -26.3109  -46.0282 C.3       1 UNK         0.0853 
      6 C6         17.3752  -27.7439  -45.6819 C.3       10 UNK        -0.0849 
      7 S7         18.4867  -29.0540  -46.3027 S.3       10 UNK        -0.2776 
      8 C8         19.4323  -29.5525  -44.8251 C.3       10 UNK         0.0316 
      9 C9         18.5596  -30.1555  -43.7350 C.ar      10 UNK        -0.0863 
     10 C10        18.1627  -31.4920  -43.8086 C.ar      10 UNK        -0.1009 
     11 C11        17.4272  -32.0719  -42.7719 C.ar      10 UNK        -0.0712 
     12 C12        17.0593  -31.2908  -41.6700 C.ar      10 UNK        -0.0894 
     13 C13        17.4152  -29.9387  -41.6012 C.ar      10 UNK        -0.0745 
     14 C14        18.1734  -29.3842  -42.6361 C.ar      10 UNK        -0.0972 
     15 C15        16.9327  -29.0753  -40.4378 C.3       10 UNK         0.0209 
     16 S16        18.2867  -28.3836  -39.4267 S.3       10 UNK        -0.2568 
     17 C17        18.6896  -26.8343  -40.3074 C.3       10 UNK        -0.0983 
     18 CA         20.1458  -26.8501  -40.8429 C.3       3 UNK         0.0876 
     19 N          20.2457  -26.3274  -42.2084 N.am      3 UNK        -0.4424 
     20 C          21.3333  -26.4301  -42.9811 C.2       2 UNK         0.4918 
     21 O          22.3380  -27.0622  -42.6429 O.2       2 UNK        -0.4875 
     22 CA         21.2903  -25.7098  -44.3468 C.3       2 UNK         0.0481 
     23 CB         22.5897  -25.9020  -45.1513 C.3       2 UNK        -0.1831 
     24 N          20.1575  -26.1170  -45.1867 N.am      2 UNK        -0.4498 
     25 C          18.8757  -25.7735  -45.0062 C.2       1 UNK         0.5027 
     26 O          18.4819  -25.0737  -44.0671 O.2       1 UNK        -0.4969 
     27 C          21.1128  -26.0882  -39.9139 C.2       3 UNK         0.5005 
     28 O          21.3085  -24.8839  -40.1001 O.2       3 UNK        -0.5279 
     29 N          21.7400  -26.8079  -38.9736 N.am      4 UNK        -0.4463 
     30 CA         22.8288  -26.3841  -38.0766 C.3       4 UNK         0.0283 
     31 CB         22.3978  -25.2234  -37.1585 C.3       4 UNK        -0.1875 
     32 C          24.1606  -26.0635  -38.7893 C.2       4 UNK         0.4949 
     33 O          25.2137  -26.4322  -38.2706 O.2       4 UNK        -0.5039 
     34 N          24.1001  -25.3999  -39.9517 N.am      5 UNK        -0.4663 
     35 CA         25.2393  -25.0531  -40.8040 C.3       5 UNK         0.0242 
     36 CB         24.7855  -24.0639  -41.8911 C.3       5 UNK        -0.1982 
     37 C          25.9100  -26.2948  -41.4136 C.2       5 UNK         0.5017 
     38 O          27.0979  -26.5171  -41.1764 O.2       5 UNK        -0.5012 
     39 N          25.1306  -27.0881  -42.1606 N.am      6 UNK        -0.4439 
     40 CA         25.5222  -28.4137  -42.6452 C.3       6 UNK         0.0297 
     41 CB         24.9807  -28.6395  -44.0665 C.3       6 UNK        -0.2006 
     42 C          25.0011  -29.4964  -41.6904 C.2       6 UNK         0.4892 
     43 O          25.7243  -30.4546  -41.4168 O.2       6 UNK        -0.5089 
     44 N          23.7662  -29.3105  -41.1946 N.am      7 UNK        -0.4243 
     45 CA         23.0366  -30.1049  -40.1936 C.3       7 UNK         0.0196 
     46 CB         23.7941  -30.1455  -38.8519 C.3       7 UNK        -0.2007 
     47 C          22.6385  -31.5241  -40.6359 C.2       7 UNK         0.5020 
     48 O          21.5167  -31.9426  -40.3519 O.2       7 UNK        -0.5147 
     49 N          23.5463  -32.2445  -41.3025 N.am      8 UNK        -0.4734 
     50 CA         23.3135  -33.5745  -41.8636 C.3       8 UNK         0.0238 
     51 CB         24.6590  -34.1913  -42.2787 C.3       8 UNK        -0.1912 
     52 C          22.3547  -33.5047  -43.0624 C.2       8 UNK         0.5038 
     53 O          22.5467  -32.6611  -43.9425 O.2       8 UNK        -0.5046 
     54 N          21.3559  -34.3935  -43.0765 N.am      9 UNK        -0.4200 
     55 CA         20.3666  -34.5063  -44.1553 C.3       9 UNK         0.0839 
     56 C          20.9689  -35.1208  -45.4478 C.2       9 UNK         0.5513 
     57 N          20.4588  -34.7403  -46.6111 N.am      9 UNK        -0.7519 
     58 O          21.8593  -35.9677  -45.4040 O.2       9 UNK        -0.4960 
     59 C59        19.1023  -35.2873  -43.7097 C.3       10 UNK        -0.0876 
     60 S60        18.3173  -34.6310  -42.1931 S.3       10 UNK        -0.2414 
     61 C61        17.0156  -33.5353  -42.8464 C.3       10 UNK         0.0169 
     62 H62        14.9898  -23.3342  -47.7403 H         1 UNK         0.0903 
     63 H63        13.8731  -24.5413  -47.0969 H         1 UNK         0.0903 
     64 H64        14.8967  -23.6124  -46.0000 H         1 UNK         0.0903 
     65 H65        16.6809  -24.7813  -45.2463 H         1 UNK         0.3096 
     66 H66        18.3396  -26.3126  -47.0100 H         1 UNK         0.1121 
     67 H67        16.4135  -27.9298  -46.1625 H         1 UNK         0.0849 
     68 H68        17.1774  -27.8546  -44.6163 H         1 UNK         0.0849 
     69 H69        20.1842  -30.2847  -45.1250 H         1 UNK         0.0865 
     70 H70        19.9925  -28.7049  -44.4340 H         1 UNK         0.0865 
     71 H71        18.4305  -32.0795  -44.6742 H         1 UNK         0.1346 
     72 H72        16.4779  -31.7352  -40.8736 H         1 UNK         0.1412 
     73 H73        18.4574  -28.3453  -42.5971 H         1 UNK         0.1426 
     74 H74        16.2964  -29.6650  -39.7761 H         1 UNK         0.0716 
     75 H75        16.2985  -28.2730  -40.8170 H         1 UNK         0.0716 
     76 H76        18.5085  -25.9940  -39.6336 H         1 UNK         0.0695 
     77 H77        17.9765  -26.6921  -41.1202 H         1 UNK         0.0695 
     78 H78        20.4889  -27.8854  -40.9049 H         1 UNK         0.0983 
     79 H79        19.4768  -25.7597  -42.5512 H         1 UNK         0.3095 
     80 H80        21.1916  -24.6434  -44.1339 H         1 UNK         0.0454 
     81 H81        22.7374  -26.9441  -45.4354 H         1 UNK         0.0851 
     82 H82        23.4640  -25.5936  -44.5776 H         1 UNK         0.0851 
     83 H83        22.5822  -25.3054  -46.0636 H         1 UNK         0.0851 
     84 H84        20.3827  -26.7169  -45.9681 H         1 UNK         0.2976 
     85 H85        21.4806  -27.7803  -38.8840 H         1 UNK         0.3116 
     86 H86        23.0220  -27.2429  -37.4319 H         1 UNK         0.0646 
     87 H87        22.2235  -24.3014  -37.7135 H         1 UNK         0.0847 
     88 H88        23.1696  -25.0098  -36.4179 H         1 UNK         0.0847 
     89 H89        21.4851  -25.4652  -36.6142 H         1 UNK         0.0847 
     90 H90        23.1775  -25.1038  -40.2604 H         1 UNK         0.3040 
     91 H91        25.9839  -24.5526  -40.1807 H         1 UNK         0.1015 
     92 H92        23.9636  -24.4603  -42.4871 H         1 UNK         0.0786 
     93 H93        25.6034  -23.8278  -42.5733 H         1 UNK         0.0786 
     94 H94        24.4508  -23.1242  -41.4512 H         1 UNK         0.0786 
     95 H95        24.1552  -26.8343  -42.2929 H         1 UNK         0.3172 
     96 H96        26.6107  -28.4912  -42.6864 H         1 UNK         0.0595 
     97 H97        25.3317  -29.5920  -44.4659 H         1 UNK         0.0839 
     98 H98        25.3166  -27.8583  -44.7484 H         1 UNK         0.0839 
     99 H99        23.8911  -28.6637  -44.0925 H         1 UNK         0.0839 
    100 H100       23.2460  -28.5276  -41.5761 H         1 UNK         0.2998 
    101 H101       22.1024  -29.5691  -40.0258 H         1 UNK         0.0822 
    102 H102       23.1789  -30.5951  -38.0714 H         1 UNK         0.0787 
    103 H103       24.7093  -30.7346  -38.9202 H         1 UNK         0.0787 
    104 H104       24.0702  -29.1472  -38.5164 H         1 UNK         0.0787 
    105 H105       24.4448  -31.8052  -41.4872 H         1 UNK         0.3055 
    106 H106       22.8701  -34.1988  -41.0844 H         1 UNK         0.1106 
    107 H107       24.5191  -35.1915  -42.6913 H         1 UNK         0.0828 
    108 H108       25.1593  -33.5914  -43.0402 H         1 UNK         0.0828 
    109 H109       25.3338  -34.2829  -41.4274 H         1 UNK         0.0828 
    110 H110       21.2685  -35.0601  -42.3244 H         1 UNK         0.2931 
    111 H111       20.0612  -33.4906  -44.4005 H         1 UNK         0.0412 
    112 H112       20.8264  -35.1410  -47.4604 H         1 UNK         0.3472 
    113 H113       19.7224  -34.0539  -46.6617 H         1 UNK         0.3472 
    114 H114       19.3592  -36.3309  -43.5176 H         1 UNK         0.0970 
    115 H115       18.3654  -35.3131  -44.5142 H         1 UNK         0.0970 
    116 H116       16.1081  -33.6932  -42.2617 H         1 UNK         0.0612 
    117 H117       16.7595  -33.8041  -43.8719 H         1 UNK         0.0612 
@<TRIPOS>BOND
     1    1    2 1    
     2    1   62 1    
     3    1   63 1    
     4    1   64 1    
     5    2    3 2    
     6    2    4 am   BACKBONE|DICT|INTERRES
     7    4    5 1    
     8    4   65 1    
     9    5    6 1    
    10    5   25 1    
    11    5   66 1    
    12    6    7 1    
    13    6   67 1    
    14    6   68 1    
    15    7    8 1    
    16    8    9 1    
    17    8   69 1    
    18    8   70 1    
    19    9   10 ar   
    20    9   14 ar   
    21   10   11 ar   
    22   10   71 1    
    23   11   12 ar   
    24   11   61 1    
    25   12   13 ar   
    26   12   72 1    
    27   13   14 ar   
    28   13   15 1    
    29   14   73 1    
    30   15   16 1    
    31   15   74 1    
    32   15   75 1    
    33   16   17 1    
    34   17   18 1    
    35   17   76 1    
    36   17   77 1    
    37   18   19 1    
    38   18   27 1    
    39   18   78 1    
    40   19   20 am   BACKBONE|DICT|INTERRES
    41   19   79 1    
    42   20   21 2    
    43   20   22 1    
    44   22   23 1    
    45   22   24 1    
    46   22   80 1    
    47   23   81 1    
    48   23   82 1    
    49   23   83 1    
    50   24   25 am   BACKBONE|DICT|INTERRES
    51   24   84 1    
    52   25   26 2    
    53   27   28 2    
    54   27   29 am   BACKBONE|DICT|INTERRES
    55   29   30 1    
    56   29   85 1    
    57   30   31 1    
    58   30   32 1    
    59   30   86 1    
    60   31   87 1    
    61   31   88 1    
    62   31   89 1    
    63   32   33 2    
    64   32   34 am   BACKBONE|DICT|INTERRES
    65   34   35 1    
    66   34   90 1    
    67   35   36 1    
    68   35   37 1    
    69   35   91 1    
    70   36   92 1    
    71   36   93 1    
    72   36   94 1    
    73   37   38 2    
    74   37   39 am   BACKBONE|DICT|INTERRES
    75   39   40 1    
    76   39   95 1    
    77   40   41 1    
    78   40   42 1    
    79   40   96 1    
    80   41   97 1    
    81   41   98 1    
    82   41   99 1    
    83   42   43 2    
    84   42   44 am   BACKBONE|DICT|INTERRES
    85   44   45 1    
    86   44  100 1    
    87   45   46 1    
    88   45   47 1    
    89   45  101 1    
    90   46  102 1    
    91   46  103 1    
    92   46  104 1    
    93   47   48 2    
    94   47   49 am   BACKBONE|DICT|INTERRES
    95   49   50 1    
    96   49  105 1    
    97   50   51 1    
    98   50   52 1    
    99   50  106 1    
   100   51  107 1    
   101   51  108 1    
   102   51  109 1    
   103   52   53 2    
   104   52   54 am   BACKBONE|DICT|INTERRES
   105   54   55 1    
   106   54  110 1    
   107   55   56 1    
   108   55   59 1    
   109   55  111 1    
   110   56   57 am   BACKBONE|DICT|INTERRES
   111   56   58 2    
   112   57  112 1    
   113   57  113 1    
   114   59   60 1    
   115   59  114 1    
   116   59  115 1    
   117   60   61 1    
   118   61  116 1    
   119   61  117 1    
@<TRIPOS>SUBSTRUCTURE
     1 UNK         1 GROUP             0       ****    0 ROOT    
