@<TRIPOS>MOLECULE
3R8
117   119    1
SMALL
USER_CHARGES


@<TRIPOS>ATOM
      1 CA         13.5975  -23.5526  -44.9231 C.3       0 UNK        -0.2013 
      2 C          14.8387  -24.4315  -44.9204 C.2       0 UNK         0.4866 
      3 O          15.7245  -24.2473  -45.7558 O.2       0 UNK        -0.5176 
      4 N          14.9246  -25.3778  -43.9772 N.am      1 UNK        -0.4884 
      5 CA         16.0172  -26.3510  -43.8238 C.3       1 UNK         0.0853 
      6 C6         15.5333  -27.6338  -43.1000 C.3       10 UNK        -0.0849 
      7 S7         14.2667  -28.5023  -44.0882 S.3       10 UNK        -0.2776 
      8 C8         14.9281  -30.2019  -44.1810 C.3       10 UNK         0.0316 
      9 C9         16.3313  -30.3186  -44.7762 C.ar      10 UNK        -0.0863 
     10 C10        17.2264  -31.2405  -44.2225 C.ar      10 UNK        -0.1009 
     11 C11        18.5050  -31.4053  -44.7604 C.ar      10 UNK        -0.0712 
     12 C12        18.8902  -30.6387  -45.8616 C.ar      10 UNK        -0.0894 
     13 C13        18.0193  -29.6958  -46.4128 C.ar      10 UNK        -0.0745 
     14 C14        16.7345  -29.5512  -45.8778 C.ar      10 UNK        -0.0972 
     15 C15        18.4745  -28.8429  -47.5894 C.3       10 UNK         0.0209 
     16 S16        19.0648  -27.1985  -47.0679 S.3       10 UNK        -0.2568 
     17 C17        20.5252  -27.6124  -46.0463 C.3       10 UNK        -0.0983 
     18 CA         21.1322  -26.3878  -45.3128 C.3       3 UNK         0.0876 
     19 N          20.0921  -25.6092  -44.6337 N.am      3 UNK        -0.4424 
     20 C          20.2322  -24.5003  -43.8943 C.2       2 UNK         0.4918 
     21 O          21.3146  -23.9649  -43.6555 O.2       2 UNK        -0.4875 
     22 CA         18.9389  -23.8667  -43.3401 C.3       2 UNK         0.0481 
     23 CB         18.8018  -22.4077  -43.8062 C.3       2 UNK        -0.1831 
     24 N          17.7258  -24.5959  -43.7257 N.am      2 UNK        -0.4498 
     25 C          17.2629  -25.7186  -43.1608 C.2       1 UNK         0.5027 
     26 O          17.7925  -26.2501  -42.1839 O.2       1 UNK        -0.4969 
     27 C          22.2563  -26.8476  -44.3604 C.2       3 UNK         0.5005 
     28 O          23.4294  -26.8040  -44.7363 O.2       3 UNK        -0.5279 
     29 N          21.8646  -27.2605  -43.1440 N.am      4 UNK        -0.4463 
     30 CA         22.6753  -27.6785  -41.9928 C.3       4 UNK         0.0283 
     31 CB         23.5618  -26.5259  -41.4832 C.3       4 UNK        -0.1875 
     32 C          23.5025  -28.9583  -42.2002 C.2       4 UNK         0.4949 
     33 O          23.4120  -29.8570  -41.3653 O.2       4 UNK        -0.5039 
     34 N          24.3056  -29.0059  -43.2722 N.am      5 UNK        -0.4663 
     35 CA         25.2312  -30.0813  -43.6577 C.3       5 UNK         0.0242 
     36 CB         24.4451  -31.3128  -44.1510 C.3       5 UNK        -0.1982 
     37 C          26.2317  -30.4261  -42.5369 C.2       5 UNK         0.5017 
     38 O          26.3464  -31.5875  -42.1455 O.2       5 UNK        -0.5012 
     39 N          26.8944  -29.3900  -41.9989 N.am      6 UNK        -0.4439 
     40 CA         27.7891  -29.4352  -40.8307 C.3       6 UNK         0.0297 
     41 CB         29.0715  -30.2368  -41.1422 C.3       6 UNK        -0.2006 
     42 C          27.0699  -29.9182  -39.5519 C.2       6 UNK         0.4892 
     43 O          27.6404  -30.6745  -38.7649 O.2       6 UNK        -0.5089 
     44 N          25.8167  -29.4670  -39.3957 N.am      7 UNK        -0.4243 
     45 CA         24.8543  -29.7735  -38.3307 C.3       7 UNK         0.0196 
     46 CB         25.4065  -29.3985  -36.9388 C.3       7 UNK        -0.2007 
     47 C          24.2809  -31.2044  -38.3705 C.2       7 UNK         0.5020 
     48 O          23.5621  -31.5789  -37.4429 O.2       7 UNK        -0.5147 
     49 N          24.5415  -31.9712  -39.4405 N.am      8 UNK        -0.4734 
     50 CA         23.9756  -33.3093  -39.6500 C.3       8 UNK         0.0238 
     51 CB         24.6967  -34.0072  -40.8129 C.3       8 UNK        -0.1912 
     52 C          22.4554  -33.2977  -39.8911 C.2       8 UNK         0.5038 
     53 O          21.7910  -34.2751  -39.5438 O.2       8 UNK        -0.5046 
     54 N          21.9317  -32.1999  -40.4534 N.am      9 UNK        -0.4200 
     55 CA         20.4899  -31.9610  -40.6311 C.3       9 UNK         0.0839 
     56 C          19.7651  -31.4852  -39.3370 C.2       9 UNK         0.5513 
     57 N          20.4496  -31.2669  -38.2191 N.am      9 UNK        -0.7519 
     58 O          18.5483  -31.3196  -39.3445 O.2       9 UNK        -0.4960 
     59 C59        20.1961  -31.0106  -41.8223 C.3       10 UNK        -0.0876 
     60 S60        20.9047  -31.6144  -43.3909 S.3       10 UNK        -0.2414 
     61 C61        19.4713  -32.4198  -44.1682 C.3       10 UNK         0.0169 
     62 H62        13.8785  -22.5076  -44.8010 H         1 UNK         0.0903 
     63 H63        13.0676  -23.6551  -45.8696 H         1 UNK         0.0903 
     64 H64        12.9096  -23.8150  -44.1199 H         1 UNK         0.0903 
     65 H65        14.1724  -25.4715  -43.3091 H         1 UNK         0.3096 
     66 H66        16.3435  -26.6519  -44.8225 H         1 UNK         0.1121 
     67 H67        16.3681  -28.3123  -42.9147 H         1 UNK         0.0849 
     68 H68        15.1170  -27.3938  -42.1202 H         1 UNK         0.0849 
     69 H69        14.9056  -30.6259  -43.1757 H         1 UNK         0.0865 
     70 H70        14.2479  -30.8069  -44.7816 H         1 UNK         0.0865 
     71 H71        16.9244  -31.8412  -43.3752 H         1 UNK         0.1346 
     72 H72        19.8816  -30.7634  -46.2754 H         1 UNK         0.1412 
     73 H73        16.0525  -28.8363  -46.3173 H         1 UNK         0.1426 
     74 H74        17.6466  -28.7139  -48.2880 H         1 UNK         0.0716 
     75 H75        19.2654  -29.3477  -48.1464 H         1 UNK         0.0716 
     76 H76        21.2734  -28.0852  -46.6854 H         1 UNK         0.0695 
     77 H77        20.2244  -28.3631  -45.3146 H         1 UNK         0.0695 
     78 H78        21.5854  -25.7291  -46.0563 H         1 UNK         0.0983 
     79 H79        19.1514  -25.9303  -44.8041 H         1 UNK         0.3095 
     80 H80        19.0173  -23.8700  -42.2513 H         1 UNK         0.0454 
     81 H81        19.6609  -21.8124  -43.4943 H         1 UNK         0.0851 
     82 H82        17.9149  -21.9372  -43.3819 H         1 UNK         0.0851 
     83 H83        18.7323  -22.3363  -44.8922 H         1 UNK         0.0851 
     84 H84        17.2112  -24.2425  -44.5290 H         1 UNK         0.2976 
     85 H85        20.8677  -27.2627  -42.9766 H         1 UNK         0.3116 
     86 H86        21.9573  -27.9012  -41.2019 H         1 UNK         0.0646 
     87 H87        24.3183  -26.2357  -42.2128 H         1 UNK         0.0847 
     88 H88        22.9656  -25.6421  -41.2554 H         1 UNK         0.0847 
     89 H89        24.0831  -26.8079  -40.5677 H         1 UNK         0.0847 
     90 H90        24.2574  -28.2051  -43.9012 H         1 UNK         0.3040 
     91 H91        25.8207  -29.7069  -44.4961 H         1 UNK         0.1015 
     92 H92        25.1179  -32.0787  -44.5384 H         1 UNK         0.0786 
     93 H93        23.7548  -31.0493  -44.9523 H         1 UNK         0.0786 
     94 H94        23.8658  -31.7663  -43.3467 H         1 UNK         0.0786 
     95 H95        26.7245  -28.4728  -42.3894 H         1 UNK         0.3172 
     96 H96        28.0887  -28.4044  -40.6358 H         1 UNK         0.0595 
     97 H97        28.8639  -31.2978  -41.2850 H         1 UNK         0.0839 
     98 H98        29.7897  -30.1559  -40.3253 H         1 UNK         0.0839 
     99 H99        29.5631  -29.8668  -42.0418 H         1 UNK         0.0839 
    100 H100       25.4444  -28.9012  -40.1444 H         1 UNK         0.2998 
    101 H101       24.0005  -29.1217  -38.5227 H         1 UNK         0.0822 
    102 H102       24.6261  -29.4600  -36.1794 H         1 UNK         0.0787 
    103 H103       25.7895  -28.3782  -36.9243 H         1 UNK         0.0787 
    104 H104       26.2108  -30.0653  -36.6270 H         1 UNK         0.0787 
    105 H105       25.1072  -31.5912  -40.1900 H         1 UNK         0.3055 
    106 H106       24.1550  -33.8903  -38.7425 H         1 UNK         0.1106 
    107 H107       25.7747  -34.0378  -40.6537 H         1 UNK         0.0828 
    108 H108       24.3545  -35.0372  -40.9213 H         1 UNK         0.0828 
    109 H109       24.5114  -33.5034  -41.7617 H         1 UNK         0.0828 
    110 H110       22.5481  -31.4373  -40.7230 H         1 UNK         0.2931 
    111 H111       20.0297  -32.9191  -40.8802 H         1 UNK         0.0412 
    112 H112       19.9562  -30.9650  -37.3939 H         1 UNK         0.3472 
    113 H113       21.4473  -31.4249  -38.1775 H         1 UNK         0.3472 
    114 H114       20.6044  -30.0195  -41.6234 H         1 UNK         0.0970 
    115 H115       19.1217  -30.8688  -41.9507 H         1 UNK         0.0970 
    116 H116       18.9756  -33.0624  -43.4390 H         1 UNK         0.0612 
    117 H117       19.8280  -33.0755  -44.9636 H         1 UNK         0.0612 
@<TRIPOS>BOND
     1    1    2 1    
     2    1   62 1    
     3    1   63 1    
     4    1   64 1    
     5    2    3 2    
     6    2    4 am   BACKBONE|DICT|INTERRES
     7    4    5 1    
     8    4   65 1    
     9    5    6 1    
    10    5   25 1    
    11    5   66 1    
    12    6    7 1    
    13    6   67 1    
    14    6   68 1    
    15    7    8 1    
    16    8    9 1    
    17    8   69 1    
    18    8   70 1    
    19    9   10 ar   
    20    9   14 ar   
    21   10   11 ar   
    22   10   71 1    
    23   11   12 ar   
    24   11   61 1    
    25   12   13 ar   
    26   12   72 1    
    27   13   14 ar   
    28   13   15 1    
    29   14   73 1    
    30   15   16 1    
    31   15   74 1    
    32   15   75 1    
    33   16   17 1    
    34   17   18 1    
    35   17   76 1    
    36   17   77 1    
    37   18   19 1    
    38   18   27 1    
    39   18   78 1    
    40   19   20 am   BACKBONE|DICT|INTERRES
    41   19   79 1    
    42   20   21 2    
    43   20   22 1    
    44   22   23 1    
    45   22   24 1    
    46   22   80 1    
    47   23   81 1    
    48   23   82 1    
    49   23   83 1    
    50   24   25 am   BACKBONE|DICT|INTERRES
    51   24   84 1    
    52   25   26 2    
    53   27   28 2    
    54   27   29 am   BACKBONE|DICT|INTERRES
    55   29   30 1    
    56   29   85 1    
    57   30   31 1    
    58   30   32 1    
    59   30   86 1    
    60   31   87 1    
    61   31   88 1    
    62   31   89 1    
    63   32   33 2    
    64   32   34 am   BACKBONE|DICT|INTERRES
    65   34   35 1    
    66   34   90 1    
    67   35   36 1    
    68   35   37 1    
    69   35   91 1    
    70   36   92 1    
    71   36   93 1    
    72   36   94 1    
    73   37   38 2    
    74   37   39 am   BACKBONE|DICT|INTERRES
    75   39   40 1    
    76   39   95 1    
    77   40   41 1    
    78   40   42 1    
    79   40   96 1    
    80   41   97 1    
    81   41   98 1    
    82   41   99 1    
    83   42   43 2    
    84   42   44 am   BACKBONE|DICT|INTERRES
    85   44   45 1    
    86   44  100 1    
    87   45   46 1    
    88   45   47 1    
    89   45  101 1    
    90   46  102 1    
    91   46  103 1    
    92   46  104 1    
    93   47   48 2    
    94   47   49 am   BACKBONE|DICT|INTERRES
    95   49   50 1    
    96   49  105 1    
    97   50   51 1    
    98   50   52 1    
    99   50  106 1    
   100   51  107 1    
   101   51  108 1    
   102   51  109 1    
   103   52   53 2    
   104   52   54 am   BACKBONE|DICT|INTERRES
   105   54   55 1    
   106   54  110 1    
   107   55   56 1    
   108   55   59 1    
   109   55  111 1    
   110   56   57 am   BACKBONE|DICT|INTERRES
   111   56   58 2    
   112   57  112 1    
   113   57  113 1    
   114   59   60 1    
   115   59  114 1    
   116   59  115 1    
   117   60   61 1    
   118   61  116 1    
   119   61  117 1    
@<TRIPOS>SUBSTRUCTURE
     1 UNK         1 GROUP             0       ****    0 ROOT    
