@<TRIPOS>MOLECULE
3R8
117   119    1
SMALL
USER_CHARGES


@<TRIPOS>ATOM
      1 CA         12.5526  -26.5621  -40.8110 C.3       0 UNK        -0.2013 
      2 C          13.5193  -27.0631  -41.8744 C.2       0 UNK         0.4866 
      3 O          13.4186  -28.2198  -42.2836 O.2       0 UNK        -0.5176 
      4 N          14.4342  -26.1901  -42.3220 N.am      1 UNK        -0.4884 
      5 CA         15.5202  -26.4296  -43.2846 C.3       1 UNK         0.0853 
      6 C6         15.0455  -27.1007  -44.6030 C.3       10 UNK        -0.0849 
      7 S7         16.1506  -26.7776  -46.0215 S.3       10 UNK        -0.2776 
      8 C8         16.3798  -28.4497  -46.7120 C.3       10 UNK         0.0316 
      9 C9         17.5674  -29.1740  -46.0921 C.ar      10 UNK        -0.0863 
     10 C10        17.4375  -29.8335  -44.8662 C.ar      10 UNK        -0.1009 
     11 C11        18.5255  -30.5056  -44.3029 C.ar      10 UNK        -0.0712 
     12 C12        19.7453  -30.5349  -44.9833 C.ar      10 UNK        -0.0894 
     13 C13        19.8833  -29.9014  -46.2202 C.ar      10 UNK        -0.0745 
     14 C14        18.7937  -29.2136  -46.7645 C.ar      10 UNK        -0.0972 
     15 C15        21.1897  -30.0024  -46.9941 C.3       10 UNK         0.0209 
     16 S16        22.1016  -28.4295  -47.0307 S.3       10 UNK        -0.2568 
     17 C17        22.9969  -28.4355  -45.4418 C.3       10 UNK        -0.0983 
     18 CA         22.5145  -27.2825  -44.5267 C.3       3 UNK         0.0876 
     19 N          21.3163  -27.6494  -43.7714 N.am      3 UNK        -0.4424 
     20 C          20.2716  -26.8405  -43.5807 C.2       2 UNK         0.4918 
     21 O          20.1574  -25.7263  -44.0990 O.2       2 UNK        -0.4875 
     22 CA         19.2021  -27.3223  -42.5972 C.3       2 UNK         0.0481 
     23 CB         19.5458  -26.8833  -41.1614 C.3       2 UNK        -0.1831 
     24 N          17.9253  -26.7559  -43.0164 N.am      2 UNK        -0.4498 
     25 C          16.7125  -27.1656  -42.6333 C.2       1 UNK         0.5027 
     26 O          16.5261  -28.0703  -41.8165 O.2       1 UNK        -0.4969 
     27 C          23.5612  -26.8658  -43.4835 C.2       3 UNK         0.5005 
     28 O          24.4223  -27.6695  -43.1253 O.2       3 UNK        -0.5279 
     29 N          23.4145  -25.6367  -42.9653 N.am      4 UNK        -0.4463 
     30 CA         24.0309  -25.0730  -41.7524 C.3       4 UNK         0.0283 
     31 CB         23.6663  -23.5818  -41.6650 C.3       4 UNK        -0.1875 
     32 C          25.5486  -25.2578  -41.5483 C.2       4 UNK         0.4949 
     33 O          26.0041  -25.1606  -40.4089 O.2       4 UNK        -0.5039 
     34 N          26.3029  -25.5403  -42.6187 N.am      5 UNK        -0.4663 
     35 CA         27.7140  -25.9379  -42.5593 C.3       5 UNK         0.0242 
     36 CB         28.2842  -25.9919  -43.9857 C.3       5 UNK        -0.1982 
     37 C          27.9398  -27.2826  -41.8368 C.2       5 UNK         0.5017 
     38 O          28.9828  -27.4534  -41.2045 O.2       5 UNK        -0.5012 
     39 N          26.9637  -28.1957  -41.9353 N.am      6 UNK        -0.4439 
     40 CA         26.9420  -29.4977  -41.2582 C.3       6 UNK         0.0297 
     41 CB         27.1087  -30.6054  -42.3124 C.3       6 UNK        -0.2006 
     42 C          25.6506  -29.7268  -40.4498 C.2       6 UNK         0.4892 
     43 O          25.6070  -30.6638  -39.6513 O.2       6 UNK        -0.5089 
     44 N          24.6205  -28.9029  -40.6913 N.am      7 UNK        -0.4243 
     45 CA         23.2253  -28.9971  -40.2548 C.3       7 UNK         0.0196 
     46 CB         23.0742  -29.0464  -38.7209 C.3       7 UNK        -0.2007 
     47 C          22.4992  -30.1452  -40.9703 C.2       7 UNK         0.5020 
     48 O          21.6387  -29.8789  -41.8122 O.2       7 UNK        -0.5147 
     49 N          22.9101  -31.3801  -40.6502 N.am      8 UNK        -0.4734 
     50 CA         22.4037  -32.6672  -41.1398 C.3       8 UNK         0.0238 
     51 CB         22.6352  -32.7964  -42.6615 C.3       8 UNK        -0.1912 
     52 C          20.9472  -32.9494  -40.7122 C.2       8 UNK         0.5038 
     53 O          20.4218  -32.2759  -39.8223 O.2       8 UNK        -0.5046 
     54 N          20.3417  -33.9784  -41.3218 N.am      9 UNK        -0.4200 
     55 CA         18.9814  -34.4822  -41.0474 C.3       9 UNK         0.0839 
     56 C          18.7960  -35.1202  -39.6355 C.2       9 UNK         0.5513 
     57 N          19.8588  -35.5207  -38.9477 N.am      9 UNK        -0.7519 
     58 O          17.6733  -35.2883  -39.1656 O.2       9 UNK        -0.4960 
     59 C59        17.8611  -33.4590  -41.3962 C.3       10 UNK        -0.0876 
     60 S60        17.9062  -32.9282  -43.1417 S.3       10 UNK        -0.2414 
     61 C61        18.3879  -31.1876  -42.9525 C.3       10 UNK         0.0169 
     62 H62        12.6483  -27.1616  -39.9061 H         1 UNK         0.0903 
     63 H63        12.7355  -25.5204  -40.5478 H         1 UNK         0.0903 
     64 H64        11.5263  -26.6456  -41.1677 H         1 UNK         0.0903 
     65 H65        14.4430  -25.2652  -41.9132 H         1 UNK         0.3096 
     66 H66        15.8679  -25.4263  -43.5385 H         1 UNK         0.1121 
     67 H67        14.0654  -26.7094  -44.8800 H         1 UNK         0.0849 
     68 H68        14.9003  -28.1722  -44.4634 H         1 UNK         0.0849 
     69 H69        15.4705  -29.0400  -46.5893 H         1 UNK         0.0865 
     70 H70        16.5255  -28.3573  -47.7894 H         1 UNK         0.0865 
     71 H71        16.4931  -29.8209  -44.3409 H         1 UNK         0.1346 
     72 H72        20.5835  -31.0619  -44.5545 H         1 UNK         0.1412 
     73 H73        18.9009  -28.7200  -47.7210 H         1 UNK         0.1426 
     74 H74        20.9658  -30.2943  -48.0211 H         1 UNK         0.0716 
     75 H75        21.8279  -30.7908  -46.5917 H         1 UNK         0.0716 
     76 H76        24.0546  -28.3222  -45.6881 H         1 UNK         0.0695 
     77 H77        22.9053  -29.4023  -44.9432 H         1 UNK         0.0695 
     78 H78        22.3285  -26.4078  -45.1546 H         1 UNK         0.0983 
     79 H79        21.3655  -28.5209  -43.2495 H         1 UNK         0.3095 
     80 H80        19.1459  -28.4098  -42.6380 H         1 UNK         0.0454 
     81 H81        18.8042  -27.2381  -40.4460 H         1 UNK         0.0851 
     82 H82        19.6038  -25.7977  -41.0749 H         1 UNK         0.0851 
     83 H83        20.5079  -27.2889  -40.8496 H         1 UNK         0.0851 
     84 H84        18.0149  -26.0350  -43.7229 H         1 UNK         0.2976 
     85 H85        22.6717  -25.0739  -43.3582 H         1 UNK         0.3116 
     86 H86        23.5532  -25.5792  -40.9113 H         1 UNK         0.0646 
     87 H87        24.0633  -23.0212  -42.5122 H         1 UNK         0.0847 
     88 H88        24.0704  -23.1292  -40.7580 H         1 UNK         0.0847 
     89 H89        22.5864  -23.4347  -41.6395 H         1 UNK         0.0847 
     90 H90        25.8439  -25.6110  -43.5154 H         1 UNK         0.3040 
     91 H91        28.2559  -25.1720  -41.9998 H         1 UNK         0.1015 
     92 H92        27.7663  -26.7294  -44.6005 H         1 UNK         0.0786 
     93 H93        29.3411  -26.2626  -43.9729 H         1 UNK         0.0786 
     94 H94        28.2056  -25.0244  -44.4819 H         1 UNK         0.0786 
     95 H95        26.1495  -27.9617  -42.4999 H         1 UNK         0.3172 
     96 H96        27.7689  -29.5685  -40.5489 H         1 UNK         0.0595 
     97 H97        26.2997  -30.5888  -43.0441 H         1 UNK         0.0839 
     98 H98        27.1095  -31.5927  -41.8483 H         1 UNK         0.0839 
     99 H99        28.0506  -30.5007  -42.8510 H         1 UNK         0.0839 
    100 H100       24.7420  -28.2508  -41.4605 H         1 UNK         0.2998 
    101 H101       22.7555  -28.0725  -40.5914 H         1 UNK         0.0822 
    102 H102       23.5497  -28.1852  -38.2517 H         1 UNK         0.0787 
    103 H103       22.0207  -29.0298  -38.4388 H         1 UNK         0.0787 
    104 H104       23.5080  -29.9454  -38.2837 H         1 UNK         0.0787 
    105 H105       23.6674  -31.4354  -39.9773 H         1 UNK         0.3055 
    106 H106       23.0117  -33.4279  -40.6475 H         1 UNK         0.1106 
    107 H107       22.4796  -33.8176  -43.0097 H         1 UNK         0.0828 
    108 H108       21.9639  -32.1519  -43.2249 H         1 UNK         0.0828 
    109 H109       23.6563  -32.5244  -42.9293 H         1 UNK         0.0828 
    110 H110       20.8525  -34.4881  -42.0272 H         1 UNK         0.2931 
    111 H111       18.8558  -35.3229  -41.7306 H         1 UNK         0.0412 
    112 H112       20.7863  -35.4072  -39.3235 H         1 UNK         0.3472 
    113 H113       19.7294  -35.9422  -38.0412 H         1 UNK         0.3472 
    114 H114       17.9108  -32.5927  -40.7347 H         1 UNK         0.0970 
    115 H115       16.8773  -33.9012  -41.2293 H         1 UNK         0.0970 
    116 H116       19.3301  -31.1270  -42.4077 H         1 UNK         0.0612 
    117 H117       17.6457  -30.6686  -42.3439 H         1 UNK         0.0612 
@<TRIPOS>BOND
     1    1    2 1    
     2    1   62 1    
     3    1   63 1    
     4    1   64 1    
     5    2    3 2    
     6    2    4 am   BACKBONE|DICT|INTERRES
     7    4    5 1    
     8    4   65 1    
     9    5    6 1    
    10    5   25 1    
    11    5   66 1    
    12    6    7 1    
    13    6   67 1    
    14    6   68 1    
    15    7    8 1    
    16    8    9 1    
    17    8   69 1    
    18    8   70 1    
    19    9   10 ar   
    20    9   14 ar   
    21   10   11 ar   
    22   10   71 1    
    23   11   12 ar   
    24   11   61 1    
    25   12   13 ar   
    26   12   72 1    
    27   13   14 ar   
    28   13   15 1    
    29   14   73 1    
    30   15   16 1    
    31   15   74 1    
    32   15   75 1    
    33   16   17 1    
    34   17   18 1    
    35   17   76 1    
    36   17   77 1    
    37   18   19 1    
    38   18   27 1    
    39   18   78 1    
    40   19   20 am   BACKBONE|DICT|INTERRES
    41   19   79 1    
    42   20   21 2    
    43   20   22 1    
    44   22   23 1    
    45   22   24 1    
    46   22   80 1    
    47   23   81 1    
    48   23   82 1    
    49   23   83 1    
    50   24   25 am   BACKBONE|DICT|INTERRES
    51   24   84 1    
    52   25   26 2    
    53   27   28 2    
    54   27   29 am   BACKBONE|DICT|INTERRES
    55   29   30 1    
    56   29   85 1    
    57   30   31 1    
    58   30   32 1    
    59   30   86 1    
    60   31   87 1    
    61   31   88 1    
    62   31   89 1    
    63   32   33 2    
    64   32   34 am   BACKBONE|DICT|INTERRES
    65   34   35 1    
    66   34   90 1    
    67   35   36 1    
    68   35   37 1    
    69   35   91 1    
    70   36   92 1    
    71   36   93 1    
    72   36   94 1    
    73   37   38 2    
    74   37   39 am   BACKBONE|DICT|INTERRES
    75   39   40 1    
    76   39   95 1    
    77   40   41 1    
    78   40   42 1    
    79   40   96 1    
    80   41   97 1    
    81   41   98 1    
    82   41   99 1    
    83   42   43 2    
    84   42   44 am   BACKBONE|DICT|INTERRES
    85   44   45 1    
    86   44  100 1    
    87   45   46 1    
    88   45   47 1    
    89   45  101 1    
    90   46  102 1    
    91   46  103 1    
    92   46  104 1    
    93   47   48 2    
    94   47   49 am   BACKBONE|DICT|INTERRES
    95   49   50 1    
    96   49  105 1    
    97   50   51 1    
    98   50   52 1    
    99   50  106 1    
   100   51  107 1    
   101   51  108 1    
   102   51  109 1    
   103   52   53 2    
   104   52   54 am   BACKBONE|DICT|INTERRES
   105   54   55 1    
   106   54  110 1    
   107   55   56 1    
   108   55   59 1    
   109   55  111 1    
   110   56   57 am   BACKBONE|DICT|INTERRES
   111   56   58 2    
   112   57  112 1    
   113   57  113 1    
   114   59   60 1    
   115   59  114 1    
   116   59  115 1    
   117   60   61 1    
   118   61  116 1    
   119   61  117 1    
@<TRIPOS>SUBSTRUCTURE
     1 UNK         1 GROUP             0       ****    0 ROOT    
