@<TRIPOS>MOLECULE
3R8
117   119    1
SMALL
USER_CHARGES


@<TRIPOS>ATOM
      1 CA         15.5349  -23.7612  -43.0255 C.3       0 UNK        -0.2013 
      2 C          16.3234  -25.0298  -43.3118 C.2       0 UNK         0.4866 
      3 O          17.1344  -25.0518  -44.2384 O.2       0 UNK        -0.5176 
      4 N          16.0997  -26.0871  -42.5210 N.am      1 UNK        -0.4884 
      5 CA         16.7586  -27.3941  -42.6373 C.3       1 UNK         0.0853 
      6 C6         15.9008  -28.5235  -42.0138 C.3       10 UNK        -0.0849 
      7 S7         14.4586  -28.8805  -43.0708 S.3       10 UNK        -0.2776 
      8 C8         14.9708  -30.4311  -43.8857 C.3       10 UNK         0.0316 
      9 C9         16.3364  -30.3354  -44.5604 C.ar      10 UNK        -0.0863 
     10 C10        17.4103  -31.0907  -44.0771 C.ar      10 UNK        -0.1009 
     11 C11        18.6527  -31.0482  -44.7149 C.ar      10 UNK        -0.0712 
     12 C12        18.8228  -30.2337  -45.8363 C.ar      10 UNK        -0.0894 
     13 C13        17.7653  -29.4573  -46.3212 C.ar      10 UNK        -0.0745 
     14 C14        16.5218  -29.5186  -45.6815 C.ar      10 UNK        -0.0972 
     15 C15        17.9446  -28.5950  -47.5651 C.3       10 UNK         0.0209 
     16 S16        18.7491  -26.9988  -47.2049 S.3       10 UNK        -0.2568 
     17 C17        20.5207  -27.4311  -47.3311 C.3       10 UNK        -0.0983 
     18 CA         21.4090  -26.7846  -46.2366 C.3       3 UNK         0.0876 
     19 N          20.8465  -26.9263  -44.8868 N.am      3 UNK        -0.4424 
     20 C          21.2051  -26.1774  -43.8336 C.2       2 UNK         0.4918 
     21 O          22.0306  -25.2659  -43.8914 O.2       2 UNK        -0.4875 
     22 CA         20.4883  -26.4849  -42.5123 C.3       2 UNK         0.0481 
     23 CB         20.7379  -25.4269  -41.4200 C.3       2 UNK        -0.1831 
     24 N          19.0598  -26.6168  -42.7731 N.am      2 UNK        -0.4498 
     25 C          18.1913  -27.3495  -42.0721 C.2       1 UNK         0.5027 
     26 O          18.4753  -27.9489  -41.0349 O.2       1 UNK        -0.4969 
     27 C          22.8466  -27.3449  -46.3209 C.2       3 UNK         0.5005 
     28 O          23.6161  -26.9261  -47.1879 O.2       3 UNK        -0.5279 
     29 N          23.1686  -28.2898  -45.4264 N.am      4 UNK        -0.4463 
     30 CA         24.4875  -28.8903  -45.2394 C.3       4 UNK         0.0283 
     31 CB         24.2864  -30.2923  -44.6334 C.3       4 UNK        -0.1875 
     32 C          25.3843  -28.0054  -44.3491 C.2       4 UNK         0.4949 
     33 O          25.0607  -26.8465  -44.0841 O.2       4 UNK        -0.5039 
     34 N          26.5017  -28.5760  -43.8798 N.am      5 UNK        -0.4663 
     35 CA         27.4661  -27.9236  -42.9855 C.3       5 UNK         0.0242 
     36 CB         28.7347  -28.7896  -42.9071 C.3       5 UNK        -0.1982 
     37 C          26.9302  -27.6274  -41.5692 C.2       5 UNK         0.5017 
     38 O          27.5345  -26.8190  -40.8629 O.2       5 UNK        -0.5012 
     39 N          25.8285  -28.2762  -41.1729 N.am      6 UNK        -0.4439 
     40 CA         25.1497  -28.0988  -39.8941 C.3       6 UNK         0.0297 
     41 CB         25.8240  -28.9749  -38.8207 C.3       6 UNK        -0.2006 
     42 C          23.6713  -28.4703  -40.0537 C.2       6 UNK         0.4892 
     43 O          23.3142  -29.1855  -40.9929 O.2       6 UNK        -0.5089 
     44 N          22.8522  -28.0188  -39.0948 N.am      7 UNK        -0.4243 
     45 CA         21.4188  -28.3205  -38.9860 C.3       7 UNK         0.0196 
     46 CB         20.7752  -27.3087  -38.0224 C.3       7 UNK        -0.2007 
     47 C          21.1128  -29.7623  -38.5320 C.2       7 UNK         0.5020 
     48 O          19.9516  -30.1681  -38.5411 O.2       7 UNK        -0.5147 
     49 N          22.1475  -30.5125  -38.1313 N.am      8 UNK        -0.4734 
     50 CA         22.0704  -31.9067  -37.6868 C.3       8 UNK         0.0238 
     51 CB         23.3266  -32.2204  -36.8544 C.3       8 UNK        -0.1912 
     52 C          21.9033  -32.9273  -38.8319 C.2       8 UNK         0.5038 
     53 O          21.8330  -34.1243  -38.5473 O.2       8 UNK        -0.5046 
     54 N          21.8781  -32.4630  -40.0894 N.am      9 UNK        -0.4200 
     55 CA         21.7111  -33.2858  -41.2945 C.3       9 UNK         0.0839 
     56 C          20.3713  -34.0764  -41.3563 C.2       9 UNK         0.5513 
     57 N          20.3379  -35.1688  -42.1083 N.am      9 UNK        -0.7519 
     58 O          19.3619  -33.6999  -40.7643 O.2       9 UNK        -0.4960 
     59 C59        21.9819  -32.4619  -42.5819 C.3       10 UNK        -0.0876 
     60 S60        20.7774  -31.1257  -42.9248 S.3       10 UNK        -0.2414 
     61 C61        19.7946  -31.9270  -44.2301 C.3       10 UNK         0.0169 
     62 H62        14.9476  -23.4805  -43.8994 H         1 UNK         0.0903 
     63 H63        14.8531  -23.8850  -42.1843 H         1 UNK         0.0903 
     64 H64        16.2147  -22.9416  -42.7940 H         1 UNK         0.0903 
     65 H65        15.4315  -26.0061  -41.7676 H         1 UNK         0.3096 
     66 H66        16.8752  -27.6187  -43.6995 H         1 UNK         0.1121 
     67 H67        15.5576  -28.2469  -41.0154 H         1 UNK         0.0849 
     68 H68        16.4781  -29.4409  -41.8845 H         1 UNK         0.0849 
     69 H69        14.9614  -31.2342  -43.1470 H         1 UNK         0.0865 
     70 H70        14.2223  -30.7006  -44.6322 H         1 UNK         0.0865 
     71 H71        17.2783  -31.7303  -43.2146 H         1 UNK         0.1346 
     72 H72        19.7772  -30.2303  -46.3404 H         1 UNK         0.1412 
     73 H73        15.6924  -28.9346  -46.0576 H         1 UNK         0.1426 
     74 H74        16.9723  -28.3912  -48.0163 H         1 UNK         0.0716 
     75 H75        18.5132  -29.1380  -48.3215 H         1 UNK         0.0716 
     76 H76        20.8645  -27.1131  -48.3173 H         1 UNK         0.0695 
     77 H77        20.6333  -28.5138  -47.3237 H         1 UNK         0.0695 
     78 H78        21.4724  -25.7158  -46.4537 H         1 UNK         0.0983 
     79 H79        20.1262  -27.6249  -44.7723 H         1 UNK         0.3095 
     80 H80        20.8760  -27.4455  -42.1680 H         1 UNK         0.0454 
     81 H81        21.7964  -25.3750  -41.1621 H         1 UNK         0.0851 
     82 H82        20.1923  -25.6612  -40.5071 H         1 UNK         0.0851 
     83 H83        20.4280  -24.4334  -41.7460 H         1 UNK         0.0851 
     84 H84        18.6958  -26.0932  -43.5664 H         1 UNK         0.2976 
     85 H85        22.4730  -28.5285  -44.7354 H         1 UNK         0.3116 
     86 H86        24.9738  -28.9940  -46.2115 H         1 UNK         0.0646 
     87 H87        25.2128  -30.8670  -44.6247 H         1 UNK         0.0847 
     88 H88        23.9266  -30.2283  -43.6061 H         1 UNK         0.0847 
     89 H89        23.5618  -30.8739  -45.2041 H         1 UNK         0.0847 
     90 H90        26.7070  -29.5292  -44.1437 H         1 UNK         0.3040 
     91 H91        27.7353  -26.9621  -43.4287 H         1 UNK         0.1015 
     92 H92        29.4921  -28.3182  -42.2789 H         1 UNK         0.0786 
     93 H93        29.1799  -28.9337  -43.8918 H         1 UNK         0.0786 
     94 H94        28.5267  -29.7728  -42.4830 H         1 UNK         0.0786 
     95 H95        25.3456  -28.8830  -41.8233 H         1 UNK         0.3172 
     96 H96        25.2057  -27.0483  -39.6002 H         1 UNK         0.0595 
     97 H97        25.7768  -30.0340  -39.0781 H         1 UNK         0.0839 
     98 H98        25.3466  -28.8512  -37.8480 H         1 UNK         0.0839 
     99 H99        26.8741  -28.7104  -38.6953 H         1 UNK         0.0839 
    100 H100       23.2418  -27.4456  -38.3594 H         1 UNK         0.2998 
    101 H101       20.9677  -28.1959  -39.9711 H         1 UNK         0.0822 
    102 H102       19.6912  -27.4309  -38.0002 H         1 UNK         0.0787 
    103 H103       21.1396  -27.4353  -37.0021 H         1 UNK         0.0787 
    104 H104       20.9769  -26.2813  -38.3243 H         1 UNK         0.0787 
    105 H105       23.0666  -30.0973  -38.1582 H         1 UNK         0.3055 
    106 H106       21.1961  -32.0145  -37.0408 H         1 UNK         0.1106 
    107 H107       23.4220  -31.5417  -36.0066 H         1 UNK         0.0828 
    108 H108       23.2878  -33.2326  -36.4493 H         1 UNK         0.0828 
    109 H109       24.2363  -32.1441  -37.4514 H         1 UNK         0.0828 
    110 H110       21.9164  -31.4647  -40.2369 H         1 UNK         0.2931 
    111 H111       22.5011  -34.0376  -41.2362 H         1 UNK         0.0412 
    112 H112       21.1567  -35.4919  -42.5999 H         1 UNK         0.3472 
    113 H113       19.4786  -35.6924  -42.1717 H         1 UNK         0.3472 
    114 H114       22.0478  -33.1258  -43.4454 H         1 UNK         0.0970 
    115 H115       22.9688  -32.0062  -42.5027 H         1 UNK         0.0970 
    116 H116       20.4490  -32.1820  -45.0652 H         1 UNK         0.0612 
    117 H117       19.3935  -32.8702  -43.8576 H         1 UNK         0.0612 
@<TRIPOS>BOND
     1    1    2 1    
     2    1   62 1    
     3    1   63 1    
     4    1   64 1    
     5    2    3 2    
     6    2    4 am   BACKBONE|DICT|INTERRES
     7    4    5 1    
     8    4   65 1    
     9    5    6 1    
    10    5   25 1    
    11    5   66 1    
    12    6    7 1    
    13    6   67 1    
    14    6   68 1    
    15    7    8 1    
    16    8    9 1    
    17    8   69 1    
    18    8   70 1    
    19    9   10 ar   
    20    9   14 ar   
    21   10   11 ar   
    22   10   71 1    
    23   11   12 ar   
    24   11   61 1    
    25   12   13 ar   
    26   12   72 1    
    27   13   14 ar   
    28   13   15 1    
    29   14   73 1    
    30   15   16 1    
    31   15   74 1    
    32   15   75 1    
    33   16   17 1    
    34   17   18 1    
    35   17   76 1    
    36   17   77 1    
    37   18   19 1    
    38   18   27 1    
    39   18   78 1    
    40   19   20 am   BACKBONE|DICT|INTERRES
    41   19   79 1    
    42   20   21 2    
    43   20   22 1    
    44   22   23 1    
    45   22   24 1    
    46   22   80 1    
    47   23   81 1    
    48   23   82 1    
    49   23   83 1    
    50   24   25 am   BACKBONE|DICT|INTERRES
    51   24   84 1    
    52   25   26 2    
    53   27   28 2    
    54   27   29 am   BACKBONE|DICT|INTERRES
    55   29   30 1    
    56   29   85 1    
    57   30   31 1    
    58   30   32 1    
    59   30   86 1    
    60   31   87 1    
    61   31   88 1    
    62   31   89 1    
    63   32   33 2    
    64   32   34 am   BACKBONE|DICT|INTERRES
    65   34   35 1    
    66   34   90 1    
    67   35   36 1    
    68   35   37 1    
    69   35   91 1    
    70   36   92 1    
    71   36   93 1    
    72   36   94 1    
    73   37   38 2    
    74   37   39 am   BACKBONE|DICT|INTERRES
    75   39   40 1    
    76   39   95 1    
    77   40   41 1    
    78   40   42 1    
    79   40   96 1    
    80   41   97 1    
    81   41   98 1    
    82   41   99 1    
    83   42   43 2    
    84   42   44 am   BACKBONE|DICT|INTERRES
    85   44   45 1    
    86   44  100 1    
    87   45   46 1    
    88   45   47 1    
    89   45  101 1    
    90   46  102 1    
    91   46  103 1    
    92   46  104 1    
    93   47   48 2    
    94   47   49 am   BACKBONE|DICT|INTERRES
    95   49   50 1    
    96   49  105 1    
    97   50   51 1    
    98   50   52 1    
    99   50  106 1    
   100   51  107 1    
   101   51  108 1    
   102   51  109 1    
   103   52   53 2    
   104   52   54 am   BACKBONE|DICT|INTERRES
   105   54   55 1    
   106   54  110 1    
   107   55   56 1    
   108   55   59 1    
   109   55  111 1    
   110   56   57 am   BACKBONE|DICT|INTERRES
   111   56   58 2    
   112   57  112 1    
   113   57  113 1    
   114   59   60 1    
   115   59  114 1    
   116   59  115 1    
   117   60   61 1    
   118   61  116 1    
   119   61  117 1    
@<TRIPOS>SUBSTRUCTURE
     1 UNK         1 GROUP             0       ****    0 ROOT    
