@<TRIPOS>MOLECULE
3R8
117   119    1
SMALL
USER_CHARGES


@<TRIPOS>ATOM
      1 CA         12.6893  -23.7172  -43.3148 C.3       0 UNK        -0.2013 
      2 C          13.5951  -24.0907  -44.4789 C.2       0 UNK         0.4866 
      3 O          13.4058  -23.5871  -45.5866 O.2       0 UNK        -0.5176 
      4 N          14.5794  -24.9620  -44.2343 N.am      1 UNK        -0.4884 
      5 CA         15.5592  -25.4179  -45.2282 C.3       1 UNK         0.0853 
      6 C6         14.9710  -26.3772  -46.3000 C.3       10 UNK        -0.0849 
      7 S7         14.2823  -27.9352  -45.6291 S.3       10 UNK        -0.2776 
      8 C8         15.1267  -29.1932  -46.6419 C.3       10 UNK         0.0316 
      9 C9         16.5188  -29.5516  -46.1311 C.ar      10 UNK        -0.0863 
     10 C10        16.6631  -30.4802  -45.0954 C.ar      10 UNK        -0.1009 
     11 C11        17.9316  -30.9149  -44.6975 C.ar      10 UNK        -0.0712 
     12 C12        19.0646  -30.4093  -45.3417 C.ar      10 UNK        -0.0894 
     13 C13        18.9379  -29.4636  -46.3645 C.ar      10 UNK        -0.0745 
     14 C14        17.6624  -29.0328  -46.7486 C.ar      10 UNK        -0.0972 
     15 C15        20.1705  -28.9680  -47.1123 C.3       10 UNK         0.0209 
     16 S16        20.8648  -27.4379  -46.4079 S.3       10 UNK        -0.2568 
     17 C17        21.7663  -28.0562  -44.9454 C.3       10 UNK        -0.0983 
     18 CA         21.2371  -27.4588  -43.6151 C.3       3 UNK         0.0876 
     19 N          19.8101  -27.7222  -43.4406 N.am      3 UNK        -0.4424 
     20 C          18.9795  -27.0632  -42.6272 C.2       2 UNK         0.4918 
     21 O          19.3167  -26.1304  -41.8945 O.2       2 UNK        -0.4875 
     22 CA         17.5192  -27.5425  -42.6485 C.3       2 UNK         0.0481 
     23 CB         16.9778  -27.7107  -41.2184 C.3       2 UNK        -0.1831 
     24 N          16.5876  -26.7094  -43.4172 N.am      2 UNK        -0.4498 
     25 C          16.8019  -26.0228  -44.5551 C.2       1 UNK         0.5027 
     26 O          17.8954  -25.8570  -45.0931 O.2       1 UNK        -0.4969 
     27 C          22.0284  -27.9801  -42.3976 C.2       3 UNK         0.5005 
     28 O          22.6796  -29.0181  -42.4890 O.2       3 UNK        -0.5279 
     29 N          21.9290  -27.2800  -41.2599 N.am      4 UNK        -0.4463 
     30 CA         22.5665  -27.6488  -39.9893 C.3       4 UNK         0.0283 
     31 CB         22.0092  -26.7560  -38.8699 C.3       4 UNK        -0.1875 
     32 C          24.1073  -27.5968  -40.0072 C.2       4 UNK         0.4949 
     33 O          24.7386  -28.2149  -39.1482 O.2       4 UNK        -0.5039 
     34 N          24.6867  -26.8704  -40.9748 N.am      5 UNK        -0.4663 
     35 CA         26.1271  -26.7765  -41.2246 C.3       5 UNK         0.0242 
     36 CB         26.3739  -25.8368  -42.4157 C.3       5 UNK        -0.1982 
     37 C          26.7523  -28.1580  -41.4861 C.2       5 UNK         0.5017 
     38 O          26.2182  -28.9255  -42.2895 O.2       5 UNK        -0.5012 
     39 N          27.8473  -28.4549  -40.7714 N.am      6 UNK        -0.4439 
     40 CA         28.5735  -29.7341  -40.7575 C.3       6 UNK         0.0297 
     41 CB         29.2432  -29.9975  -42.1238 C.3       6 UNK        -0.2006 
     42 C          27.7304  -30.9376  -40.2766 C.2       6 UNK         0.4892 
     43 O          28.1007  -32.0791  -40.5555 O.2       6 UNK        -0.5089 
     44 N          26.6248  -30.6654  -39.5624 N.am      7 UNK        -0.4243 
     45 CA         25.6369  -31.6209  -39.0479 C.3       7 UNK         0.0196 
     46 CB         26.2541  -32.5177  -37.9531 C.3       7 UNK        -0.2007 
     47 C          24.9234  -32.4255  -40.1540 C.2       7 UNK         0.5020 
     48 O          24.5345  -33.5712  -39.9216 O.2       7 UNK        -0.5147 
     49 N          24.7370  -31.8150  -41.3344 N.am      8 UNK        -0.4734 
     50 CA         24.0254  -32.4135  -42.4719 C.3       8 UNK         0.0238 
     51 CB         24.4492  -31.6989  -43.7664 C.3       8 UNK        -0.1912 
     52 C          22.4907  -32.4262  -42.3077 C.2       8 UNK         0.5038 
     53 O          21.8053  -33.0565  -43.1141 O.2       8 UNK        -0.5046 
     54 N          21.9826  -31.7539  -41.2707 N.am      9 UNK        -0.4200 
     55 CA         20.5809  -31.7022  -40.8553 C.3       9 UNK         0.0839 
     56 C          20.4837  -31.4011  -39.3352 C.2       9 UNK         0.5513 
     57 N          19.2866  -31.4483  -38.7698 N.am      9 UNK        -0.7519 
     58 O          21.4763  -31.1185  -38.6653 O.2       9 UNK        -0.4960 
     59 C59        19.7517  -30.7177  -41.7262 C.3       10 UNK        -0.0876 
     60 S60        18.0236  -31.2587  -41.9417 S.3       10 UNK        -0.2414 
     61 C61        18.0666  -31.9756  -43.6132 C.3       10 UNK         0.0169 
     62 H62        12.7453  -22.6457  -43.1245 H         1 UNK         0.0903 
     63 H63        11.6552  -23.9677  -43.5500 H         1 UNK         0.0903 
     64 H64        12.9635  -24.2393  -42.3983 H         1 UNK         0.0903 
     65 H65        14.7232  -25.2865  -43.2893 H         1 UNK         0.3096 
     66 H66        15.9156  -24.5263  -45.7503 H         1 UNK         0.1121 
     67 H67        14.1756  -25.8730  -46.8501 H         1 UNK         0.0849 
     68 H68        15.7332  -26.6029  -47.0477 H         1 UNK         0.0849 
     69 H69        14.5112  -30.0941  -46.6476 H         1 UNK         0.0865 
     70 H70        15.1690  -28.8641  -47.6814 H         1 UNK         0.0865 
     71 H71        15.7834  -30.8900  -44.6176 H         1 UNK         0.1346 
     72 H72        20.0440  -30.7752  -45.0654 H         1 UNK         0.1412 
     73 H73        17.5612  -28.3228  -47.5581 H         1 UNK         0.1426 
     74 H74        19.9084  -28.7764  -48.1539 H         1 UNK         0.0716 
     75 H75        20.9390  -29.7421  -47.1392 H         1 UNK         0.0716 
     76 H76        22.8193  -27.8001  -45.0766 H         1 UNK         0.0695 
     77 H77        21.7272  -29.1461  -44.9263 H         1 UNK         0.0695 
     78 H78        21.3798  -26.3767  -43.6599 H         1 UNK         0.0983 
     79 H79        19.4211  -28.4262  -44.0523 H         1 UNK         0.3095 
     80 H80        17.4992  -28.5258  -43.1183 H         1 UNK         0.0454 
     81 H81        17.6512  -28.3184  -40.6123 H         1 UNK         0.0851 
     82 H82        16.0088  -28.2098  -41.2152 H         1 UNK         0.0851 
     83 H83        16.8653  -26.7499  -40.7146 H         1 UNK         0.0851 
     84 H84        15.6231  -26.8200  -43.1456 H         1 UNK         0.2976 
     85 H85        21.2974  -26.4861  -41.2478 H         1 UNK         0.3116 
     86 H86        22.2870  -28.6809  -39.7691 H         1 UNK         0.0646 
     87 H87        22.2385  -25.7035  -39.0407 H         1 UNK         0.0847 
     88 H88        20.9270  -26.8561  -38.7836 H         1 UNK         0.0847 
     89 H89        22.4354  -27.0302  -37.9037 H         1 UNK         0.0847 
     90 H90        24.0821  -26.4197  -41.6445 H         1 UNK         0.3040 
     91 H91        26.5851  -26.3380  -40.3354 H         1 UNK         0.1015 
     92 H92        27.4414  -25.7303  -42.6140 H         1 UNK         0.0786 
     93 H93        25.9800  -24.8384  -42.2243 H         1 UNK         0.0786 
     94 H94        25.9095  -26.2132  -43.3284 H         1 UNK         0.0786 
     95 H95        28.1980  -27.7567  -40.1289 H         1 UNK         0.3172 
     96 H96        29.3695  -29.6180  -40.0206 H         1 UNK         0.0595 
     97 H97        28.5080  -30.2044  -42.9022 H         1 UNK         0.0839 
     98 H98        29.9115  -30.8580  -42.0742 H         1 UNK         0.0839 
     99 H99        29.8414  -29.1449  -42.4449 H         1 UNK         0.0839 
    100 H100       26.3881  -29.6914  -39.4109 H         1 UNK         0.2998 
    101 H101       24.8587  -31.0194  -38.5748 H         1 UNK         0.0822 
    102 H102       25.4885  -33.1218  -37.4646 H         1 UNK         0.0787 
    103 H103       26.7369  -31.9225  -37.1780 H         1 UNK         0.0787 
    104 H104       26.9965  -33.2040  -38.3616 H         1 UNK         0.0787 
    105 H105       25.0878  -30.8730  -41.4655 H         1 UNK         0.3055 
    106 H106       24.3335  -33.4582  -42.5553 H         1 UNK         0.1106 
    107 H107       25.5207  -31.8000  -43.9395 H         1 UNK         0.0828 
    108 H108       23.9397  -32.1201  -44.6340 H         1 UNK         0.0828 
    109 H109       24.2192  -30.6343  -43.7386 H         1 UNK         0.0828 
    110 H110       22.6197  -31.2748  -40.6496 H         1 UNK         0.2931 
    111 H111       20.1920  -32.7142  -40.9851 H         1 UNK         0.0412 
    112 H112       18.4681  -31.6608  -39.3203 H         1 UNK         0.3472 
    113 H113       19.1975  -31.2560  -37.7843 H         1 UNK         0.3472 
    114 H114       19.7584  -29.7167  -41.2932 H         1 UNK         0.0970 
    115 H115       20.2043  -30.6070  -42.7109 H         1 UNK         0.0970 
    116 H116       18.9851  -32.5505  -43.7437 H         1 UNK         0.0612 
    117 H117       17.2484  -32.6915  -43.7036 H         1 UNK         0.0612 
@<TRIPOS>BOND
     1    1    2 1    
     2    1   62 1    
     3    1   63 1    
     4    1   64 1    
     5    2    3 2    
     6    2    4 am   BACKBONE|DICT|INTERRES
     7    4    5 1    
     8    4   65 1    
     9    5    6 1    
    10    5   25 1    
    11    5   66 1    
    12    6    7 1    
    13    6   67 1    
    14    6   68 1    
    15    7    8 1    
    16    8    9 1    
    17    8   69 1    
    18    8   70 1    
    19    9   10 ar   
    20    9   14 ar   
    21   10   11 ar   
    22   10   71 1    
    23   11   12 ar   
    24   11   61 1    
    25   12   13 ar   
    26   12   72 1    
    27   13   14 ar   
    28   13   15 1    
    29   14   73 1    
    30   15   16 1    
    31   15   74 1    
    32   15   75 1    
    33   16   17 1    
    34   17   18 1    
    35   17   76 1    
    36   17   77 1    
    37   18   19 1    
    38   18   27 1    
    39   18   78 1    
    40   19   20 am   BACKBONE|DICT|INTERRES
    41   19   79 1    
    42   20   21 2    
    43   20   22 1    
    44   22   23 1    
    45   22   24 1    
    46   22   80 1    
    47   23   81 1    
    48   23   82 1    
    49   23   83 1    
    50   24   25 am   BACKBONE|DICT|INTERRES
    51   24   84 1    
    52   25   26 2    
    53   27   28 2    
    54   27   29 am   BACKBONE|DICT|INTERRES
    55   29   30 1    
    56   29   85 1    
    57   30   31 1    
    58   30   32 1    
    59   30   86 1    
    60   31   87 1    
    61   31   88 1    
    62   31   89 1    
    63   32   33 2    
    64   32   34 am   BACKBONE|DICT|INTERRES
    65   34   35 1    
    66   34   90 1    
    67   35   36 1    
    68   35   37 1    
    69   35   91 1    
    70   36   92 1    
    71   36   93 1    
    72   36   94 1    
    73   37   38 2    
    74   37   39 am   BACKBONE|DICT|INTERRES
    75   39   40 1    
    76   39   95 1    
    77   40   41 1    
    78   40   42 1    
    79   40   96 1    
    80   41   97 1    
    81   41   98 1    
    82   41   99 1    
    83   42   43 2    
    84   42   44 am   BACKBONE|DICT|INTERRES
    85   44   45 1    
    86   44  100 1    
    87   45   46 1    
    88   45   47 1    
    89   45  101 1    
    90   46  102 1    
    91   46  103 1    
    92   46  104 1    
    93   47   48 2    
    94   47   49 am   BACKBONE|DICT|INTERRES
    95   49   50 1    
    96   49  105 1    
    97   50   51 1    
    98   50   52 1    
    99   50  106 1    
   100   51  107 1    
   101   51  108 1    
   102   51  109 1    
   103   52   53 2    
   104   52   54 am   BACKBONE|DICT|INTERRES
   105   54   55 1    
   106   54  110 1    
   107   55   56 1    
   108   55   59 1    
   109   55  111 1    
   110   56   57 am   BACKBONE|DICT|INTERRES
   111   56   58 2    
   112   57  112 1    
   113   57  113 1    
   114   59   60 1    
   115   59  114 1    
   116   59  115 1    
   117   60   61 1    
   118   61  116 1    
   119   61  117 1    
@<TRIPOS>SUBSTRUCTURE
     1 UNK         1 GROUP             0       ****    0 ROOT    
