@<TRIPOS>MOLECULE
3R8
117   119    1
SMALL
USER_CHARGES


@<TRIPOS>ATOM
      1 CA         21.4142  -24.7206  -42.0593 C.3       0 UNK        -0.2013 
      2 C          20.5070  -25.2050  -43.1798 C.2       0 UNK         0.4866 
      3 O          20.7215  -26.2982  -43.7080 O.2       0 UNK        -0.5176 
      4 N          19.5196  -24.3855  -43.5699 N.am      1 UNK        -0.4884 
      5 CA         18.4811  -24.6502  -44.5864 C.3       1 UNK         0.0853 
      6 C6         17.5681  -25.8554  -44.2274 C.3       10 UNK        -0.0849 
      7 S7         16.7699  -25.7738  -42.5862 S.3       10 UNK        -0.2776 
      8 C8         15.4334  -27.0096  -42.7745 C.3       10 UNK         0.0316 
      9 C9         15.9770  -28.3711  -43.1897 C.ar      10 UNK        -0.0863 
     10 C10        16.4434  -29.2757  -42.2309 C.ar      10 UNK        -0.1009 
     11 C11        17.0574  -30.4751  -42.6119 C.ar      10 UNK        -0.0712 
     12 C12        17.1782  -30.7661  -43.9788 C.ar      10 UNK        -0.0894 
     13 C13        16.7059  -29.8740  -44.9450 C.ar      10 UNK        -0.0745 
     14 C14        16.0749  -28.6968  -44.5445 C.ar      10 UNK        -0.0972 
     15 C15        16.9567  -30.1365  -46.4231 C.3       10 UNK         0.0209 
     16 S16        18.2657  -29.0459  -47.0813 S.3       10 UNK        -0.2568 
     17 C17        19.6325  -29.3953  -45.9241 C.3       10 UNK        -0.0983 
     18 CA         20.9937  -28.7991  -46.3641 C.3       3 UNK         0.0876 
     19 N          20.9362  -27.3343  -46.4485 N.am      3 UNK        -0.4424 
     20 C          21.2578  -26.5939  -47.5189 C.2       2 UNK         0.4918 
     21 O          21.6568  -27.0720  -48.5816 O.2       2 UNK        -0.4875 
     22 CA         21.1517  -25.0568  -47.3726 C.3       2 UNK         0.0481 
     23 CB         20.6984  -24.3653  -48.6759 C.3       2 UNK        -0.1831 
     24 N          20.3436  -24.6361  -46.2186 N.am      2 UNK        -0.4498 
     25 C          19.0272  -24.8213  -46.0282 C.2       1 UNK         0.5027 
     26 O          18.2542  -25.1580  -46.9256 O.2       1 UNK        -0.4969 
     27 C          22.0929  -29.2556  -45.3788 C.2       3 UNK         0.5005 
     28 O          22.2883  -30.4619  -45.2238 O.2       3 UNK        -0.5279 
     29 N          22.7601  -28.3012  -44.7074 N.am      4 UNK        -0.4463 
     30 CA         23.6561  -28.4787  -43.5580 C.3       4 UNK         0.0283 
     31 CB         24.9026  -29.3159  -43.9166 C.3       4 UNK        -0.1875 
     32 C          22.9016  -29.0148  -42.3271 C.2       4 UNK         0.4949 
     33 O          23.4158  -29.8678  -41.6041 O.2       4 UNK        -0.5039 
     34 N          21.6901  -28.4897  -42.0926 N.am      5 UNK        -0.4663 
     35 CA         20.8002  -28.8725  -40.9900 C.3       5 UNK         0.0242 
     36 CB         19.4769  -28.1061  -41.1273 C.3       5 UNK        -0.1982 
     37 C          21.4006  -28.6416  -39.5927 C.2       5 UNK         0.5017 
     38 O          21.0927  -29.3918  -38.6671 O.2       5 UNK        -0.5012 
     39 N          22.2556  -27.6169  -39.4789 N.am      6 UNK        -0.4439 
     40 CA         22.9440  -27.2247  -38.2498 C.3       6 UNK         0.0297 
     41 CB         23.4695  -25.7886  -38.4113 C.3       6 UNK        -0.2006 
     42 C          24.0897  -28.1698  -37.8446 C.2       6 UNK         0.4892 
     43 O          24.4503  -28.1837  -36.6669 O.2       6 UNK        -0.5089 
     44 N          24.6510  -28.9256  -38.7991 N.am      7 UNK        -0.4243 
     45 CA         25.7733  -29.8356  -38.5737 C.3       7 UNK         0.0196 
     46 CB         27.0939  -29.0365  -38.5337 C.3       7 UNK        -0.2007 
     47 C          25.7788  -30.9308  -39.6552 C.2       7 UNK         0.5020 
     48 O          26.6098  -30.8730  -40.5605 O.2       7 UNK        -0.5147 
     49 N          24.8708  -31.9141  -39.6144 N.am      8 UNK        -0.4734 
     50 CA         23.7869  -32.1241  -38.6510 C.3       8 UNK         0.0238 
     51 CB         24.3012  -32.9417  -37.4472 C.3       8 UNK        -0.1912 
     52 C          22.6137  -32.8017  -39.3761 C.2       8 UNK         0.5038 
     53 O          22.1112  -33.8256  -38.9091 O.2       8 UNK        -0.5046 
     54 N          22.2290  -32.2382  -40.5294 N.am      9 UNK        -0.4200 
     55 CA         21.2741  -32.8101  -41.4910 C.3       9 UNK         0.0839 
     56 C          21.8595  -34.0469  -42.2420 C.2       9 UNK         0.5513 
     57 N          21.0333  -34.8146  -42.9386 N.am      9 UNK        -0.7519 
     58 O          23.0633  -34.3008  -42.2332 O.2       9 UNK        -0.4960 
     59 C59        19.8606  -33.0423  -40.8679 C.3       10 UNK        -0.0876 
     60 S60        18.5129  -32.8695  -42.0895 S.3       10 UNK        -0.2414 
     61 C61        17.6229  -31.3796  -41.5118 C.3       10 UNK         0.0169 
     62 H62        21.1527  -25.2093  -41.1223 H         1 UNK         0.0903 
     63 H63        21.3342  -23.6436  -41.9135 H         1 UNK         0.0903 
     64 H64        22.4541  -24.9511  -42.2892 H         1 UNK         0.0903 
     65 H65        19.4196  -23.4970  -43.0975 H         1 UNK         0.3096 
     66 H66        17.8532  -23.7582  -44.6167 H         1 UNK         0.1121 
     67 H67        16.7704  -25.9406  -44.9670 H         1 UNK         0.0849 
     68 H68        18.1360  -26.7863  -44.2806 H         1 UNK         0.0849 
     69 H69        14.8929  -27.0969  -41.8308 H         1 UNK         0.0865 
     70 H70        14.7089  -26.6506  -43.5072 H         1 UNK         0.0865 
     71 H71        16.3730  -29.0203  -41.1823 H         1 UNK         0.1346 
     72 H72        17.6751  -31.6653  -44.3108 H         1 UNK         0.1412 
     73 H73        15.7285  -28.0008  -45.2959 H         1 UNK         0.1426 
     74 H74        17.2393  -31.1770  -46.5905 H         1 UNK         0.0716 
     75 H75        16.0370  -29.9721  -46.9861 H         1 UNK         0.0716 
     76 H76        19.7028  -30.4802  -45.8215 H         1 UNK         0.0695 
     77 H77        19.3580  -29.0103  -44.9395 H         1 UNK         0.0695 
     78 H78        21.2542  -29.2229  -47.3362 H         1 UNK         0.0983 
     79 H79        20.6270  -26.8617  -45.6047 H         1 UNK         0.3095 
     80 H80        22.1641  -24.7108  -47.1599 H         1 UNK         0.0454 
     81 H81        20.6070  -23.2875  -48.5440 H         1 UNK         0.0851 
     82 H82        19.7390  -24.7448  -49.0275 H         1 UNK         0.0851 
     83 H83        21.4205  -24.5321  -49.4760 H         1 UNK         0.0851 
     84 H84        20.8706  -24.3403  -45.4084 H         1 UNK         0.2976 
     85 H85        22.4995  -27.3443  -44.9019 H         1 UNK         0.3116 
     86 H86        24.0021  -27.4802  -43.2873 H         1 UNK         0.0646 
     87 H87        25.4112  -28.9179  -44.7942 H         1 UNK         0.0847 
     88 H88        25.6207  -29.3130  -43.0953 H         1 UNK         0.0847 
     89 H89        24.6522  -30.3582  -44.1152 H         1 UNK         0.0847 
     90 H90        21.3337  -27.7873  -42.7371 H         1 UNK         0.3040 
     91 H91        20.5919  -29.9382  -41.0898 H         1 UNK         0.1015 
     92 H92        19.6043  -27.0360  -40.9694 H         1 UNK         0.0786 
     93 H93        18.7474  -28.4501  -40.3937 H         1 UNK         0.0786 
     94 H94        19.0409  -28.2429  -42.1170 H         1 UNK         0.0786 
     95 H95        22.4524  -27.0760  -40.3072 H         1 UNK         0.3172 
     96 H96        22.2146  -27.2295  -37.4369 H         1 UNK         0.0595 
     97 H97        24.1984  -25.7119  -39.2192 H         1 UNK         0.0839 
     98 H98        23.9603  -25.4483  -37.4983 H         1 UNK         0.0839 
     99 H99        22.6598  -25.0889  -38.6197 H         1 UNK         0.0839 
    100 H100       24.2700  -28.9177  -39.7382 H         1 UNK         0.2998 
    101 H101       25.6565  -30.3244  -37.6059 H         1 UNK         0.0822 
    102 H102       27.1114  -28.3349  -37.6996 H         1 UNK         0.0787 
    103 H103       27.9495  -29.7019  -38.4114 H         1 UNK         0.0787 
    104 H104       27.2487  -28.4675  -39.4513 H         1 UNK         0.0787 
    105 H105       24.8860  -32.5869  -40.3697 H         1 UNK         0.3055 
    106 H106       23.3982  -31.1730  -38.2864 H         1 UNK         0.1106 
    107 H107       25.1205  -32.4444  -36.9304 H         1 UNK         0.0828 
    108 H108       23.5084  -33.0951  -36.7138 H         1 UNK         0.0828 
    109 H109       24.6546  -33.9265  -37.7551 H         1 UNK         0.0828 
    110 H110       22.7386  -31.4214  -40.8610 H         1 UNK         0.2931 
    111 H111       21.1843  -32.0356  -42.2540 H         1 UNK         0.0412 
    112 H112       20.0471  -34.6000  -42.9685 H         1 UNK         0.3472 
    113 H113       21.3969  -35.6088  -43.4418 H         1 UNK         0.3472 
    114 H114       19.7967  -34.0299  -40.4072 H         1 UNK         0.0970 
    115 H115       19.6883  -32.3385  -40.0527 H         1 UNK         0.0970 
    116 H116       16.8092  -31.6984  -40.8592 H         1 UNK         0.0612 
    117 H117       18.2927  -30.7794  -40.8976 H         1 UNK         0.0612 
@<TRIPOS>BOND
     1    1    2 1    
     2    1   62 1    
     3    1   63 1    
     4    1   64 1    
     5    2    3 2    
     6    2    4 am   BACKBONE|DICT|INTERRES
     7    4    5 1    
     8    4   65 1    
     9    5    6 1    
    10    5   25 1    
    11    5   66 1    
    12    6    7 1    
    13    6   67 1    
    14    6   68 1    
    15    7    8 1    
    16    8    9 1    
    17    8   69 1    
    18    8   70 1    
    19    9   10 ar   
    20    9   14 ar   
    21   10   11 ar   
    22   10   71 1    
    23   11   12 ar   
    24   11   61 1    
    25   12   13 ar   
    26   12   72 1    
    27   13   14 ar   
    28   13   15 1    
    29   14   73 1    
    30   15   16 1    
    31   15   74 1    
    32   15   75 1    
    33   16   17 1    
    34   17   18 1    
    35   17   76 1    
    36   17   77 1    
    37   18   19 1    
    38   18   27 1    
    39   18   78 1    
    40   19   20 am   BACKBONE|DICT|INTERRES
    41   19   79 1    
    42   20   21 2    
    43   20   22 1    
    44   22   23 1    
    45   22   24 1    
    46   22   80 1    
    47   23   81 1    
    48   23   82 1    
    49   23   83 1    
    50   24   25 am   BACKBONE|DICT|INTERRES
    51   24   84 1    
    52   25   26 2    
    53   27   28 2    
    54   27   29 am   BACKBONE|DICT|INTERRES
    55   29   30 1    
    56   29   85 1    
    57   30   31 1    
    58   30   32 1    
    59   30   86 1    
    60   31   87 1    
    61   31   88 1    
    62   31   89 1    
    63   32   33 2    
    64   32   34 am   BACKBONE|DICT|INTERRES
    65   34   35 1    
    66   34   90 1    
    67   35   36 1    
    68   35   37 1    
    69   35   91 1    
    70   36   92 1    
    71   36   93 1    
    72   36   94 1    
    73   37   38 2    
    74   37   39 am   BACKBONE|DICT|INTERRES
    75   39   40 1    
    76   39   95 1    
    77   40   41 1    
    78   40   42 1    
    79   40   96 1    
    80   41   97 1    
    81   41   98 1    
    82   41   99 1    
    83   42   43 2    
    84   42   44 am   BACKBONE|DICT|INTERRES
    85   44   45 1    
    86   44  100 1    
    87   45   46 1    
    88   45   47 1    
    89   45  101 1    
    90   46  102 1    
    91   46  103 1    
    92   46  104 1    
    93   47   48 2    
    94   47   49 am   BACKBONE|DICT|INTERRES
    95   49   50 1    
    96   49  105 1    
    97   50   51 1    
    98   50   52 1    
    99   50  106 1    
   100   51  107 1    
   101   51  108 1    
   102   51  109 1    
   103   52   53 2    
   104   52   54 am   BACKBONE|DICT|INTERRES
   105   54   55 1    
   106   54  110 1    
   107   55   56 1    
   108   55   59 1    
   109   55  111 1    
   110   56   57 am   BACKBONE|DICT|INTERRES
   111   56   58 2    
   112   57  112 1    
   113   57  113 1    
   114   59   60 1    
   115   59  114 1    
   116   59  115 1    
   117   60   61 1    
   118   61  116 1    
   119   61  117 1    
@<TRIPOS>SUBSTRUCTURE
     1 UNK         1 GROUP             0       ****    0 ROOT    
