@<TRIPOS>MOLECULE
3R8
117   119    1
SMALL
USER_CHARGES


@<TRIPOS>ATOM
      1 CA         15.9954  -25.6576  -48.7083 C.3       0 UNK        -0.2013 
      2 C          16.6997  -26.5392  -47.6876 C.2       0 UNK         0.4866 
      3 O          17.4146  -27.4667  -48.0690 O.2       0 UNK        -0.5176 
      4 N          16.4959  -26.2645  -46.3934 N.am      1 UNK        -0.4884 
      5 CA         17.1320  -26.9765  -45.2804 C.3       1 UNK         0.0853 
      6 C6         16.4042  -26.7110  -43.9396 C.3       10 UNK        -0.0849 
      7 S7         14.7284  -27.4301  -43.8681 S.3       10 UNK        -0.2776 
      8 C8         15.0372  -29.2326  -43.9331 C.3       10 UNK         0.0316 
      9 C9         16.1972  -29.6880  -43.0532 C.ar      10 UNK        -0.0863 
     10 C10        17.3066  -30.3199  -43.6224 C.ar      10 UNK        -0.1009 
     11 C11        18.3767  -30.7379  -42.8250 C.ar      10 UNK        -0.0712 
     12 C12        18.3280  -30.5233  -41.4427 C.ar      10 UNK        -0.0894 
     13 C13        17.2222  -29.8931  -40.8591 C.ar      10 UNK        -0.0745 
     14 C14        16.1594  -29.4852  -41.6713 C.ar      10 UNK        -0.0972 
     15 C15        17.1410  -29.6649  -39.3517 C.3       10 UNK         0.0209 
     16 S16        18.6022  -28.8415  -38.6301 S.3       10 UNK        -0.2568 
     17 C17        18.8686  -27.4126  -39.7355 C.3       10 UNK        -0.0983 
     18 CA         20.2390  -27.5357  -40.4556 C.3       3 UNK         0.0876 
     19 N          20.1500  -27.3299  -41.9045 N.am      3 UNK        -0.4424 
     20 C          21.1087  -27.6767  -42.7773 C.2       2 UNK         0.4918 
     21 O          22.1754  -28.1959  -42.4401 O.2       2 UNK        -0.4875 
     22 CA         20.8212  -27.4074  -44.2643 C.3       2 UNK         0.0481 
     23 CB         21.6126  -28.3443  -45.1932 C.3       2 UNK        -0.1831 
     24 N          19.3904  -27.5405  -44.5496 N.am      2 UNK        -0.4498 
     25 C          18.6261  -26.6181  -45.1486 C.2       1 UNK         0.5027 
     26 O          19.0387  -25.5215  -45.5352 O.2       1 UNK        -0.4969 
     27 C          21.3246  -26.6564  -39.8060 C.2       3 UNK         0.5005 
     28 O          22.0717  -27.1438  -38.9564 O.2       3 UNK        -0.5279 
     29 N          21.4416  -25.4042  -40.2753 N.am      4 UNK        -0.4463 
     30 CA         22.4425  -24.4191  -39.8451 C.3       4 UNK         0.0283 
     31 CB         22.1244  -23.0621  -40.4931 C.3       4 UNK        -0.1875 
     32 C          23.8999  -24.8239  -40.1408 C.2       4 UNK         0.4949 
     33 O          24.8098  -24.3141  -39.4885 O.2       4 UNK        -0.5039 
     34 N          24.0952  -25.7544  -41.0846 N.am      5 UNK        -0.4663 
     35 CA         25.3800  -26.3733  -41.4190 C.3       5 UNK         0.0242 
     36 CB         25.3986  -26.6660  -42.9299 C.3       5 UNK        -0.1982 
     37 C          25.6612  -27.6379  -40.5776 C.2       5 UNK         0.5017 
     38 O          26.4716  -28.4664  -40.9924 O.2       5 UNK        -0.5012 
     39 N          24.9882  -27.7665  -39.4227 N.am      6 UNK        -0.4439 
     40 CA         25.0089  -28.8926  -38.4825 C.3       6 UNK         0.0297 
     41 CB         26.4203  -29.1261  -37.9006 C.3       6 UNK        -0.2006 
     42 C          24.3752  -30.1559  -39.0916 C.2       6 UNK         0.4892 
     43 O          24.9524  -31.2410  -39.0030 O.2       6 UNK        -0.5089 
     44 N          23.1902  -29.9696  -39.6943 N.am      7 UNK        -0.4243 
     45 CA         22.3709  -30.9770  -40.3804 C.3       7 UNK         0.0196 
     46 CB         21.7616  -31.9715  -39.3710 C.3       7 UNK        -0.2007 
     47 C          23.1228  -31.6620  -41.5329 C.2       7 UNK         0.5020 
     48 O          23.2206  -32.8900  -41.5765 O.2       7 UNK        -0.5147 
     49 N          23.6279  -30.8496  -42.4701 N.am      8 UNK        -0.4734 
     50 CA         24.3453  -31.3013  -43.6668 C.3       8 UNK         0.0238 
     51 CB         25.2864  -30.1817  -44.1462 C.3       8 UNK        -0.1912 
     52 C          23.3686  -31.7682  -44.7638 C.2       8 UNK         0.5038 
     53 O          23.3827  -31.2346  -45.8741 O.2       8 UNK        -0.5046 
     54 N          22.5120  -32.7355  -44.4164 N.am      9 UNK        -0.4200 
     55 CA         21.4552  -33.2865  -45.2762 C.3       9 UNK         0.0839 
     56 C          21.9627  -34.1761  -46.4496 C.2       9 UNK         0.5513 
     57 N          23.2223  -34.5954  -46.4757 N.am      9 UNK        -0.7519 
     58 O          21.1946  -34.4903  -47.3551 O.2       9 UNK        -0.4960 
     59 C59        20.3779  -34.0431  -44.4494 C.3       10 UNK        -0.0876 
     60 S60        19.6458  -33.1862  -43.0032 S.3       10 UNK        -0.2414 
     61 C61        19.5742  -31.4267  -43.4656 C.3       10 UNK         0.0169 
     62 H62        15.3461  -26.2617  -49.3415 H         1 UNK         0.0903 
     63 H63        15.3857  -24.8896  -48.2327 H         1 UNK         0.0903 
     64 H64        16.7283  -25.1626  -49.3449 H         1 UNK         0.0903 
     65 H65        15.9079  -25.4849  -46.1353 H         1 UNK         0.3096 
     66 H66        17.0818  -28.0429  -45.5065 H         1 UNK         0.1121 
     67 H67        16.3198  -25.6371  -43.7619 H         1 UNK         0.0849 
     68 H68        16.9697  -27.0981  -43.0906 H         1 UNK         0.0849 
     69 H69        14.1312  -29.7543  -43.6216 H         1 UNK         0.0865 
     70 H70        15.2037  -29.5204  -44.9723 H         1 UNK         0.0865 
     71 H71        17.3336  -30.4968  -44.6893 H         1 UNK         0.1346 
     72 H72        19.1448  -30.8565  -40.8183 H         1 UNK         0.1412 
     73 H73        15.2976  -29.0012  -41.2315 H         1 UNK         0.1426 
     74 H74        17.0050  -30.6284  -38.8591 H         1 UNK         0.0716 
     75 H75        16.2624  -29.0682  -39.1015 H         1 UNK         0.0716 
     76 H76        18.7894  -26.4972  -39.1453 H         1 UNK         0.0695 
     77 H77        18.0490  -27.3566  -40.4526 H         1 UNK         0.0695 
     78 H78        20.5892  -28.5593  -40.3376 H         1 UNK         0.0983 
     79 H79        19.3081  -26.8996  -42.2549 H         1 UNK         0.3095 
     80 H80        21.1535  -26.3852  -44.4544 H         1 UNK         0.0454 
     81 H81        21.4021  -28.1335  -46.2416 H         1 UNK         0.0851 
     82 H82        21.3747  -29.3918  -45.0099 H         1 UNK         0.0851 
     83 H83        22.6866  -28.2223  -45.0532 H         1 UNK         0.0851 
     84 H84        18.9605  -28.4002  -44.2350 H         1 UNK         0.2976 
     85 H85        20.7912  -25.1016  -40.9862 H         1 UNK         0.3116 
     86 H86        22.3524  -24.3107  -38.7622 H         1 UNK         0.0646 
     87 H87        21.1291  -22.7124  -40.2184 H         1 UNK         0.0847 
     88 H88        22.1769  -23.1110  -41.5815 H         1 UNK         0.0847 
     89 H89        22.8328  -22.2986  -40.1681 H         1 UNK         0.0847 
     90 H90        23.2848  -26.1436  -41.5460 H         1 UNK         0.3040 
     91 H91        26.1889  -25.6712  -41.2048 H         1 UNK         0.1015 
     92 H92        26.3483  -27.1037  -43.2405 H         1 UNK         0.0786 
     93 H93        25.2619  -25.7535  -43.5104 H         1 UNK         0.0786 
     94 H94        24.6080  -27.3603  -43.2105 H         1 UNK         0.0786 
     95 H95        24.3045  -27.0506  -39.2084 H         1 UNK         0.3172 
     96 H96        24.3624  -28.6013  -37.6531 H         1 UNK         0.0595 
     97 H97        27.1193  -29.4893  -38.6544 H         1 UNK         0.0839 
     98 H98        26.3923  -29.8705  -37.1040 H         1 UNK         0.0839 
     99 H99        26.8310  -28.2111  -37.4741 H         1 UNK         0.0839 
    100 H100       22.8230  -29.0253  -39.6895 H         1 UNK         0.2998 
    101 H101       21.5439  -30.4523  -40.8536 H         1 UNK         0.0822 
    102 H102       21.1775  -31.4539  -38.6099 H         1 UNK         0.0787 
    103 H103       21.0922  -32.6725  -39.8716 H         1 UNK         0.0787 
    104 H104       22.5291  -32.5587  -38.8658 H         1 UNK         0.0787 
    105 H105       23.4366  -29.8554  -42.3987 H         1 UNK         0.3055 
    106 H106       24.9666  -32.1602  -43.4026 H         1 UNK         0.1106 
    107 H107       24.7337  -29.3066  -44.4850 H         1 UNK         0.0828 
    108 H108       25.8992  -30.5203  -44.9825 H         1 UNK         0.0828 
    109 H109       25.9664  -29.8669  -43.3545 H         1 UNK         0.0828 
    110 H110       22.5678  -33.1024  -43.4719 H         1 UNK         0.2931 
    111 H111       20.9716  -32.4396  -45.7635 H         1 UNK         0.0412 
    112 H112       23.5370  -35.1685  -47.2432 H         1 UNK         0.3472 
    113 H113       23.8603  -34.3452  -45.7376 H         1 UNK         0.3472 
    114 H114       19.5488  -34.3259  -45.1011 H         1 UNK         0.0970 
    115 H115       20.7921  -34.9837  -44.0811 H         1 UNK         0.0970 
    116 H116       20.4961  -30.9309  -43.1603 H         1 UNK         0.0612 
    117 H117       19.5088  -31.3306  -44.5488 H         1 UNK         0.0612 
@<TRIPOS>BOND
     1    1    2 1    
     2    1   62 1    
     3    1   63 1    
     4    1   64 1    
     5    2    3 2    
     6    2    4 am   BACKBONE|DICT|INTERRES
     7    4    5 1    
     8    4   65 1    
     9    5    6 1    
    10    5   25 1    
    11    5   66 1    
    12    6    7 1    
    13    6   67 1    
    14    6   68 1    
    15    7    8 1    
    16    8    9 1    
    17    8   69 1    
    18    8   70 1    
    19    9   10 ar   
    20    9   14 ar   
    21   10   11 ar   
    22   10   71 1    
    23   11   12 ar   
    24   11   61 1    
    25   12   13 ar   
    26   12   72 1    
    27   13   14 ar   
    28   13   15 1    
    29   14   73 1    
    30   15   16 1    
    31   15   74 1    
    32   15   75 1    
    33   16   17 1    
    34   17   18 1    
    35   17   76 1    
    36   17   77 1    
    37   18   19 1    
    38   18   27 1    
    39   18   78 1    
    40   19   20 am   BACKBONE|DICT|INTERRES
    41   19   79 1    
    42   20   21 2    
    43   20   22 1    
    44   22   23 1    
    45   22   24 1    
    46   22   80 1    
    47   23   81 1    
    48   23   82 1    
    49   23   83 1    
    50   24   25 am   BACKBONE|DICT|INTERRES
    51   24   84 1    
    52   25   26 2    
    53   27   28 2    
    54   27   29 am   BACKBONE|DICT|INTERRES
    55   29   30 1    
    56   29   85 1    
    57   30   31 1    
    58   30   32 1    
    59   30   86 1    
    60   31   87 1    
    61   31   88 1    
    62   31   89 1    
    63   32   33 2    
    64   32   34 am   BACKBONE|DICT|INTERRES
    65   34   35 1    
    66   34   90 1    
    67   35   36 1    
    68   35   37 1    
    69   35   91 1    
    70   36   92 1    
    71   36   93 1    
    72   36   94 1    
    73   37   38 2    
    74   37   39 am   BACKBONE|DICT|INTERRES
    75   39   40 1    
    76   39   95 1    
    77   40   41 1    
    78   40   42 1    
    79   40   96 1    
    80   41   97 1    
    81   41   98 1    
    82   41   99 1    
    83   42   43 2    
    84   42   44 am   BACKBONE|DICT|INTERRES
    85   44   45 1    
    86   44  100 1    
    87   45   46 1    
    88   45   47 1    
    89   45  101 1    
    90   46  102 1    
    91   46  103 1    
    92   46  104 1    
    93   47   48 2    
    94   47   49 am   BACKBONE|DICT|INTERRES
    95   49   50 1    
    96   49  105 1    
    97   50   51 1    
    98   50   52 1    
    99   50  106 1    
   100   51  107 1    
   101   51  108 1    
   102   51  109 1    
   103   52   53 2    
   104   52   54 am   BACKBONE|DICT|INTERRES
   105   54   55 1    
   106   54  110 1    
   107   55   56 1    
   108   55   59 1    
   109   55  111 1    
   110   56   57 am   BACKBONE|DICT|INTERRES
   111   56   58 2    
   112   57  112 1    
   113   57  113 1    
   114   59   60 1    
   115   59  114 1    
   116   59  115 1    
   117   60   61 1    
   118   61  116 1    
   119   61  117 1    
@<TRIPOS>SUBSTRUCTURE
     1 UNK         1 GROUP             0       ****    0 ROOT    
