@<TRIPOS>MOLECULE
3R8
117   119    1
SMALL
USER_CHARGES


@<TRIPOS>ATOM
      1 CA         18.8584  -27.6677  -41.0286 C.3       0 UNK        -0.2013 
      2 C          18.4370  -27.0498  -42.3512 C.2       0 UNK         0.4866 
      3 O          19.2369  -27.0040  -43.2850 O.2       0 UNK        -0.5176 
      4 N          17.1882  -26.5677  -42.4263 N.am      1 UNK        -0.4884 
      5 CA         16.5518  -25.9342  -43.5904 C.3       1 UNK         0.0853 
      6 C6         16.2604  -26.9272  -44.7510 C.3       10 UNK        -0.0849 
      7 S7         15.1179  -28.2525  -44.2254 S.3       10 UNK        -0.2776 
      8 C8         15.7662  -29.7123  -45.1055 C.3       10 UNK         0.0316 
      9 C9         17.1746  -30.0907  -44.6659 C.ar      10 UNK        -0.0863 
     10 C10        17.4087  -30.5746  -43.3752 C.ar      10 UNK        -0.1009 
     11 C11        18.7008  -30.9262  -42.9728 C.ar      10 UNK        -0.0712 
     12 C12        19.7658  -30.7814  -43.8682 C.ar      10 UNK        -0.0894 
     13 C13        19.5414  -30.3154  -45.1669 C.ar      10 UNK        -0.0745 
     14 C14        18.2434  -29.9755  -45.5596 C.ar      10 UNK        -0.0972 
     15 C15        20.6892  -30.2152  -46.1624 C.3       10 UNK         0.0209 
     16 S16        20.9928  -28.5045  -46.7038 S.3       10 UNK        -0.2568 
     17 C17        21.9454  -27.8435  -45.2992 C.3       10 UNK        -0.0983 
     18 CA         22.1039  -26.3079  -45.4107 C.3       3 UNK         0.0876 
     19 N          20.8302  -25.6099  -45.2298 N.am      3 UNK        -0.4424 
     20 C          20.5520  -24.4057  -45.7505 C.2       2 UNK         0.4918 
     21 O          21.3528  -23.7706  -46.4388 O.2       2 UNK        -0.4875 
     22 CA         19.1567  -23.8062  -45.4862 C.3       2 UNK         0.0481 
     23 CB         18.5819  -23.0995  -46.7283 C.3       2 UNK        -0.1831 
     24 N          18.2117  -24.8243  -45.0293 N.am      2 UNK        -0.4498 
     25 C          17.3389  -24.6789  -44.0250 C.2       1 UNK         0.5027 
     26 O          17.1577  -23.6202  -43.4206 O.2       1 UNK        -0.4969 
     27 C          23.1312  -25.7848  -44.3926 C.2       3 UNK         0.5005 
     28 O          22.8237  -25.6938  -43.2017 O.2       3 UNK        -0.5279 
     29 N          24.3514  -25.4952  -44.8688 N.am      4 UNK        -0.4463 
     30 CA         25.4748  -24.9896  -44.0677 C.3       4 UNK         0.0283 
     31 CB         26.6253  -24.5870  -45.0040 C.3       4 UNK        -0.1875 
     32 C          25.9773  -25.9739  -42.9954 C.2       4 UNK         0.4949 
     33 O          26.5697  -25.5406  -42.0079 O.2       4 UNK        -0.5039 
     34 N          25.7134  -27.2720  -43.1954 N.am      5 UNK        -0.4663 
     35 CA         25.9794  -28.3432  -42.2334 C.3       5 UNK         0.0242 
     36 CB         25.9178  -29.6917  -42.9686 C.3       5 UNK        -0.1982 
     37 C          25.0178  -28.3469  -41.0283 C.2       5 UNK         0.5017 
     38 O          25.3031  -29.0405  -40.0517 O.2       5 UNK        -0.5012 
     39 N          23.9069  -27.5967  -41.1152 N.am      6 UNK        -0.4439 
     40 CA         22.8123  -27.5225  -40.1447 C.3       6 UNK         0.0297 
     41 CB         23.2838  -26.8709  -38.8249 C.3       6 UNK        -0.2006 
     42 C          22.1178  -28.8878  -39.9729 C.2       6 UNK         0.4892 
     43 O          21.9222  -29.5916  -40.9663 O.2       6 UNK        -0.5089 
     44 N          21.7438  -29.2438  -38.7361 N.am      7 UNK        -0.4243 
     45 CA         21.0203  -30.4650  -38.3590 C.3       7 UNK         0.0196 
     46 CB         20.3970  -30.2571  -36.9661 C.3       7 UNK        -0.2007 
     47 C          21.8686  -31.7555  -38.4426 C.2       7 UNK         0.5020 
     48 O          21.8308  -32.5803  -37.5289 O.2       7 UNK        -0.5147 
     49 N          22.6186  -31.9142  -39.5379 N.am      8 UNK        -0.4734 
     50 CA         23.4552  -33.0792  -39.8380 C.3       8 UNK         0.0238 
     51 CB         24.6185  -32.6258  -40.7355 C.3       8 UNK        -0.1912 
     52 C          22.6744  -34.2238  -40.5095 C.2       8 UNK         0.5038 
     53 O          23.2024  -35.3328  -40.6042 O.2       8 UNK        -0.5046 
     54 N          21.4573  -33.9341  -40.9868 N.am      9 UNK        -0.4200 
     55 CA         20.5429  -34.8821  -41.6350 C.3       9 UNK         0.0839 
     56 C          20.0162  -35.9961  -40.6852 C.2       9 UNK         0.5513 
     57 N          19.5839  -37.1214  -41.2379 N.am      9 UNK        -0.7519 
     58 O          19.9707  -35.8461  -39.4656 O.2       9 UNK        -0.4960 
     59 C59        19.4007  -34.1400  -42.3804 C.3       10 UNK        -0.0876 
     60 S60        18.3161  -33.1300  -41.3068 S.3       10 UNK        -0.2414 
     61 C61        18.9493  -31.4424  -41.5637 C.3       10 UNK         0.0169 
     62 H62        18.0015  -27.9268  -40.4074 H         1 UNK         0.0903 
     63 H63        19.4261  -28.5767  -41.2164 H         1 UNK         0.0903 
     64 H64        19.4921  -26.9759  -40.4751 H         1 UNK         0.0903 
     65 H65        16.5990  -26.6230  -41.6074 H         1 UNK         0.3096 
     66 H66        15.5877  -25.5614  -43.2396 H         1 UNK         0.1121 
     67 H67        15.8021  -26.4089  -45.5954 H         1 UNK         0.0849 
     68 H68        17.1849  -27.3687  -45.1237 H         1 UNK         0.0849 
     69 H69        15.1000  -30.5567  -44.9238 H         1 UNK         0.0865 
     70 H70        15.7299  -29.5239  -46.1797 H         1 UNK         0.0865 
     71 H71        16.5847  -30.6745  -42.6819 H         1 UNK         0.1346 
     72 H72        20.7682  -31.0404  -43.5556 H         1 UNK         0.1412 
     73 H73        18.0712  -29.6152  -46.5647 H         1 UNK         0.1426 
     74 H74        20.4452  -30.8189  -47.0376 H         1 UNK         0.0716 
     75 H75        21.6085  -30.6338  -45.7497 H         1 UNK         0.0716 
     76 H76        21.4565  -28.1198  -44.3625 H         1 UNK         0.0695 
     77 H77        22.9183  -28.3386  -45.2992 H         1 UNK         0.0695 
     78 H78        22.4787  -26.0856  -46.4128 H         1 UNK         0.0983 
     79 H79        20.1804  -26.0520  -44.5816 H         1 UNK         0.3095 
     80 H80        19.2998  -23.0594  -44.7029 H         1 UNK         0.0454 
     81 H81        19.2370  -22.2948  -47.0642 H         1 UNK         0.0851 
     82 H82        18.4584  -23.7913  -47.5621 H         1 UNK         0.0851 
     83 H83        17.6105  -22.6531  -46.5159 H         1 UNK         0.0851 
     84 H84        18.3237  -25.7430  -45.4350 H         1 UNK         0.2976 
     85 H85        24.5231  -25.6021  -45.8590 H         1 UNK         0.3116 
     86 H86        25.1302  -24.0942  -43.5467 H         1 UNK         0.0646 
     87 H87        27.4633  -24.1767  -44.4388 H         1 UNK         0.0847 
     88 H88        26.3123  -23.8214  -45.7134 H         1 UNK         0.0847 
     89 H89        27.0029  -25.4385  -45.5707 H         1 UNK         0.0847 
     90 H90        25.2412  -27.5336  -44.0476 H         1 UNK         0.3040 
     91 H91        26.9894  -28.2093  -41.8410 H         1 UNK         0.1015 
     92 H92        26.6149  -29.7214  -43.8061 H         1 UNK         0.0786 
     93 H93        24.9182  -29.8974  -43.3524 H         1 UNK         0.0786 
     94 H94        26.1850  -30.5107  -42.3005 H         1 UNK         0.0786 
     95 H95        23.7520  -27.0647  -41.9653 H         1 UNK         0.3172 
     96 H96        22.0682  -26.8616  -40.5905 H         1 UNK         0.0595 
     97 H97        23.7962  -25.9283  -39.0181 H         1 UNK         0.0839 
     98 H98        23.9726  -27.5107  -38.2724 H         1 UNK         0.0839 
     99 H99        22.4422  -26.6416  -38.1706 H         1 UNK         0.0839 
    100 H100       21.9856  -28.6230  -37.9776 H         1 UNK         0.2998 
    101 H101       20.1963  -30.5914  -39.0619 H         1 UNK         0.0822 
    102 H102       19.7538  -29.3771  -36.9453 H         1 UNK         0.0787 
    103 H103       19.7794  -31.1098  -36.6803 H         1 UNK         0.0787 
    104 H104       21.1611  -30.1347  -36.1974 H         1 UNK         0.0787 
    105 H105       22.5832  -31.1726  -40.2346 H         1 UNK         0.3055 
    106 H106       23.8707  -33.4719  -38.9071 H         1 UNK         0.1106 
    107 H107       24.2625  -32.2168  -41.6819 H         1 UNK         0.0828 
    108 H108       25.2201  -31.8604  -40.2448 H         1 UNK         0.0828 
    109 H109       25.2837  -33.4585  -40.9681 H         1 UNK         0.0828 
    110 H110       21.0918  -33.0107  -40.8190 H         1 UNK         0.2931 
    111 H111       21.1358  -35.3905  -42.3982 H         1 UNK         0.0412 
    112 H112       19.2282  -37.8537  -40.6429 H         1 UNK         0.3472 
    113 H113       19.6120  -37.2584  -42.2366 H         1 UNK         0.3472 
    114 H114       18.7705  -34.8575  -42.9087 H         1 UNK         0.0970 
    115 H115       19.8259  -33.5131  -43.1638 H         1 UNK         0.0970 
    116 H116       20.0126  -31.4178  -41.3287 H         1 UNK         0.0612 
    117 H117       18.4594  -30.7794  -40.8500 H         1 UNK         0.0612 
@<TRIPOS>BOND
     1    1    2 1    
     2    1   62 1    
     3    1   63 1    
     4    1   64 1    
     5    2    3 2    
     6    2    4 am   BACKBONE|DICT|INTERRES
     7    4    5 1    
     8    4   65 1    
     9    5    6 1    
    10    5   25 1    
    11    5   66 1    
    12    6    7 1    
    13    6   67 1    
    14    6   68 1    
    15    7    8 1    
    16    8    9 1    
    17    8   69 1    
    18    8   70 1    
    19    9   10 ar   
    20    9   14 ar   
    21   10   11 ar   
    22   10   71 1    
    23   11   12 ar   
    24   11   61 1    
    25   12   13 ar   
    26   12   72 1    
    27   13   14 ar   
    28   13   15 1    
    29   14   73 1    
    30   15   16 1    
    31   15   74 1    
    32   15   75 1    
    33   16   17 1    
    34   17   18 1    
    35   17   76 1    
    36   17   77 1    
    37   18   19 1    
    38   18   27 1    
    39   18   78 1    
    40   19   20 am   BACKBONE|DICT|INTERRES
    41   19   79 1    
    42   20   21 2    
    43   20   22 1    
    44   22   23 1    
    45   22   24 1    
    46   22   80 1    
    47   23   81 1    
    48   23   82 1    
    49   23   83 1    
    50   24   25 am   BACKBONE|DICT|INTERRES
    51   24   84 1    
    52   25   26 2    
    53   27   28 2    
    54   27   29 am   BACKBONE|DICT|INTERRES
    55   29   30 1    
    56   29   85 1    
    57   30   31 1    
    58   30   32 1    
    59   30   86 1    
    60   31   87 1    
    61   31   88 1    
    62   31   89 1    
    63   32   33 2    
    64   32   34 am   BACKBONE|DICT|INTERRES
    65   34   35 1    
    66   34   90 1    
    67   35   36 1    
    68   35   37 1    
    69   35   91 1    
    70   36   92 1    
    71   36   93 1    
    72   36   94 1    
    73   37   38 2    
    74   37   39 am   BACKBONE|DICT|INTERRES
    75   39   40 1    
    76   39   95 1    
    77   40   41 1    
    78   40   42 1    
    79   40   96 1    
    80   41   97 1    
    81   41   98 1    
    82   41   99 1    
    83   42   43 2    
    84   42   44 am   BACKBONE|DICT|INTERRES
    85   44   45 1    
    86   44  100 1    
    87   45   46 1    
    88   45   47 1    
    89   45  101 1    
    90   46  102 1    
    91   46  103 1    
    92   46  104 1    
    93   47   48 2    
    94   47   49 am   BACKBONE|DICT|INTERRES
    95   49   50 1    
    96   49  105 1    
    97   50   51 1    
    98   50   52 1    
    99   50  106 1    
   100   51  107 1    
   101   51  108 1    
   102   51  109 1    
   103   52   53 2    
   104   52   54 am   BACKBONE|DICT|INTERRES
   105   54   55 1    
   106   54  110 1    
   107   55   56 1    
   108   55   59 1    
   109   55  111 1    
   110   56   57 am   BACKBONE|DICT|INTERRES
   111   56   58 2    
   112   57  112 1    
   113   57  113 1    
   114   59   60 1    
   115   59  114 1    
   116   59  115 1    
   117   60   61 1    
   118   61  116 1    
   119   61  117 1    
@<TRIPOS>SUBSTRUCTURE
     1 UNK         1 GROUP             0       ****    0 ROOT    
