@<TRIPOS>MOLECULE
3R8
117   119    1
SMALL
USER_CHARGES


@<TRIPOS>ATOM
      1 CA         12.2582  -23.6763  -45.3035 C.3       0 UNK        -0.2013 
      2 C          13.6136  -24.1161  -45.8367 C.2       0 UNK         0.4866 
      3 O          13.9795  -23.7516  -46.9549 O.2       0 UNK        -0.5176 
      4 N          14.3569  -24.9043  -45.0508 N.am      1 UNK        -0.4884 
      5 CA         15.7034  -25.3808  -45.3813 C.3       1 UNK         0.0853 
      6 C6         16.1737  -26.4913  -44.4098 C.3       10 UNK        -0.0849 
      7 S7         15.2764  -28.0648  -44.6025 S.3       10 UNK        -0.2776 
      8 C8         15.6454  -28.8891  -43.0144 C.3       10 UNK         0.0316 
      9 C9         17.1335  -28.8791  -42.6804 C.ar      10 UNK        -0.0863 
     10 C10        18.0119  -29.7666  -43.3109 C.ar      10 UNK        -0.1009 
     11 C11        19.3820  -29.7388  -43.0260 C.ar      10 UNK        -0.0712 
     12 C12        19.8651  -28.8068  -42.0995 C.ar      10 UNK        -0.0894 
     13 C13        18.9987  -27.9182  -41.4594 C.ar      10 UNK        -0.0745 
     14 C14        17.6331  -27.9652  -41.7474 C.ar      10 UNK        -0.0972 
     15 C15        19.5335  -26.9032  -40.4600 C.3       10 UNK         0.0209 
     16 S16        19.8700  -25.2946  -41.2457 S.3       10 UNK        -0.2568 
     17 C17        21.4252  -25.6184  -42.1456 C.3       10 UNK        -0.0983 
     18 CA         21.1977  -25.9076  -43.6497 C.3       3 UNK         0.0876 
     19 N          20.5095  -24.8120  -44.3372 N.am      3 UNK        -0.4424 
     20 C          19.9659  -24.9172  -45.5546 C.2       2 UNK         0.4918 
     21 O          20.0683  -25.9152  -46.2723 O.2       2 UNK        -0.4875 
     22 CA         19.0721  -23.7621  -46.0212 C.3       2 UNK         0.0481 
     23 CB         19.5693  -23.1666  -47.3487 C.3       2 UNK        -0.1831 
     24 N          17.7532  -24.3579  -46.2088 N.am      2 UNK        -0.4498 
     25 C          16.7384  -24.2388  -45.3458 C.2       1 UNK         0.5027 
     26 O          16.6565  -23.3557  -44.4877 O.2       1 UNK        -0.4969 
     27 C          22.5192  -26.2742  -44.3533 C.2       3 UNK         0.5005 
     28 O          23.4487  -25.4643  -44.3641 O.2       3 UNK        -0.5279 
     29 N          22.5714  -27.4828  -44.9299 N.am      4 UNK        -0.4463 
     30 CA         23.7182  -27.9986  -45.6834 C.3       4 UNK         0.0283 
     31 CB         23.2437  -29.1443  -46.5925 C.3       4 UNK        -0.1875 
     32 C          24.8802  -28.4782  -44.7960 C.2       4 UNK         0.4949 
     33 O          26.0151  -28.5221  -45.2715 O.2       4 UNK        -0.5039 
     34 N          24.5841  -28.8421  -43.5422 N.am      5 UNK        -0.4663 
     35 CA         25.5538  -29.3575  -42.5718 C.3       5 UNK         0.0242 
     36 CB         25.8947  -30.8289  -42.8756 C.3       5 UNK        -0.1982 
     37 C          25.0471  -29.2158  -41.1331 C.2       5 UNK         0.5017 
     38 O          25.8467  -28.9344  -40.2408 O.2       5 UNK        -0.5012 
     39 N          23.7398  -29.4416  -40.9282 N.am      6 UNK        -0.4439 
     40 CA         22.9945  -29.4201  -39.6600 C.3       6 UNK         0.0297 
     41 CB         23.1301  -28.0739  -38.9201 C.3       6 UNK        -0.2006 
     42 C          23.3219  -30.6076  -38.7401 C.2       6 UNK         0.4892 
     43 O          22.4030  -31.3100  -38.3217 O.2       6 UNK        -0.5089 
     44 N          24.6130  -30.8324  -38.4674 N.am      7 UNK        -0.4243 
     45 CA         25.1163  -31.9369  -37.6467 C.3       7 UNK         0.0196 
     46 CB         26.5914  -31.6813  -37.2982 C.3       7 UNK        -0.2007 
     47 C          24.9496  -33.3099  -38.3197 C.2       7 UNK         0.5020 
     48 O          24.6391  -34.2853  -37.6361 O.2       7 UNK        -0.5147 
     49 N          25.1564  -33.3603  -39.6428 N.am      8 UNK        -0.4734 
     50 CA         25.0228  -34.5755  -40.4551 C.3       8 UNK         0.0238 
     51 CB         26.0392  -34.5202  -41.6084 C.3       8 UNK        -0.1912 
     52 C          23.5993  -34.7832  -41.0042 C.2       8 UNK         0.5038 
     53 O          23.3091  -35.8686  -41.5097 O.2       8 UNK        -0.5046 
     54 N          22.7526  -33.7492  -40.9258 N.am      9 UNK        -0.4200 
     55 CA         21.3571  -33.7619  -41.3858 C.3       9 UNK         0.0839 
     56 C          20.4469  -34.6495  -40.4941 C.2       9 UNK         0.5513 
     57 N          19.4086  -35.2405  -41.0693 N.am      9 UNK        -0.7519 
     58 O          20.6466  -34.7763  -39.2878 O.2       9 UNK        -0.4960 
     59 C59        20.7893  -32.3245  -41.4987 C.3       10 UNK        -0.0876 
     60 S60        21.6944  -31.3203  -42.7280 S.3       10 UNK        -0.2414 
     61 C61        20.3246  -30.6932  -43.7585 C.3       10 UNK         0.0169 
     62 H62        11.4651  -24.0129  -45.9708 H         1 UNK         0.0903 
     63 H63        12.0596  -24.0797  -44.3107 H         1 UNK         0.0903 
     64 H64        12.2142  -22.5891  -45.2426 H         1 UNK         0.0903 
     65 H65        14.0122  -25.1671  -44.1386 H         1 UNK         0.3096 
     66 H66        15.6755  -25.7875  -46.3951 H         1 UNK         0.1121 
     67 H67        17.2320  -26.7189  -44.5610 H         1 UNK         0.0849 
     68 H68        16.0834  -26.1484  -43.3772 H         1 UNK         0.0849 
     69 H69        15.0734  -28.4040  -42.2219 H         1 UNK         0.0865 
     70 H70        15.2874  -29.9188  -43.0569 H         1 UNK         0.0865 
     71 H71        17.6264  -30.4684  -44.0382 H         1 UNK         0.1346 
     72 H72        20.9211  -28.7572  -41.8840 H         1 UNK         0.1412 
     73 H73        16.9620  -27.2730  -41.2570 H         1 UNK         0.1426 
     74 H74        20.4334  -27.2772  -39.9712 H         1 UNK         0.0716 
     75 H75        18.8011  -26.7553  -39.6649 H         1 UNK         0.0716 
     76 H76        22.0712  -24.7474  -42.0193 H         1 UNK         0.0695 
     77 H77        21.9474  -26.4493  -41.6689 H         1 UNK         0.0695 
     78 H78        20.5330  -26.7696  -43.7191 H         1 UNK         0.0983 
     79 H79        20.3725  -23.9676  -43.8012 H         1 UNK         0.3095 
     80 H80        19.0522  -22.9742  -45.2651 H         1 UNK         0.0454 
     81 H81        20.5627  -22.7321  -47.2312 H         1 UNK         0.0851 
     82 H82        19.6330  -23.9184  -48.1365 H         1 UNK         0.0851 
     83 H83        18.9072  -22.3741  -47.6973 H         1 UNK         0.0851 
     84 H84        17.7404  -25.1387  -46.8518 H         1 UNK         0.2976 
     85 H85        21.7416  -28.0583  -44.9259 H         1 UNK         0.3116 
     86 H86        24.0996  -27.1971  -46.3200 H         1 UNK         0.0646 
     87 H87        24.0630  -29.5153  -47.2101 H         1 UNK         0.0847 
     88 H88        22.4548  -28.8156  -47.2695 H         1 UNK         0.0847 
     89 H89        22.8652  -29.9896  -46.0164 H         1 UNK         0.0847 
     90 H90        23.6383  -28.7037  -43.2219 H         1 UNK         0.3040 
     91 H91        26.4680  -28.7636  -42.6458 H         1 UNK         0.1015 
     92 H92        26.3722  -30.9347  -43.8497 H         1 UNK         0.0786 
     93 H93        25.0029  -31.4568  -42.8732 H         1 UNK         0.0786 
     94 H94        26.5877  -31.2319  -42.1357 H         1 UNK         0.0786 
     95 H95        23.2119  -29.8102  -41.7084 H         1 UNK         0.3172 
     96 H96        21.9446  -29.5264  -39.9349 H         1 UNK         0.0595 
     97 H97        22.8940  -27.2331  -39.5708 H         1 UNK         0.0839 
     98 H98        24.1349  -27.9166  -38.5276 H         1 UNK         0.0839 
     99 H99        22.4458  -28.0299  -38.0718 H         1 UNK         0.0839 
    100 H100       25.2937  -30.1953  -38.8724 H         1 UNK         0.2998 
    101 H101       24.5436  -31.9539  -36.7166 H         1 UNK         0.0822 
    102 H102       26.7117  -30.7501  -36.7441 H         1 UNK         0.0787 
    103 H103       26.9894  -32.4824  -36.6736 H         1 UNK         0.0787 
    104 H104       27.2148  -31.6227  -38.1914 H         1 UNK         0.0787 
    105 H105       25.4277  -32.5136  -40.1203 H         1 UNK         0.3055 
    106 H106       25.2592  -35.4481  -39.8415 H         1 UNK         0.1106 
    107 H107       26.0258  -35.4479  -42.1823 H         1 UNK         0.0828 
    108 H108       25.8228  -33.7095  -42.3034 H         1 UNK         0.0828 
    109 H109       27.0559  -34.3866  -41.2383 H         1 UNK         0.0828 
    110 H110       23.0530  -32.9201  -40.4385 H         1 UNK         0.2931 
    111 H111       21.3553  -34.1981  -42.3873 H         1 UNK         0.0412 
    112 H112       19.2312  -35.1395  -42.0569 H         1 UNK         0.3472 
    113 H113       18.7955  -35.8104  -40.5070 H         1 UNK         0.3472 
    114 H114       19.7342  -32.3574  -41.7773 H         1 UNK         0.0970 
    115 H115       20.8241  -31.8170  -40.5334 H         1 UNK         0.0970 
    116 H116       20.7451  -30.1719  -44.6184 H         1 UNK         0.0612 
    117 H117       19.7730  -31.5467  -44.1561 H         1 UNK         0.0612 
@<TRIPOS>BOND
     1    1    2 1    
     2    1   62 1    
     3    1   63 1    
     4    1   64 1    
     5    2    3 2    
     6    2    4 am   BACKBONE|DICT|INTERRES
     7    4    5 1    
     8    4   65 1    
     9    5    6 1    
    10    5   25 1    
    11    5   66 1    
    12    6    7 1    
    13    6   67 1    
    14    6   68 1    
    15    7    8 1    
    16    8    9 1    
    17    8   69 1    
    18    8   70 1    
    19    9   10 ar   
    20    9   14 ar   
    21   10   11 ar   
    22   10   71 1    
    23   11   12 ar   
    24   11   61 1    
    25   12   13 ar   
    26   12   72 1    
    27   13   14 ar   
    28   13   15 1    
    29   14   73 1    
    30   15   16 1    
    31   15   74 1    
    32   15   75 1    
    33   16   17 1    
    34   17   18 1    
    35   17   76 1    
    36   17   77 1    
    37   18   19 1    
    38   18   27 1    
    39   18   78 1    
    40   19   20 am   BACKBONE|DICT|INTERRES
    41   19   79 1    
    42   20   21 2    
    43   20   22 1    
    44   22   23 1    
    45   22   24 1    
    46   22   80 1    
    47   23   81 1    
    48   23   82 1    
    49   23   83 1    
    50   24   25 am   BACKBONE|DICT|INTERRES
    51   24   84 1    
    52   25   26 2    
    53   27   28 2    
    54   27   29 am   BACKBONE|DICT|INTERRES
    55   29   30 1    
    56   29   85 1    
    57   30   31 1    
    58   30   32 1    
    59   30   86 1    
    60   31   87 1    
    61   31   88 1    
    62   31   89 1    
    63   32   33 2    
    64   32   34 am   BACKBONE|DICT|INTERRES
    65   34   35 1    
    66   34   90 1    
    67   35   36 1    
    68   35   37 1    
    69   35   91 1    
    70   36   92 1    
    71   36   93 1    
    72   36   94 1    
    73   37   38 2    
    74   37   39 am   BACKBONE|DICT|INTERRES
    75   39   40 1    
    76   39   95 1    
    77   40   41 1    
    78   40   42 1    
    79   40   96 1    
    80   41   97 1    
    81   41   98 1    
    82   41   99 1    
    83   42   43 2    
    84   42   44 am   BACKBONE|DICT|INTERRES
    85   44   45 1    
    86   44  100 1    
    87   45   46 1    
    88   45   47 1    
    89   45  101 1    
    90   46  102 1    
    91   46  103 1    
    92   46  104 1    
    93   47   48 2    
    94   47   49 am   BACKBONE|DICT|INTERRES
    95   49   50 1    
    96   49  105 1    
    97   50   51 1    
    98   50   52 1    
    99   50  106 1    
   100   51  107 1    
   101   51  108 1    
   102   51  109 1    
   103   52   53 2    
   104   52   54 am   BACKBONE|DICT|INTERRES
   105   54   55 1    
   106   54  110 1    
   107   55   56 1    
   108   55   59 1    
   109   55  111 1    
   110   56   57 am   BACKBONE|DICT|INTERRES
   111   56   58 2    
   112   57  112 1    
   113   57  113 1    
   114   59   60 1    
   115   59  114 1    
   116   59  115 1    
   117   60   61 1    
   118   61  116 1    
   119   61  117 1    
@<TRIPOS>SUBSTRUCTURE
     1 UNK         1 GROUP             0       ****    0 ROOT    
