@<TRIPOS>MOLECULE
3R8
117   119    1
SMALL
USER_CHARGES


@<TRIPOS>ATOM
      1 CA         15.7522  -23.7878  -48.1676 C.3       0 UNK        -0.2013 
      2 C          16.7132  -24.7145  -47.4378 C.2       0 UNK         0.4866 
      3 O          17.7975  -24.9979  -47.9485 O.2       0 UNK        -0.5176 
      4 N          16.3207  -25.1970  -46.2526 N.am      1 UNK        -0.4884 
      5 CA         17.1365  -26.0605  -45.3928 C.3       1 UNK         0.0853 
      6 C6         16.2832  -26.7640  -44.3083 C.3       10 UNK        -0.0849 
      7 S7         15.0424  -27.9199  -44.9830 S.3       10 UNK        -0.2776 
      8 C8         16.0610  -29.2363  -45.7409 C.3       10 UNK         0.0316 
      9 C9         17.2155  -29.7056  -44.8609 C.ar      10 UNK        -0.0863 
     10 C10        18.5293  -29.6411  -45.3347 C.ar      10 UNK        -0.1009 
     11 C11        19.5984  -30.0762  -44.5457 C.ar      10 UNK        -0.0712 
     12 C12        19.3389  -30.5616  -43.2587 C.ar      10 UNK        -0.0894 
     13 C13        18.0302  -30.6404  -42.7714 C.ar      10 UNK        -0.0745 
     14 C14        16.9733  -30.2181  -43.5833 C.ar      10 UNK        -0.0972 
     15 C15        17.7353  -31.1994  -41.3813 C.3       10 UNK         0.0209 
     16 S16        18.7770  -30.5056  -40.0511 S.3       10 UNK        -0.2568 
     17 C17        18.6560  -28.7073  -40.3410 C.3       10 UNK        -0.0983 
     18 CA         20.0150  -28.1499  -40.8357 C.3       3 UNK         0.0876 
     19 N          19.8649  -27.0749  -41.8169 N.am      3 UNK        -0.4424 
     20 C          20.8733  -26.5817  -42.5497 C.2       2 UNK         0.4918 
     21 O          22.0417  -26.9602  -42.4450 O.2       2 UNK        -0.4875 
     22 CA         20.4966  -25.5287  -43.6012 C.3       2 UNK         0.0481 
     23 CB         21.6531  -25.1999  -44.5645 C.3       2 UNK        -0.1831 
     24 N          19.3439  -26.0134  -44.3590 N.am      2 UNK        -0.4498 
     25 C          18.2865  -25.2802  -44.7244 C.2       1 UNK         0.5027 
     26 O          18.1752  -24.0708  -44.5055 O.2       1 UNK        -0.4969 
     27 C          20.9249  -27.7254  -39.6695 C.2       3 UNK         0.5005 
     28 O          20.7623  -26.6234  -39.1402 O.2       3 UNK        -0.5279 
     29 N          21.8959  -28.5860  -39.3393 N.am      4 UNK        -0.4463 
     30 CA         22.9871  -28.4231  -38.3682 C.3       4 UNK         0.0283 
     31 CB         22.4587  -28.1386  -36.9491 C.3       4 UNK        -0.1875 
     32 C          24.0572  -27.3963  -38.7865 C.2       4 UNK         0.4949 
     33 O          25.2273  -27.5979  -38.4628 O.2       4 UNK        -0.5039 
     34 N          23.6609  -26.3389  -39.5083 N.am      5 UNK        -0.4663 
     35 CA         24.5451  -25.3355  -40.1043 C.3       5 UNK         0.0242 
     36 CB         23.7079  -24.1689  -40.6546 C.3       5 UNK        -0.1982 
     37 C          25.4441  -25.9376  -41.1959 C.2       5 UNK         0.5017 
     38 O          26.6572  -25.7276  -41.1616 O.2       5 UNK        -0.5012 
     39 N          24.8372  -26.6991  -42.1168 N.am      6 UNK        -0.4439 
     40 CA         25.5421  -27.5363  -43.0849 C.3       6 UNK         0.0297 
     41 CB         24.6930  -27.7049  -44.3579 C.3       6 UNK        -0.2006 
     42 C          25.8785  -28.8905  -42.4452 C.2       6 UNK         0.4892 
     43 O          27.0564  -29.2268  -42.3203 O.2       6 UNK        -0.5089 
     44 N          24.8359  -29.6222  -42.0337 N.am      7 UNK        -0.4243 
     45 CA         24.8788  -30.9393  -41.4024 C.3       7 UNK         0.0196 
     46 CB         25.4325  -31.9969  -42.3840 C.3       7 UNK        -0.2007 
     47 C          23.4535  -31.3076  -40.9711 C.2       7 UNK         0.5020 
     48 O          22.5063  -30.5802  -41.2810 O.2       7 UNK        -0.5147 
     49 N          23.3029  -32.4540  -40.3006 N.am      8 UNK        -0.4734 
     50 CA         22.0107  -33.1051  -40.0662 C.3       8 UNK         0.0238 
     51 CB         22.0699  -33.8808  -38.7373 C.3       8 UNK        -0.1912 
     52 C          21.6861  -34.0057  -41.2734 C.2       8 UNK         0.5038 
     53 O          21.7482  -35.2315  -41.1622 O.2       8 UNK        -0.5046 
     54 N          21.4459  -33.3622  -42.4227 N.am      9 UNK        -0.4200 
     55 CA         21.3101  -33.9615  -43.7601 C.3       9 UNK         0.0839 
     56 C          20.2068  -35.0509  -43.8549 C.2       9 UNK         0.5513 
     57 N          20.4406  -36.1044  -44.6256 N.am      9 UNK        -0.7519 
     58 O          19.1280  -34.9231  -43.2796 O.2       9 UNK        -0.4960 
     59 C59        21.1093  -32.8899  -44.8730 C.3       10 UNK        -0.0876 
     60 S60        22.1315  -31.3851  -44.6434 S.3       10 UNK        -0.2414 
     61 C61        21.0158  -30.0134  -45.1173 C.3       10 UNK         0.0169 
     62 H62        16.2165  -22.8146  -48.3244 H         1 UNK         0.0903 
     63 H63        15.4958  -24.2043  -49.1414 H         1 UNK         0.0903 
     64 H64        14.8281  -23.6367  -47.6098 H         1 UNK         0.0903 
     65 H65        15.4246  -24.9248  -45.8741 H         1 UNK         0.3096 
     66 H66        17.5929  -26.8206  -46.0297 H         1 UNK         0.1121 
     67 H67        15.7558  -26.0226  -43.7047 H         1 UNK         0.0849 
     68 H68        16.9094  -27.3154  -43.6047 H         1 UNK         0.0849 
     69 H69        15.4194  -30.0898  -45.9641 H         1 UNK         0.0865 
     70 H70        16.4285  -28.8794  -46.7042 H         1 UNK         0.0865 
     71 H71        18.7211  -29.2630  -46.3299 H         1 UNK         0.1346 
     72 H72        20.1562  -30.8882  -42.6343 H         1 UNK         0.1412 
     73 H73        15.9560  -30.2777  -43.2206 H         1 UNK         0.1426 
     74 H74        17.8737  -32.2812  -41.4048 H         1 UNK         0.0716 
     75 H75        16.6911  -31.0288  -41.1148 H         1 UNK         0.0716 
     76 H76        18.3196  -28.2155  -39.4259 H         1 UNK         0.0695 
     77 H77        17.8692  -28.5216  -41.0732 H         1 UNK         0.0695 
     78 H78        20.5338  -28.9383  -41.3813 H         1 UNK         0.0983 
     79 H79        18.9426  -26.6818  -41.9239 H         1 UNK         0.3095 
     80 H80        20.2347  -24.6221  -43.0520 H         1 UNK         0.0454 
     81 H81        21.9690  -26.0789  -45.1273 H         1 UNK         0.0851 
     82 H82        22.5235  -24.8281  -44.0224 H         1 UNK         0.0851 
     83 H83        21.3649  -24.4300  -45.2800 H         1 UNK         0.0851 
     84 H84        19.3401  -27.0070  -44.5481 H         1 UNK         0.2976 
     85 H85        21.9727  -29.4205  -39.9185 H         1 UNK         0.3116 
     86 H86        23.4883  -29.3920  -38.3382 H         1 UNK         0.0646 
     87 H87        21.9838  -27.1600  -36.8761 H         1 UNK         0.0847 
     88 H88        23.2729  -28.1544  -36.2236 H         1 UNK         0.0847 
     89 H89        21.7325  -28.8894  -36.6378 H         1 UNK         0.0847 
     90 H90        22.6649  -26.2389  -39.6733 H         1 UNK         0.3040 
     91 H91        25.1943  -24.9496  -39.3152 H         1 UNK         0.1015 
     92 H92        23.0111  -24.4952  -41.4270 H         1 UNK         0.0786 
     93 H93        24.3486  -23.4039  -41.0955 H         1 UNK         0.0786 
     94 H94        23.1296  -23.6901  -39.8642 H         1 UNK         0.0786 
     95 H95        23.8236  -26.7965  -42.0837 H         1 UNK         0.3172 
     96 H96        26.4778  -27.0524  -43.3732 H         1 UNK         0.0595 
     97 H97        25.2084  -28.3301  -45.0881 H         1 UNK         0.0839 
     98 H98        24.5021  -26.7428  -44.8329 H         1 UNK         0.0839 
     99 H99        23.7291  -28.1721  -44.1552 H         1 UNK         0.0839 
    100 H100       23.8941  -29.2681  -42.1573 H         1 UNK         0.2998 
    101 H101       25.5088  -30.8832  -40.5126 H         1 UNK         0.0822 
    102 H102       25.4487  -32.9914  -41.9372 H         1 UNK         0.0787 
    103 H103       24.8274  -32.0573  -43.2894 H         1 UNK         0.0787 
    104 H104       26.4562  -31.7759  -42.6845 H         1 UNK         0.0787 
    105 H105       24.1233  -33.0078  -40.0966 H         1 UNK         0.3055 
    106 H106       21.2171  -32.3590  -39.9812 H         1 UNK         0.1106 
    107 H107       21.1226  -34.3835  -38.5384 H         1 UNK         0.0828 
    108 H108       22.8496  -34.6435  -38.7439 H         1 UNK         0.0828 
    109 H109       22.2630  -33.2119  -37.8985 H         1 UNK         0.0828 
    110 H110       21.4861  -32.3524  -42.4120 H         1 UNK         0.2931 
    111 H111       22.2694  -34.4471  -43.9504 H         1 UNK         0.0412 
    112 H112       19.7296  -36.8139  -44.7146 H         1 UNK         0.3472 
    113 H113       21.3178  -36.2121  -45.1114 H         1 UNK         0.3472 
    114 H114       20.0572  -32.6142  -44.9463 H         1 UNK         0.0970 
    115 H115       21.3590  -33.3185  -45.8450 H         1 UNK         0.0970 
    116 H116       20.9764  -29.9868  -46.2073 H         1 UNK         0.0612 
    117 H117       21.4728  -29.0746  -44.8028 H         1 UNK         0.0612 
@<TRIPOS>BOND
     1    1    2 1    
     2    1   62 1    
     3    1   63 1    
     4    1   64 1    
     5    2    3 2    
     6    2    4 am   BACKBONE|DICT|INTERRES
     7    4    5 1    
     8    4   65 1    
     9    5    6 1    
    10    5   25 1    
    11    5   66 1    
    12    6    7 1    
    13    6   67 1    
    14    6   68 1    
    15    7    8 1    
    16    8    9 1    
    17    8   69 1    
    18    8   70 1    
    19    9   10 ar   
    20    9   14 ar   
    21   10   11 ar   
    22   10   71 1    
    23   11   12 ar   
    24   11   61 1    
    25   12   13 ar   
    26   12   72 1    
    27   13   14 ar   
    28   13   15 1    
    29   14   73 1    
    30   15   16 1    
    31   15   74 1    
    32   15   75 1    
    33   16   17 1    
    34   17   18 1    
    35   17   76 1    
    36   17   77 1    
    37   18   19 1    
    38   18   27 1    
    39   18   78 1    
    40   19   20 am   BACKBONE|DICT|INTERRES
    41   19   79 1    
    42   20   21 2    
    43   20   22 1    
    44   22   23 1    
    45   22   24 1    
    46   22   80 1    
    47   23   81 1    
    48   23   82 1    
    49   23   83 1    
    50   24   25 am   BACKBONE|DICT|INTERRES
    51   24   84 1    
    52   25   26 2    
    53   27   28 2    
    54   27   29 am   BACKBONE|DICT|INTERRES
    55   29   30 1    
    56   29   85 1    
    57   30   31 1    
    58   30   32 1    
    59   30   86 1    
    60   31   87 1    
    61   31   88 1    
    62   31   89 1    
    63   32   33 2    
    64   32   34 am   BACKBONE|DICT|INTERRES
    65   34   35 1    
    66   34   90 1    
    67   35   36 1    
    68   35   37 1    
    69   35   91 1    
    70   36   92 1    
    71   36   93 1    
    72   36   94 1    
    73   37   38 2    
    74   37   39 am   BACKBONE|DICT|INTERRES
    75   39   40 1    
    76   39   95 1    
    77   40   41 1    
    78   40   42 1    
    79   40   96 1    
    80   41   97 1    
    81   41   98 1    
    82   41   99 1    
    83   42   43 2    
    84   42   44 am   BACKBONE|DICT|INTERRES
    85   44   45 1    
    86   44  100 1    
    87   45   46 1    
    88   45   47 1    
    89   45  101 1    
    90   46  102 1    
    91   46  103 1    
    92   46  104 1    
    93   47   48 2    
    94   47   49 am   BACKBONE|DICT|INTERRES
    95   49   50 1    
    96   49  105 1    
    97   50   51 1    
    98   50   52 1    
    99   50  106 1    
   100   51  107 1    
   101   51  108 1    
   102   51  109 1    
   103   52   53 2    
   104   52   54 am   BACKBONE|DICT|INTERRES
   105   54   55 1    
   106   54  110 1    
   107   55   56 1    
   108   55   59 1    
   109   55  111 1    
   110   56   57 am   BACKBONE|DICT|INTERRES
   111   56   58 2    
   112   57  112 1    
   113   57  113 1    
   114   59   60 1    
   115   59  114 1    
   116   59  115 1    
   117   60   61 1    
   118   61  116 1    
   119   61  117 1    
@<TRIPOS>SUBSTRUCTURE
     1 UNK         1 GROUP             0       ****    0 ROOT    
