@<TRIPOS>MOLECULE
3R8
117   119    1
SMALL
USER_CHARGES


@<TRIPOS>ATOM
      1 CA         13.7230  -26.8094  -46.8431 C.3       0 UNK        -0.2013 
      2 C          15.1319  -26.5303  -46.3429 C.2       0 UNK         0.4866 
      3 O          16.0831  -26.5850  -47.1238 O.2       0 UNK        -0.5176 
      4 N          15.2775  -26.2180  -45.0491 N.am      1 UNK        -0.4884 
      5 CA         16.5510  -25.9439  -44.3694 C.3       1 UNK         0.0853 
      6 C6         16.4504  -26.1805  -42.8390 C.3       10 UNK        -0.0849 
      7 S7         15.9240  -27.8732  -42.3950 S.3       10 UNK        -0.2776 
      8 C8         17.4103  -28.5462  -41.5827 C.3       10 UNK         0.0316 
      9 C9         18.3409  -29.2285  -42.5749 C.ar      10 UNK        -0.0863 
     10 C10        18.2623  -30.6118  -42.7672 C.ar      10 UNK        -0.1009 
     11 C11        19.1311  -31.2570  -43.6522 C.ar      10 UNK        -0.0712 
     12 C12        20.0681  -30.5063  -44.3663 C.ar      10 UNK        -0.0894 
     13 C13        20.1628  -29.1257  -44.1754 C.ar      10 UNK        -0.0745 
     14 C14        19.2990  -28.4904  -43.2769 C.ar      10 UNK        -0.0972 
     15 C15        21.2238  -28.3243  -44.9080 C.3       10 UNK         0.0209 
     16 S16        20.5115  -27.4195  -46.3107 S.3       10 UNK        -0.2568 
     17 C17        21.7650  -26.1058  -46.5350 C.3       10 UNK        -0.0983 
     18 CA         21.3736  -24.7521  -45.8818 C.3       3 UNK         0.0876 
     19 N          20.0284  -24.3577  -46.2942 N.am      3 UNK        -0.4424 
     20 C          19.5003  -23.1304  -46.2451 C.2       2 UNK         0.4918 
     21 O          20.1431  -22.1076  -46.0068 O.2       2 UNK        -0.4875 
     22 CA         17.9810  -23.0492  -46.4858 C.3       2 UNK         0.0481 
     23 CB         17.6772  -22.8638  -47.9806 C.3       2 UNK        -0.1831 
     24 N          17.2940  -24.2486  -45.9926 N.am      2 UNK        -0.4498 
     25 C          17.0775  -24.5260  -44.6992 C.2       1 UNK         0.5027 
     26 O          17.2654  -23.7088  -43.7955 O.2       1 UNK        -0.4969 
     27 C          21.4835  -24.7996  -44.3397 C.2       3 UNK         0.5005 
     28 O          20.4651  -24.8121  -43.6423 O.2       3 UNK        -0.5279 
     29 N          22.7189  -24.8680  -43.8323 N.am      4 UNK        -0.4463 
     30 CA         23.0367  -24.9694  -42.4089 C.3       4 UNK         0.0283 
     31 CB         23.2938  -23.5589  -41.8460 C.3       4 UNK        -0.1875 
     32 C          24.2565  -25.8799  -42.2124 C.2       4 UNK         0.4949 
     33 O          24.9283  -26.2240  -43.1877 O.2       4 UNK        -0.5039 
     34 N          24.5156  -26.2360  -40.9455 N.am      5 UNK        -0.4663 
     35 CA         25.6468  -27.0370  -40.4474 C.3       5 UNK         0.0242 
     36 CB         26.9953  -26.3517  -40.7592 C.3       5 UNK        -0.1982 
     37 C          25.6287  -28.5204  -40.8714 C.2       5 UNK         0.5017 
     38 O          26.6569  -29.1935  -40.7727 O.2       5 UNK        -0.5012 
     39 N          24.4630  -29.0271  -41.2943 N.am      6 UNK        -0.4439 
     40 CA         24.2338  -30.4290  -41.6473 C.3       6 UNK         0.0297 
     41 CB         23.0637  -30.5139  -42.6398 C.3       6 UNK        -0.2006 
     42 C          23.9890  -31.2712  -40.3847 C.2       6 UNK         0.4892 
     43 O          22.8569  -31.6769  -40.1210 O.2       6 UNK        -0.5089 
     44 N          25.0612  -31.5095  -39.6182 N.am      7 UNK        -0.4243 
     45 CA         25.0562  -32.2321  -38.3392 C.3       7 UNK         0.0196 
     46 CB         26.4648  -32.1690  -37.7266 C.3       7 UNK        -0.2007 
     47 C          24.5675  -33.6923  -38.4170 C.2       7 UNK         0.5020 
     48 O          24.1577  -34.2433  -37.3952 O.2       7 UNK        -0.5147 
     49 N          24.6145  -34.2934  -39.6136 N.am      8 UNK        -0.4734 
     50 CA         24.0883  -35.6309  -39.8946 C.3       8 UNK         0.0238 
     51 CB         24.6747  -36.1305  -41.2253 C.3       8 UNK        -0.1912 
     52 C          22.5490  -35.6920  -39.9324 C.2       8 UNK         0.5038 
     53 O          21.9953  -36.7703  -39.7117 O.2       8 UNK        -0.5046 
     54 N          21.8885  -34.5635  -40.2250 N.am      9 UNK        -0.4200 
     55 CA         20.4246  -34.4466  -40.2693 C.3       9 UNK         0.0839 
     56 C          19.8200  -34.2909  -38.8491 C.2       9 UNK         0.5513 
     57 N          18.6111  -34.7926  -38.6361 N.am      9 UNK        -0.7519 
     58 O          20.4112  -33.6917  -37.9534 O.2       9 UNK        -0.4960 
     59 C59        19.9719  -33.2910  -41.1976 C.3       10 UNK        -0.0876 
     60 S60        20.4379  -33.5885  -42.9378 S.3       10 UNK        -0.2414 
     61 C61        19.0768  -32.7672  -43.8270 C.3       10 UNK         0.0169 
     62 H62        13.4570  -26.1026  -47.6286 H         1 UNK         0.0903 
     63 H63        13.6651  -27.8160  -47.2562 H         1 UNK         0.0903 
     64 H64        12.9833  -26.7267  -46.0469 H         1 UNK         0.0903 
     65 H65        14.4596  -26.1785  -44.4570 H         1 UNK         0.3096 
     66 H66        17.2977  -26.6439  -44.7534 H         1 UNK         0.1121 
     67 H67        15.7359  -25.4848  -42.3946 H         1 UNK         0.0849 
     68 H68        17.4085  -25.9646  -42.3626 H         1 UNK         0.0849 
     69 H69        17.9404  -27.7647  -41.0365 H         1 UNK         0.0865 
     70 H70        17.0908  -29.2649  -40.8263 H         1 UNK         0.0865 
     71 H71        17.5320  -31.1892  -42.2167 H         1 UNK         0.1346 
     72 H72        20.7433  -31.0045  -45.0486 H         1 UNK         0.1412 
     73 H73        19.3774  -27.4219  -43.1252 H         1 UNK         0.1426 
     74 H74        22.0167  -28.9738  -45.2807 H         1 UNK         0.0716 
     75 H75        21.6954  -27.6381  -44.2047 H         1 UNK         0.0716 
     76 H76        22.7390  -26.4535  -46.1854 H         1 UNK         0.0695 
     77 H77        21.8842  -25.9577  -47.6095 H         1 UNK         0.0695 
     78 H78        22.0707  -23.9868  -46.2306 H         1 UNK         0.0983 
     79 H79        19.4055  -25.1312  -46.4721 H         1 UNK         0.3095 
     80 H80        17.5987  -22.1788  -45.9486 H         1 UNK         0.0454 
     81 H81        16.6073  -22.7513  -48.1563 H         1 UNK         0.0851 
     82 H82        18.1644  -21.9683  -48.3687 H         1 UNK         0.0851 
     83 H83        18.0274  -23.7092  -48.5742 H         1 UNK         0.0851 
     84 H84        17.0415  -24.9640  -46.6699 H         1 UNK         0.2976 
     85 H85        23.5195  -24.9526  -44.4468 H         1 UNK         0.3116 
     86 H86        22.2006  -25.4251  -41.8734 H         1 UNK         0.0646 
     87 H87        24.1406  -23.0782  -42.3376 H         1 UNK         0.0847 
     88 H88        23.5103  -23.5881  -40.7777 H         1 UNK         0.0847 
     89 H89        22.4230  -22.9164  -41.9780 H         1 UNK         0.0847 
     90 H90        23.8856  -25.9008  -40.2283 H         1 UNK         0.3040 
     91 H91        25.5413  -27.0519  -39.3613 H         1 UNK         0.1015 
     92 H92        26.9972  -25.3114  -40.4336 H         1 UNK         0.0786 
     93 H93        27.2243  -26.3709  -41.8251 H         1 UNK         0.0786 
     94 H94        27.8174  -26.8505  -40.2443 H         1 UNK         0.0786 
     95 H95        23.6597  -28.4165  -41.3084 H         1 UNK         0.3172 
     96 H96        25.1191  -30.8264  -42.1485 H         1 UNK         0.0595 
     97 H97        22.1442  -30.1027  -42.2211 H         1 UNK         0.0839 
     98 H98        22.8583  -31.5489  -42.9166 H         1 UNK         0.0839 
     99 H99        23.2922  -29.9745  -43.5576 H         1 UNK         0.0839 
    100 H100       25.9398  -31.0929  -39.9042 H         1 UNK         0.2998 
    101 H101       24.3695  -31.7050  -37.6735 H         1 UNK         0.0822 
    102 H102       27.2031  -32.6575  -38.3638 H         1 UNK         0.0787 
    103 H103       26.7846  -31.1385  -37.5699 H         1 UNK         0.0787 
    104 H104       26.4923  -32.6657  -36.7555 H         1 UNK         0.0787 
    105 H105       24.9821  -33.7701  -40.3948 H         1 UNK         0.3055 
    106 H106       24.4191  -36.3039  -39.1000 H         1 UNK         0.1106 
    107 H107       25.7638  -36.1654  -41.1922 H         1 UNK         0.0828 
    108 H108       24.3273  -37.1401  -41.4497 H         1 UNK         0.0828 
    109 H109       24.3823  -35.4933  -42.0610 H         1 UNK         0.0828 
    110 H110       22.4010  -33.6936  -40.3130 H         1 UNK         0.2931 
    111 H111       20.0289  -35.3737  -40.6904 H         1 UNK         0.0412 
    112 H112       18.1917  -34.6911  -37.7247 H         1 UNK         0.3472 
    113 H113       18.1131  -35.2817  -39.3641 H         1 UNK         0.3472 
    114 H114       20.3954  -32.3380  -40.8756 H         1 UNK         0.0970 
    115 H115       18.8881  -33.1733  -41.1462 H         1 UNK         0.0970 
    116 H116       19.1508  -33.0122  -44.8875 H         1 UNK         0.0612 
    117 H117       18.1205  -33.1672  -43.4866 H         1 UNK         0.0612 
@<TRIPOS>BOND
     1    1    2 1    
     2    1   62 1    
     3    1   63 1    
     4    1   64 1    
     5    2    3 2    
     6    2    4 am   BACKBONE|DICT|INTERRES
     7    4    5 1    
     8    4   65 1    
     9    5    6 1    
    10    5   25 1    
    11    5   66 1    
    12    6    7 1    
    13    6   67 1    
    14    6   68 1    
    15    7    8 1    
    16    8    9 1    
    17    8   69 1    
    18    8   70 1    
    19    9   10 ar   
    20    9   14 ar   
    21   10   11 ar   
    22   10   71 1    
    23   11   12 ar   
    24   11   61 1    
    25   12   13 ar   
    26   12   72 1    
    27   13   14 ar   
    28   13   15 1    
    29   14   73 1    
    30   15   16 1    
    31   15   74 1    
    32   15   75 1    
    33   16   17 1    
    34   17   18 1    
    35   17   76 1    
    36   17   77 1    
    37   18   19 1    
    38   18   27 1    
    39   18   78 1    
    40   19   20 am   BACKBONE|DICT|INTERRES
    41   19   79 1    
    42   20   21 2    
    43   20   22 1    
    44   22   23 1    
    45   22   24 1    
    46   22   80 1    
    47   23   81 1    
    48   23   82 1    
    49   23   83 1    
    50   24   25 am   BACKBONE|DICT|INTERRES
    51   24   84 1    
    52   25   26 2    
    53   27   28 2    
    54   27   29 am   BACKBONE|DICT|INTERRES
    55   29   30 1    
    56   29   85 1    
    57   30   31 1    
    58   30   32 1    
    59   30   86 1    
    60   31   87 1    
    61   31   88 1    
    62   31   89 1    
    63   32   33 2    
    64   32   34 am   BACKBONE|DICT|INTERRES
    65   34   35 1    
    66   34   90 1    
    67   35   36 1    
    68   35   37 1    
    69   35   91 1    
    70   36   92 1    
    71   36   93 1    
    72   36   94 1    
    73   37   38 2    
    74   37   39 am   BACKBONE|DICT|INTERRES
    75   39   40 1    
    76   39   95 1    
    77   40   41 1    
    78   40   42 1    
    79   40   96 1    
    80   41   97 1    
    81   41   98 1    
    82   41   99 1    
    83   42   43 2    
    84   42   44 am   BACKBONE|DICT|INTERRES
    85   44   45 1    
    86   44  100 1    
    87   45   46 1    
    88   45   47 1    
    89   45  101 1    
    90   46  102 1    
    91   46  103 1    
    92   46  104 1    
    93   47   48 2    
    94   47   49 am   BACKBONE|DICT|INTERRES
    95   49   50 1    
    96   49  105 1    
    97   50   51 1    
    98   50   52 1    
    99   50  106 1    
   100   51  107 1    
   101   51  108 1    
   102   51  109 1    
   103   52   53 2    
   104   52   54 am   BACKBONE|DICT|INTERRES
   105   54   55 1    
   106   54  110 1    
   107   55   56 1    
   108   55   59 1    
   109   55  111 1    
   110   56   57 am   BACKBONE|DICT|INTERRES
   111   56   58 2    
   112   57  112 1    
   113   57  113 1    
   114   59   60 1    
   115   59  114 1    
   116   59  115 1    
   117   60   61 1    
   118   61  116 1    
   119   61  117 1    
@<TRIPOS>SUBSTRUCTURE
     1 UNK         1 GROUP             0       ****    0 ROOT    
