@<TRIPOS>MOLECULE
3R8
117   119    1
SMALL
USER_CHARGES


@<TRIPOS>ATOM
      1 CA         24.1976  -27.9299  -47.0507 C.3       0 UNK        -0.2013 
      2 C          22.8684  -27.7505  -46.3344 C.2       0 UNK         0.4866 
      3 O          22.8498  -27.5900  -45.1145 O.2       0 UNK        -0.5176 
      4 N          21.7529  -27.7737  -47.0765 N.am      1 UNK        -0.4884 
      5 CA         20.3783  -27.6738  -46.5634 C.3       1 UNK         0.0853 
      6 C6         19.3494  -28.3130  -47.5306 C.3       10 UNK        -0.0849 
      7 S7         19.5108  -30.1278  -47.5596 S.3       10 UNK        -0.2776 
      8 C8         17.8965  -30.6508  -46.8825 C.3       10 UNK         0.0316 
      9 C9         17.6686  -30.2397  -45.4285 C.ar      10 UNK        -0.0863 
     10 C10        18.5854  -30.6010  -44.4372 C.ar      10 UNK        -0.1009 
     11 C11        18.3404  -30.2989  -43.0955 C.ar      10 UNK        -0.0712 
     12 C12        17.1404  -29.6782  -42.7413 C.ar      10 UNK        -0.0894 
     13 C13        16.2394  -29.2458  -43.7225 C.ar      10 UNK        -0.0745 
     14 C14        16.5113  -29.5397  -45.0647 C.ar      10 UNK        -0.0972 
     15 C15        14.9526  -28.4947  -43.3641 C.3       10 UNK         0.0209 
     16 S16        15.0304  -27.4852  -41.8351 S.3       10 UNK        -0.2568 
     17 C17        16.0069  -26.0229  -42.3384 C.3       10 UNK        -0.0983 
     18 CA         17.5277  -26.2289  -42.1477 C.3       3 UNK         0.0876 
     19 N          18.3363  -25.3045  -42.9432 N.am      3 UNK        -0.4424 
     20 C          19.6344  -25.5273  -43.1768 C.2       2 UNK         0.4918 
     21 O          20.2709  -26.4425  -42.6495 O.2       2 UNK        -0.4875 
     22 CA         20.3167  -24.6869  -44.2642 C.3       2 UNK         0.0481 
     23 CB         21.5055  -23.8923  -43.7026 C.3       2 UNK        -0.1831 
     24 N          20.7936  -25.6474  -45.2541 N.am      2 UNK        -0.4498 
     25 C          19.9933  -26.2355  -46.1501 C.2       1 UNK         0.5027 
     26 O          18.9639  -25.7118  -46.5815 O.2       1 UNK        -0.4969 
     27 C          17.9831  -26.2765  -40.6723 C.2       3 UNK         0.5005 
     28 O          18.1749  -25.2281  -40.0523 O.2       3 UNK        -0.5279 
     29 N          18.1785  -27.5089  -40.1818 N.am      4 UNK        -0.4463 
     30 CA         18.7237  -27.9138  -38.8819 C.3       4 UNK         0.0283 
     31 CB         17.9386  -27.2873  -37.7096 C.3       4 UNK        -0.1875 
     32 C          20.2489  -27.7283  -38.7378 C.2       4 UNK         0.4949 
     33 O          20.7588  -27.9126  -37.6315 O.2       4 UNK        -0.5039 
     34 N          20.9683  -27.4002  -39.8229 N.am      5 UNK        -0.4663 
     35 CA         22.4281  -27.2773  -39.8105 C.3       5 UNK         0.0242 
     36 CB         22.8910  -26.3798  -40.9688 C.3       5 UNK        -0.1982 
     37 C          23.1157  -28.6471  -39.9089 C.2       5 UNK         0.5017 
     38 O          22.6505  -29.5327  -40.6350 O.2       5 UNK        -0.5012 
     39 N          24.2717  -28.7573  -39.2405 N.am      6 UNK        -0.4439 
     40 CA         25.1557  -29.9281  -39.2547 C.3       6 UNK         0.0297 
     41 CB         26.2471  -29.7486  -38.1872 C.3       6 UNK        -0.2006 
     42 C          25.7907  -30.2236  -40.6282 C.2       6 UNK         0.4892 
     43 O          26.2791  -31.3341  -40.8360 O.2       6 UNK        -0.5089 
     44 N          25.7535  -29.2434  -41.5430 N.am      7 UNK        -0.4243 
     45 CA         26.2101  -29.3455  -42.9308 C.3       7 UNK         0.0196 
     46 CB         26.1258  -27.9576  -43.5871 C.3       7 UNK        -0.2007 
     47 C          25.4455  -30.3855  -43.7721 C.2       7 UNK         0.5020 
     48 O          26.0062  -30.8769  -44.7524 O.2       7 UNK        -0.5147 
     49 N          24.2050  -30.7113  -43.3820 N.am      8 UNK        -0.4734 
     50 CA         23.3923  -31.7506  -44.0194 C.3       8 UNK         0.0238 
     51 CB         22.3353  -31.1048  -44.9288 C.3       8 UNK        -0.1912 
     52 C          22.7543  -32.7197  -43.0125 C.2       8 UNK         0.5038 
     53 O          22.5928  -33.8910  -43.3573 O.2       8 UNK        -0.5046 
     54 N          22.4135  -32.2478  -41.8046 N.am      9 UNK        -0.4200 
     55 CA         21.7836  -33.0556  -40.7433 C.3       9 UNK         0.0839 
     56 C          22.7804  -33.5279  -39.6456 C.2       9 UNK         0.5513 
     57 N          24.0863  -33.3569  -39.8058 N.am      9 UNK        -0.7519 
     58 O          22.3659  -34.0889  -38.6345 O.2       9 UNK        -0.4960 
     59 C59        20.5404  -32.3380  -40.1502 C.3       10 UNK        -0.0876 
     60 S60        19.1586  -32.2724  -41.3418 S.3       10 UNK        -0.2414 
     61 C61        19.3838  -30.6130  -42.0350 C.3       10 UNK         0.0169 
     62 H62        24.0688  -28.0608  -48.1249 H         1 UNK         0.0903 
     63 H63        24.8321  -27.0594  -46.8865 H         1 UNK         0.0903 
     64 H64        24.7149  -28.8064  -46.6607 H         1 UNK         0.0903 
     65 H65        21.8303  -27.8943  -48.0766 H         1 UNK         0.3096 
     66 H66        20.3325  -28.2459  -45.6326 H         1 UNK         0.1121 
     67 H67        18.3259  -28.0704  -47.2381 H         1 UNK         0.0849 
     68 H68        19.4718  -27.9230  -48.5424 H         1 UNK         0.0849 
     69 H69        17.1041  -30.2639  -47.5253 H         1 UNK         0.0865 
     70 H70        17.8312  -31.7377  -46.9461 H         1 UNK         0.0865 
     71 H71        19.4876  -31.1267  -44.7115 H         1 UNK         0.1346 
     72 H72        16.9225  -29.5066  -41.6981 H         1 UNK         0.1412 
     73 H73        15.8028  -29.2452  -45.8272 H         1 UNK         0.1426 
     74 H74        14.1578  -29.2317  -43.2429 H         1 UNK         0.0716 
     75 H75        14.6482  -27.8509  -44.1908 H         1 UNK         0.0716 
     76 H76        15.6620  -25.1546  -41.7740 H         1 UNK         0.0695 
     77 H77        15.7818  -25.8110  -43.3849 H         1 UNK         0.0695 
     78 H78        17.7595  -27.1971  -42.5860 H         1 UNK         0.0983 
     79 H79        17.8603  -24.5391  -43.3977 H         1 UNK         0.3095 
     80 H80        19.6026  -23.9935  -44.7133 H         1 UNK         0.0454 
     81 H81        22.2668  -24.5471  -43.2777 H         1 UNK         0.0851 
     82 H82        21.1823  -23.2099  -42.9157 H         1 UNK         0.0851 
     83 H83        21.9802  -23.2931  -44.4795 H         1 UNK         0.0851 
     84 H84        21.6042  -26.1952  -44.9710 H         1 UNK         0.2976 
     85 H85        17.9847  -28.2778  -40.8045 H         1 UNK         0.3116 
     86 H86        18.5619  -28.9915  -38.8296 H         1 UNK         0.0646 
     87 H87        18.1273  -26.2175  -37.6187 H         1 UNK         0.0847 
     88 H88        18.2232  -27.7438  -36.7608 H         1 UNK         0.0847 
     89 H89        16.8647  -27.4317  -37.8265 H         1 UNK         0.0847 
     90 H90        20.5125  -27.2655  -40.7187 H         1 UNK         0.3040 
     91 H91        22.7238  -26.7960  -38.8752 H         1 UNK         0.1015 
     92 H92        22.3633  -25.4261  -40.9647 H         1 UNK         0.0786 
     93 H93        22.7287  -26.8531  -41.9386 H         1 UNK         0.0786 
     94 H94        23.9562  -26.1590  -40.8931 H         1 UNK         0.0786 
     95 H95        24.5820  -27.9737  -38.6830 H         1 UNK         0.3172 
     96 H96        24.5523  -30.7942  -38.9798 H         1 UNK         0.0595 
     97 H97        26.8772  -28.8825  -38.3934 H         1 UNK         0.0839 
     98 H98        26.8994  -30.6223  -38.1457 H         1 UNK         0.0839 
     99 H99        25.8161  -29.6241  -37.1936 H         1 UNK         0.0839 
    100 H100       25.3383  -28.3654  -41.2708 H         1 UNK         0.2998 
    101 H101       27.2573  -29.6544  -42.9109 H         1 UNK         0.0822 
    102 H102       26.7522  -27.2324  -43.0673 H         1 UNK         0.0787 
    103 H103       26.4653  -27.9929  -44.6232 H         1 UNK         0.0787 
    104 H104       25.1037  -27.5767  -43.5930 H         1 UNK         0.0787 
    105 H105       23.8151  -30.2390  -42.5773 H         1 UNK         0.3055 
    106 H106       24.0270  -32.3763  -44.6515 H         1 UNK         0.1106 
    107 H107       21.6392  -31.8493  -45.3172 H         1 UNK         0.0828 
    108 H108       21.7585  -30.3419  -44.4060 H         1 UNK         0.0828 
    109 H109       22.8040  -30.6322  -45.7909 H         1 UNK         0.0828 
    110 H110       22.5676  -31.2748  -41.5642 H         1 UNK         0.2931 
    111 H111       21.4189  -33.9891  -41.1756 H         1 UNK         0.0412 
    112 H112       24.4596  -32.9063  -40.6273 H         1 UNK         0.3472 
    113 H113       24.7137  -33.6862  -39.0894 H         1 UNK         0.3472 
    114 H114       20.1649  -32.8702  -39.2744 H         1 UNK         0.0970 
    115 H115       20.7948  -31.3355  -39.8020 H         1 UNK         0.0970 
    116 H116       20.3816  -30.5261  -42.4638 H         1 UNK         0.0612 
    117 H117       19.3403  -29.8796  -41.2305 H         1 UNK         0.0612 
@<TRIPOS>BOND
     1    1    2 1    
     2    1   62 1    
     3    1   63 1    
     4    1   64 1    
     5    2    3 2    
     6    2    4 am   BACKBONE|DICT|INTERRES
     7    4    5 1    
     8    4   65 1    
     9    5    6 1    
    10    5   25 1    
    11    5   66 1    
    12    6    7 1    
    13    6   67 1    
    14    6   68 1    
    15    7    8 1    
    16    8    9 1    
    17    8   69 1    
    18    8   70 1    
    19    9   10 ar   
    20    9   14 ar   
    21   10   11 ar   
    22   10   71 1    
    23   11   12 ar   
    24   11   61 1    
    25   12   13 ar   
    26   12   72 1    
    27   13   14 ar   
    28   13   15 1    
    29   14   73 1    
    30   15   16 1    
    31   15   74 1    
    32   15   75 1    
    33   16   17 1    
    34   17   18 1    
    35   17   76 1    
    36   17   77 1    
    37   18   19 1    
    38   18   27 1    
    39   18   78 1    
    40   19   20 am   BACKBONE|DICT|INTERRES
    41   19   79 1    
    42   20   21 2    
    43   20   22 1    
    44   22   23 1    
    45   22   24 1    
    46   22   80 1    
    47   23   81 1    
    48   23   82 1    
    49   23   83 1    
    50   24   25 am   BACKBONE|DICT|INTERRES
    51   24   84 1    
    52   25   26 2    
    53   27   28 2    
    54   27   29 am   BACKBONE|DICT|INTERRES
    55   29   30 1    
    56   29   85 1    
    57   30   31 1    
    58   30   32 1    
    59   30   86 1    
    60   31   87 1    
    61   31   88 1    
    62   31   89 1    
    63   32   33 2    
    64   32   34 am   BACKBONE|DICT|INTERRES
    65   34   35 1    
    66   34   90 1    
    67   35   36 1    
    68   35   37 1    
    69   35   91 1    
    70   36   92 1    
    71   36   93 1    
    72   36   94 1    
    73   37   38 2    
    74   37   39 am   BACKBONE|DICT|INTERRES
    75   39   40 1    
    76   39   95 1    
    77   40   41 1    
    78   40   42 1    
    79   40   96 1    
    80   41   97 1    
    81   41   98 1    
    82   41   99 1    
    83   42   43 2    
    84   42   44 am   BACKBONE|DICT|INTERRES
    85   44   45 1    
    86   44  100 1    
    87   45   46 1    
    88   45   47 1    
    89   45  101 1    
    90   46  102 1    
    91   46  103 1    
    92   46  104 1    
    93   47   48 2    
    94   47   49 am   BACKBONE|DICT|INTERRES
    95   49   50 1    
    96   49  105 1    
    97   50   51 1    
    98   50   52 1    
    99   50  106 1    
   100   51  107 1    
   101   51  108 1    
   102   51  109 1    
   103   52   53 2    
   104   52   54 am   BACKBONE|DICT|INTERRES
   105   54   55 1    
   106   54  110 1    
   107   55   56 1    
   108   55   59 1    
   109   55  111 1    
   110   56   57 am   BACKBONE|DICT|INTERRES
   111   56   58 2    
   112   57  112 1    
   113   57  113 1    
   114   59   60 1    
   115   59  114 1    
   116   59  115 1    
   117   60   61 1    
   118   61  116 1    
   119   61  117 1    
@<TRIPOS>SUBSTRUCTURE
     1 UNK         1 GROUP             0       ****    0 ROOT    
