@<TRIPOS>MOLECULE
3R8
117   119    1
SMALL
USER_CHARGES


@<TRIPOS>ATOM
      1 CA         13.1685  -23.3417  -46.1244 C.3       0 UNK        -0.2013 
      2 C          14.5860  -23.8864  -46.2185 C.2       0 UNK         0.4866 
      3 O          15.4850  -23.1790  -46.6745 O.2       0 UNK        -0.5176 
      4 N          14.7933  -25.1404  -45.7971 N.am      1 UNK        -0.4884 
      5 CA         16.1009  -25.8012  -45.7519 C.3       1 UNK         0.0853 
      6 C6         15.9490  -27.3496  -45.6761 C.3       10 UNK        -0.0849 
      7 S7         17.1693  -28.2718  -46.6756 S.3       10 UNK        -0.2776 
      8 C8         18.7204  -28.1280  -45.7307 C.3       10 UNK         0.0316 
      9 C9         18.8056  -29.0642  -44.5318 C.ar      10 UNK        -0.0863 
     10 C10        19.5812  -30.2246  -44.6088 C.ar      10 UNK        -0.1009 
     11 C11        19.7629  -31.0334  -43.4836 C.ar      10 UNK        -0.0712 
     12 C12        19.1401  -30.6892  -42.2810 C.ar      10 UNK        -0.0894 
     13 C13        18.3437  -29.5449  -42.1908 C.ar      10 UNK        -0.0745 
     14 C14        18.1836  -28.7371  -43.3226 C.ar      10 UNK        -0.0972 
     15 C15        17.6566  -29.2075  -40.8693 C.3       10 UNK         0.0209 
     16 S16        17.7195  -27.4379  -40.4275 S.3       10 UNK        -0.2568 
     17 C17        19.4971  -27.1843  -40.1004 C.3       10 UNK        -0.0983 
     18 CA         20.2907  -26.7015  -41.3422 C.3       3 UNK         0.0876 
     19 N          19.6549  -25.5518  -42.0022 N.am      3 UNK        -0.4424 
     20 C          19.8391  -25.2192  -43.2848 C.2       2 UNK         0.4918 
     21 O          20.6362  -25.7843  -44.0340 O.2       2 UNK        -0.4875 
     22 CA         18.9753  -24.0721  -43.8329 C.3       2 UNK         0.0481 
     23 CB         19.8506  -22.9688  -44.4507 C.3       2 UNK        -0.1831 
     24 N          18.0452  -24.5806  -44.8434 N.am      2 UNK        -0.4498 
     25 C          16.9091  -25.2350  -44.5637 C.2       1 UNK         0.5027 
     26 O          16.4825  -25.3983  -43.4186 O.2       1 UNK        -0.4969 
     27 C          21.7706  -26.4640  -40.9758 C.2       3 UNK         0.5005 
     28 O          22.4571  -27.4261  -40.6259 O.2       3 UNK        -0.5279 
     29 N          22.2407  -25.2083  -41.0478 N.am      4 UNK        -0.4463 
     30 CA         23.6246  -24.7982  -40.7906 C.3       4 UNK         0.0283 
     31 CB         23.7543  -23.2811  -41.0001 C.3       4 UNK        -0.1875 
     32 C          24.6209  -25.5546  -41.6850 C.2       4 UNK         0.4949 
     33 O          24.4091  -25.6325  -42.8962 O.2       4 UNK        -0.5039 
     34 N          25.6518  -26.1395  -41.0610 N.am      5 UNK        -0.4663 
     35 CA         26.6874  -27.0238  -41.6233 C.3       5 UNK         0.0242 
     36 CB         27.4990  -26.3188  -42.7285 C.3       5 UNK        -0.1982 
     37 C          26.1805  -28.4017  -42.0990 C.2       5 UNK         0.5017 
     38 O          26.9271  -29.3747  -41.9895 O.2       5 UNK        -0.5012 
     39 N          24.9400  -28.4751  -42.5997 N.am      6 UNK        -0.4439 
     40 CA         24.2618  -29.7021  -43.0243 C.3       6 UNK         0.0297 
     41 CB         22.9881  -29.3355  -43.8010 C.3       6 UNK        -0.2006 
     42 C          23.9460  -30.6401  -41.8449 C.2       6 UNK         0.4892 
     43 O          24.1389  -31.8507  -41.9712 O.2       6 UNK        -0.5089 
     44 N          23.5093  -30.0560  -40.7179 N.am      7 UNK        -0.4243 
     45 CA         23.3008  -30.6781  -39.4076 C.3       7 UNK         0.0196 
     46 CB         24.6675  -30.9443  -38.7358 C.3       7 UNK        -0.2007 
     47 C          22.3769  -31.9107  -39.4641 C.2       7 UNK         0.5020 
     48 O          21.1836  -31.7579  -39.7201 O.2       7 UNK        -0.5147 
     49 N          22.9353  -33.1017  -39.2135 N.am      8 UNK        -0.4734 
     50 CA         22.2276  -34.3855  -39.1984 C.3       8 UNK         0.0238 
     51 CB         23.0050  -35.3600  -38.2957 C.3       8 UNK        -0.1912 
     52 C          22.0017  -34.9991  -40.5950 C.2       8 UNK         0.5038 
     53 O          21.3868  -36.0641  -40.6737 O.2       8 UNK        -0.5046 
     54 N          22.5002  -34.3440  -41.6529 N.am      9 UNK        -0.4200 
     55 CA         22.4796  -34.7876  -43.0571 C.3       9 UNK         0.0839 
     56 C          23.4802  -35.9492  -43.3382 C.2       9 UNK         0.5513 
     57 N          23.5466  -36.4339  -44.5716 N.am      9 UNK        -0.7519 
     58 O          24.2239  -36.4013  -42.4691 O.2       9 UNK        -0.4960 
     59 C59        21.0471  -35.0829  -43.6111 C.3       10 UNK        -0.0876 
     60 S60        19.7644  -33.8029  -43.3457 S.3       10 UNK        -0.2414 
     61 C61        20.6787  -32.2451  -43.5467 C.3       10 UNK         0.0169 
     62 H62        12.4751  -24.0758  -45.7144 H         1 UNK         0.0903 
     63 H63        13.1473  -22.4605  -45.4838 H         1 UNK         0.0903 
     64 H64        12.8111  -23.0532  -47.1126 H         1 UNK         0.0903 
     65 H65        14.0247  -25.6608  -45.3976 H         1 UNK         0.3096 
     66 H66        16.6198  -25.5514  -46.6805 H         1 UNK         0.1121 
     67 H67        15.9198  -27.7265  -44.6541 H         1 UNK         0.0849 
     68 H68        14.9820  -27.6384  -46.0915 H         1 UNK         0.0849 
     69 H69        19.5469  -28.3331  -46.4130 H         1 UNK         0.0865 
     70 H70        18.8697  -27.1012  -45.4118 H         1 UNK         0.0865 
     71 H71        20.0769  -30.4780  -45.5361 H         1 UNK         0.1346 
     72 H72        19.2825  -31.3180  -41.4128 H         1 UNK         0.1412 
     73 H73        17.6006  -27.8323  -43.2442 H         1 UNK         0.1426 
     74 H74        18.0871  -29.7864  -40.0504 H         1 UNK         0.0716 
     75 H75        16.6108  -29.5082  -40.9415 H         1 UNK         0.0716 
     76 H76        19.5793  -26.4557  -39.2916 H         1 UNK         0.0695 
     77 H77        19.9194  -28.1143  -39.7137 H         1 UNK         0.0695 
     78 H78        20.3060  -27.5230  -42.0601 H         1 UNK         0.0983 
     79 H79        18.9488  -25.0686  -41.4650 H         1 UNK         0.3095 
     80 H80        18.4049  -23.6264  -43.0149 H         1 UNK         0.0454 
     81 H81        20.4404  -23.3388  -45.2905 H         1 UNK         0.0851 
     82 H82        19.2447  -22.1362  -44.8083 H         1 UNK         0.0851 
     83 H83        20.5492  -22.5677  -43.7153 H         1 UNK         0.0851 
     84 H84        18.3306  -24.4785  -45.8070 H         1 UNK         0.2976 
     85 H85        21.6071  -24.4902  -41.3644 H         1 UNK         0.3116 
     86 H86        23.8423  -25.0228  -39.7444 H         1 UNK         0.0646 
     87 H87        24.7721  -22.9453  -40.7968 H         1 UNK         0.0847 
     88 H88        23.0934  -22.7276  -40.3329 H         1 UNK         0.0847 
     89 H89        23.5165  -22.9938  -42.0253 H         1 UNK         0.0847 
     90 H90        25.6991  -26.0314  -40.0564 H         1 UNK         0.3040 
     91 H91        27.3736  -27.2261  -40.7989 H         1 UNK         0.1015 
     92 H92        27.9079  -25.3712  -42.3779 H         1 UNK         0.0786 
     93 H93        26.8974  -26.1180  -43.6154 H         1 UNK         0.0786 
     94 H94        28.3400  -26.9371  -43.0451 H         1 UNK         0.0786 
     95 H95        24.4261  -27.6037  -42.6843 H         1 UNK         0.3172 
     96 H96        24.9327  -30.2314  -43.7041 H         1 UNK         0.0595 
     97 H97        23.1974  -28.6286  -44.6040 H         1 UNK         0.0839 
     98 H98        22.2272  -28.8931  -43.1566 H         1 UNK         0.0839 
     99 H99        22.5546  -30.2213  -44.2623 H         1 UNK         0.0839 
    100 H100       23.2943  -29.0603  -40.7532 H         1 UNK         0.2998 
    101 H101       22.7756  -29.9379  -38.8018 H         1 UNK         0.0822 
    102 H102       25.2267  -30.0160  -38.6167 H         1 UNK         0.0787 
    103 H103       24.5446  -31.3698  -37.7387 H         1 UNK         0.0787 
    104 H104       25.2899  -31.6242  -39.3190 H         1 UNK         0.0787 
    105 H105       23.9298  -33.1312  -39.0392 H         1 UNK         0.3055 
    106 H106       21.2385  -34.2318  -38.7607 H         1 UNK         0.1106 
    107 H107       23.9980  -35.5727  -38.6936 H         1 UNK         0.0828 
    108 H108       23.1231  -34.9613  -37.2879 H         1 UNK         0.0828 
    109 H109       22.4815  -36.3127  -38.2032 H         1 UNK         0.0828 
    110 H110       23.0261  -33.4926  -41.4856 H         1 UNK         0.2931 
    111 H111       22.8845  -33.9428  -43.6144 H         1 UNK         0.0412 
    112 H112       24.1991  -37.1776  -44.7673 H         1 UNK         0.3472 
    113 H113       22.9739  -36.0660  -45.3148 H         1 UNK         0.3472 
    114 H114       20.6680  -36.0170  -43.1937 H         1 UNK         0.0970 
    115 H115       21.0933  -35.2482  -44.6881 H         1 UNK         0.0970 
    116 H116       21.2220  -32.2726  -44.4923 H         1 UNK         0.0612 
    117 H117       21.4214  -32.1478  -42.7558 H         1 UNK         0.0612 
@<TRIPOS>BOND
     1    1    2 1    
     2    1   62 1    
     3    1   63 1    
     4    1   64 1    
     5    2    3 2    
     6    2    4 am   BACKBONE|DICT|INTERRES
     7    4    5 1    
     8    4   65 1    
     9    5    6 1    
    10    5   25 1    
    11    5   66 1    
    12    6    7 1    
    13    6   67 1    
    14    6   68 1    
    15    7    8 1    
    16    8    9 1    
    17    8   69 1    
    18    8   70 1    
    19    9   10 ar   
    20    9   14 ar   
    21   10   11 ar   
    22   10   71 1    
    23   11   12 ar   
    24   11   61 1    
    25   12   13 ar   
    26   12   72 1    
    27   13   14 ar   
    28   13   15 1    
    29   14   73 1    
    30   15   16 1    
    31   15   74 1    
    32   15   75 1    
    33   16   17 1    
    34   17   18 1    
    35   17   76 1    
    36   17   77 1    
    37   18   19 1    
    38   18   27 1    
    39   18   78 1    
    40   19   20 am   BACKBONE|DICT|INTERRES
    41   19   79 1    
    42   20   21 2    
    43   20   22 1    
    44   22   23 1    
    45   22   24 1    
    46   22   80 1    
    47   23   81 1    
    48   23   82 1    
    49   23   83 1    
    50   24   25 am   BACKBONE|DICT|INTERRES
    51   24   84 1    
    52   25   26 2    
    53   27   28 2    
    54   27   29 am   BACKBONE|DICT|INTERRES
    55   29   30 1    
    56   29   85 1    
    57   30   31 1    
    58   30   32 1    
    59   30   86 1    
    60   31   87 1    
    61   31   88 1    
    62   31   89 1    
    63   32   33 2    
    64   32   34 am   BACKBONE|DICT|INTERRES
    65   34   35 1    
    66   34   90 1    
    67   35   36 1    
    68   35   37 1    
    69   35   91 1    
    70   36   92 1    
    71   36   93 1    
    72   36   94 1    
    73   37   38 2    
    74   37   39 am   BACKBONE|DICT|INTERRES
    75   39   40 1    
    76   39   95 1    
    77   40   41 1    
    78   40   42 1    
    79   40   96 1    
    80   41   97 1    
    81   41   98 1    
    82   41   99 1    
    83   42   43 2    
    84   42   44 am   BACKBONE|DICT|INTERRES
    85   44   45 1    
    86   44  100 1    
    87   45   46 1    
    88   45   47 1    
    89   45  101 1    
    90   46  102 1    
    91   46  103 1    
    92   46  104 1    
    93   47   48 2    
    94   47   49 am   BACKBONE|DICT|INTERRES
    95   49   50 1    
    96   49  105 1    
    97   50   51 1    
    98   50   52 1    
    99   50  106 1    
   100   51  107 1    
   101   51  108 1    
   102   51  109 1    
   103   52   53 2    
   104   52   54 am   BACKBONE|DICT|INTERRES
   105   54   55 1    
   106   54  110 1    
   107   55   56 1    
   108   55   59 1    
   109   55  111 1    
   110   56   57 am   BACKBONE|DICT|INTERRES
   111   56   58 2    
   112   57  112 1    
   113   57  113 1    
   114   59   60 1    
   115   59  114 1    
   116   59  115 1    
   117   60   61 1    
   118   61  116 1    
   119   61  117 1    
@<TRIPOS>SUBSTRUCTURE
     1 UNK         1 GROUP             0       ****    0 ROOT    
