@<TRIPOS>MOLECULE
3R8
117   119    1
SMALL
USER_CHARGES


@<TRIPOS>ATOM
      1 CA         17.6442  -27.8285  -41.9178 C.3       0 UNK        -0.2013 
      2 C          16.8043  -26.9344  -42.8133 C.2       0 UNK         0.4866 
      3 O          16.0581  -26.0895  -42.3162 O.2       0 UNK        -0.5176 
      4 N          16.9236  -27.1010  -44.1359 N.am      1 UNK        -0.4884 
      5 CA         16.1591  -26.3758  -45.1612 C.3       1 UNK         0.0853 
      6 C6         16.0564  -27.1839  -46.4829 C.3       10 UNK        -0.0849 
      7 S7         15.4281  -28.8805  -46.2332 S.3       10 UNK        -0.2776 
      8 C8         16.8131  -29.8902  -46.8560 C.3       10 UNK         0.0316 
      9 C9         18.0793  -29.7428  -46.0199 C.ar      10 UNK        -0.0863 
     10 C10        18.1738  -30.3651  -44.7718 C.ar      10 UNK        -0.1009 
     11 C11        19.3516  -30.2797  -44.0234 C.ar      10 UNK        -0.0712 
     12 C12        20.4392  -29.5611  -44.5298 C.ar      10 UNK        -0.0894 
     13 C13        20.3566  -28.9252  -45.7726 C.ar      10 UNK        -0.0745 
     14 C14        19.1726  -29.0209  -46.5115 C.ar      10 UNK        -0.0972 
     15 C15        21.5525  -28.1652  -46.3417 C.3       10 UNK         0.0209 
     16 S16        22.2113  -26.8838  -45.2220 S.3       10 UNK        -0.2568 
     17 C17        20.7706  -25.7743  -45.0422 C.3       10 UNK        -0.0983 
     18 CA         20.8199  -24.7809  -43.8451 C.3       3 UNK         0.0876 
     19 N          19.5163  -24.1609  -43.6617 N.am      3 UNK        -0.4424 
     20 C          19.0268  -23.1308  -44.3572 C.2       2 UNK         0.4918 
     21 O          19.6911  -22.4475  -45.1382 O.2       2 UNK        -0.4875 
     22 CA         17.5135  -22.8880  -44.1826 C.3       2 UNK         0.0481 
     23 CB         16.9567  -21.7967  -45.1210 C.3       2 UNK        -0.1831 
     24 N          16.7679  -24.1485  -44.3219 N.am      2 UNK        -0.4498 
     25 C          16.7527  -24.9668  -45.3875 C.2       1 UNK         0.5027 
     26 O          17.2329  -24.6720  -46.4838 O.2       1 UNK        -0.4969 
     27 C          21.1721  -25.4539  -42.5070 C.2       3 UNK         0.5005 
     28 O          20.2731  -25.9507  -41.8231 O.2       3 UNK        -0.5279 
     29 N          22.4672  -25.4750  -42.1727 N.am      4 UNK        -0.4463 
     30 CA         23.0270  -26.1893  -41.0220 C.3       4 UNK         0.0283 
     31 CB         23.2695  -25.1961  -39.8710 C.3       4 UNK        -0.1875 
     32 C          24.3117  -26.9534  -41.3917 C.2       4 UNK         0.4949 
     33 O          24.9666  -27.4919  -40.4993 O.2       4 UNK        -0.5039 
     34 N          24.6603  -27.0076  -42.6880 N.am      5 UNK        -0.4663 
     35 CA         25.8944  -27.6170  -43.2026 C.3       5 UNK         0.0242 
     36 CB         26.0544  -27.2571  -44.6886 C.3       5 UNK        -0.1982 
     37 C          25.9654  -29.1416  -43.0098 C.2       5 UNK         0.5017 
     38 O          27.0638  -29.6897  -42.9182 O.2       5 UNK        -0.5012 
     39 N          24.7958  -29.7888  -42.9294 N.am      6 UNK        -0.4439 
     40 CA         24.6425  -31.2177  -42.6510 C.3       6 UNK         0.0297 
     41 CB         23.3332  -31.7066  -43.2899 C.3       6 UNK        -0.2006 
     42 C          24.6791  -31.5538  -41.1455 C.2       6 UNK         0.4892 
     43 O          24.5618  -32.7323  -40.8046 O.2       6 UNK        -0.5089 
     44 N          24.8213  -30.5389  -40.2748 N.am      7 UNK        -0.4243 
     45 CA         24.8576  -30.6184  -38.8106 C.3       7 UNK         0.0196 
     46 CB         26.1601  -31.3015  -38.3332 C.3       7 UNK        -0.2007 
     47 C          23.5707  -31.2500  -38.2491 C.2       7 UNK         0.5020 
     48 O          22.5237  -30.6028  -38.2773 O.2       7 UNK        -0.5147 
     49 N          23.6597  -32.5000  -37.7751 N.am      8 UNK        -0.4734 
     50 CA         22.5290  -33.3006  -37.2936 C.3       8 UNK         0.0238 
     51 CB         23.0700  -34.5243  -36.5358 C.3       8 UNK        -0.1912 
     52 C          21.5578  -33.7428  -38.4064 C.2       8 UNK         0.5038 
     53 O          20.4248  -34.1105  -38.0917 O.2       8 UNK        -0.5046 
     54 N          22.0029  -33.6904  -39.6699 N.am      9 UNK        -0.4200 
     55 CA         21.2541  -34.0775  -40.8727 C.3       9 UNK         0.0839 
     56 C          21.0098  -35.6122  -40.9906 C.2       9 UNK         0.5513 
     57 N          20.1813  -36.0436  -41.9318 N.am      9 UNK        -0.7519 
     58 O          21.5919  -36.4220  -40.2709 O.2       9 UNK        -0.4960 
     59 C59        19.9722  -33.2116  -41.0781 C.3       10 UNK        -0.0876 
     60 S60        19.7189  -32.7455  -42.8247 S.3       10 UNK        -0.2414 
     61 C61        19.4433  -30.9549  -42.6640 C.3       10 UNK         0.0169 
     62 H62        17.8806  -27.3181  -40.9844 H         1 UNK         0.0903 
     63 H63        17.1026  -28.7436  -41.6816 H         1 UNK         0.0903 
     64 H64        18.5868  -28.0897  -42.3969 H         1 UNK         0.0903 
     65 H65        17.5441  -27.8164  -44.4924 H         1 UNK         0.3096 
     66 H66        15.1409  -26.2321  -44.7917 H         1 UNK         0.1121 
     67 H67        15.3832  -26.6787  -47.1781 H         1 UNK         0.0849 
     68 H68        17.0230  -27.2263  -46.9866 H         1 UNK         0.0849 
     69 H69        16.5082  -30.9378  -46.8590 H         1 UNK         0.0865 
     70 H70        17.0051  -29.6323  -47.8988 H         1 UNK         0.0865 
     71 H71        17.3337  -30.9278  -44.3872 H         1 UNK         0.1346 
     72 H72        21.3530  -29.4918  -43.9575 H         1 UNK         0.1412 
     73 H73        19.1079  -28.5463  -47.4813 H         1 UNK         0.1426 
     74 H74        21.2960  -27.6938  -47.2917 H         1 UNK         0.0716 
     75 H75        22.3477  -28.8794  -46.5591 H         1 UNK         0.0716 
     76 H76        19.8770  -26.3944  -44.9542 H         1 UNK         0.0695 
     77 H77        20.6533  -25.2203  -45.9748 H         1 UNK         0.0695 
     78 H78        21.5602  -24.0038  -44.0476 H         1 UNK         0.0983 
     79 H79        18.9336  -24.6377  -42.9855 H         1 UNK         0.3095 
     80 H80        17.3663  -22.5502  -43.1559 H         1 UNK         0.0454 
     81 H81        15.8871  -21.6521  -44.9703 H         1 UNK         0.0851 
     82 H82        17.1177  -22.0383  -46.1719 H         1 UNK         0.0851 
     83 H83        17.4429  -20.8389  -44.9328 H         1 UNK         0.0851 
     84 H84        16.3756  -24.5290  -43.4641 H         1 UNK         0.2976 
     85 H85        23.1327  -25.0024  -42.7691 H         1 UNK         0.3116 
     86 H86        22.3199  -26.9472  -40.6778 H         1 UNK         0.0646 
     87 H87        23.9947  -24.4297  -40.1464 H         1 UNK         0.0847 
     88 H88        23.6514  -25.7048  -38.9848 H         1 UNK         0.0847 
     89 H89        22.3459  -24.6955  -39.5801 H         1 UNK         0.0847 
     90 H90        24.0349  -26.6158  -43.3780 H         1 UNK         0.3040 
     91 H91        26.7334  -27.1845  -42.6525 H         1 UNK         0.1015 
     92 H92        25.2425  -27.6630  -45.2934 H         1 UNK         0.0786 
     93 H93        26.9878  -27.6565  -45.0881 H         1 UNK         0.0786 
     94 H94        26.0772  -26.1773  -44.8370 H         1 UNK         0.0786 
     95 H95        23.9508  -29.2438  -43.0176 H         1 UNK         0.3172 
     96 H96        25.4663  -31.7570  -43.1232 H         1 UNK         0.0595 
     97 H97        22.4612  -31.3226  -42.7616 H         1 UNK         0.0839 
     98 H98        23.2754  -32.7949  -43.2679 H         1 UNK         0.0839 
     99 H99        23.2565  -31.4070  -44.3354 H         1 UNK         0.0839 
    100 H100       24.8875  -29.5975  -40.6451 H         1 UNK         0.2998 
    101 H101       24.8749  -29.5895  -38.4469 H         1 UNK         0.0822 
    102 H102       27.0341  -30.7405  -38.6649 H         1 UNK         0.0787 
    103 H103       26.2053  -31.3454  -37.2441 H         1 UNK         0.0787 
    104 H104       26.2642  -32.3185  -38.7126 H         1 UNK         0.0787 
    105 H105       24.5580  -32.9599  -37.8190 H         1 UNK         0.3055 
    106 H106       21.9549  -32.6887  -36.5940 H         1 UNK         0.1106 
    107 H107       22.2540  -35.1247  -36.1309 H         1 UNK         0.0828 
    108 H108       23.6590  -35.1732  -37.1853 H         1 UNK         0.0828 
    109 H109       23.6979  -34.2272  -35.6955 H         1 UNK         0.0828 
    110 H110       22.9607  -33.3970  -39.8358 H         1 UNK         0.2931 
    111 H111       21.9533  -33.8520  -41.6766 H         1 UNK         0.0412 
    112 H112       20.0215  -37.0335  -42.0367 H         1 UNK         0.3472 
    113 H113       19.7194  -35.3872  -42.5439 H         1 UNK         0.3472 
    114 H114       20.0433  -32.2950  -40.4906 H         1 UNK         0.0970 
    115 H115       19.0813  -33.7184  -40.7021 H         1 UNK         0.0970 
    116 H116       20.2471  -30.5099  -42.0754 H         1 UNK         0.0612 
    117 H117       18.5216  -30.7871  -42.1056 H         1 UNK         0.0612 
@<TRIPOS>BOND
     1    1    2 1    
     2    1   62 1    
     3    1   63 1    
     4    1   64 1    
     5    2    3 2    
     6    2    4 am   BACKBONE|DICT|INTERRES
     7    4    5 1    
     8    4   65 1    
     9    5    6 1    
    10    5   25 1    
    11    5   66 1    
    12    6    7 1    
    13    6   67 1    
    14    6   68 1    
    15    7    8 1    
    16    8    9 1    
    17    8   69 1    
    18    8   70 1    
    19    9   10 ar   
    20    9   14 ar   
    21   10   11 ar   
    22   10   71 1    
    23   11   12 ar   
    24   11   61 1    
    25   12   13 ar   
    26   12   72 1    
    27   13   14 ar   
    28   13   15 1    
    29   14   73 1    
    30   15   16 1    
    31   15   74 1    
    32   15   75 1    
    33   16   17 1    
    34   17   18 1    
    35   17   76 1    
    36   17   77 1    
    37   18   19 1    
    38   18   27 1    
    39   18   78 1    
    40   19   20 am   BACKBONE|DICT|INTERRES
    41   19   79 1    
    42   20   21 2    
    43   20   22 1    
    44   22   23 1    
    45   22   24 1    
    46   22   80 1    
    47   23   81 1    
    48   23   82 1    
    49   23   83 1    
    50   24   25 am   BACKBONE|DICT|INTERRES
    51   24   84 1    
    52   25   26 2    
    53   27   28 2    
    54   27   29 am   BACKBONE|DICT|INTERRES
    55   29   30 1    
    56   29   85 1    
    57   30   31 1    
    58   30   32 1    
    59   30   86 1    
    60   31   87 1    
    61   31   88 1    
    62   31   89 1    
    63   32   33 2    
    64   32   34 am   BACKBONE|DICT|INTERRES
    65   34   35 1    
    66   34   90 1    
    67   35   36 1    
    68   35   37 1    
    69   35   91 1    
    70   36   92 1    
    71   36   93 1    
    72   36   94 1    
    73   37   38 2    
    74   37   39 am   BACKBONE|DICT|INTERRES
    75   39   40 1    
    76   39   95 1    
    77   40   41 1    
    78   40   42 1    
    79   40   96 1    
    80   41   97 1    
    81   41   98 1    
    82   41   99 1    
    83   42   43 2    
    84   42   44 am   BACKBONE|DICT|INTERRES
    85   44   45 1    
    86   44  100 1    
    87   45   46 1    
    88   45   47 1    
    89   45  101 1    
    90   46  102 1    
    91   46  103 1    
    92   46  104 1    
    93   47   48 2    
    94   47   49 am   BACKBONE|DICT|INTERRES
    95   49   50 1    
    96   49  105 1    
    97   50   51 1    
    98   50   52 1    
    99   50  106 1    
   100   51  107 1    
   101   51  108 1    
   102   51  109 1    
   103   52   53 2    
   104   52   54 am   BACKBONE|DICT|INTERRES
   105   54   55 1    
   106   54  110 1    
   107   55   56 1    
   108   55   59 1    
   109   55  111 1    
   110   56   57 am   BACKBONE|DICT|INTERRES
   111   56   58 2    
   112   57  112 1    
   113   57  113 1    
   114   59   60 1    
   115   59  114 1    
   116   59  115 1    
   117   60   61 1    
   118   61  116 1    
   119   61  117 1    
@<TRIPOS>SUBSTRUCTURE
     1 UNK         1 GROUP             0       ****    0 ROOT    
