@<TRIPOS>MOLECULE
3R8
117   119    1
SMALL
USER_CHARGES


@<TRIPOS>ATOM
      1 CA         19.3676  -21.5693  -40.9635 C.3       0 UNK        -0.2013 
      2 C          18.5282  -22.7129  -41.5136 C.2       0 UNK         0.4866 
      3 O          17.3168  -22.5592  -41.6747 O.2       0 UNK        -0.5176 
      4 N          19.1613  -23.8569  -41.7976 N.am      1 UNK        -0.4884 
      5 CA         18.5330  -25.0257  -42.4240 C.3       1 UNK         0.0853 
      6 C6         19.2193  -26.3395  -41.9594 C.3       10 UNK        -0.0849 
      7 S7         18.0512  -27.7399  -41.8620 S.3       10 UNK        -0.2776 
      8 C8         19.1862  -29.1329  -41.5318 C.3       10 UNK         0.0316 
      9 C9         19.3424  -30.0917  -42.7093 C.ar      10 UNK        -0.0863 
     10 C10        19.3491  -31.4730  -42.4885 C.ar      10 UNK        -0.1009 
     11 C11        19.5146  -32.3650  -43.5536 C.ar      10 UNK        -0.0712 
     12 C12        19.6792  -31.8682  -44.8498 C.ar      10 UNK        -0.0894 
     13 C13        19.6765  -30.4913  -45.0859 C.ar      10 UNK        -0.0745 
     14 C14        19.5055  -29.6134  -44.0124 C.ar      10 UNK        -0.0972 
     15 C15        19.8032  -29.9550  -46.5047 C.3       10 UNK         0.0209 
     16 S16        21.5235  -29.6355  -47.0172 S.3       10 UNK        -0.2568 
     17 C17        22.1231  -28.3292  -45.8881 C.3       10 UNK        -0.0983 
     18 CA         21.6696  -26.8941  -46.2837 C.3       3 UNK         0.0876 
     19 N          20.2526  -26.6857  -45.9688 N.am      3 UNK        -0.4424 
     20 C          19.3218  -26.1465  -46.7651 C.2       2 UNK         0.4918 
     21 O          19.5256  -25.8050  -47.9293 O.2       2 UNK        -0.4875 
     22 CA         17.9267  -25.9247  -46.1378 C.3       2 UNK         0.0481 
     23 CB         16.9465  -27.0242  -46.5769 C.3       2 UNK        -0.1831 
     24 N          17.9326  -25.8423  -44.6683 N.am      2 UNK        -0.4498 
     25 C          18.5435  -24.8801  -43.9625 C.2       1 UNK         0.5027 
     26 O          19.1480  -23.9472  -44.4972 O.2       1 UNK        -0.4969 
     27 C          22.5344  -25.8127  -45.5862 C.2       3 UNK         0.5005 
     28 O          23.7468  -25.9959  -45.4589 O.2       3 UNK        -0.5279 
     29 N          21.9087  -24.7171  -45.1203 N.am      4 UNK        -0.4463 
     30 CA         22.4390  -23.6379  -44.2790 C.3       4 UNK         0.0283 
     31 CB         23.6235  -22.8993  -44.9358 C.3       4 UNK        -0.1875 
     32 C          22.7630  -24.1244  -42.8588 C.2       4 UNK         0.4949 
     33 O          22.0898  -23.7197  -41.9100 O.2       4 UNK        -0.5039 
     34 N          23.7650  -25.0012  -42.7454 N.am      5 UNK        -0.4663 
     35 CA         24.1897  -25.6373  -41.5008 C.3       5 UNK         0.0242 
     36 CB         25.5661  -26.2843  -41.7249 C.3       5 UNK        -0.1982 
     37 C          23.1801  -26.6926  -41.0235 C.2       5 UNK         0.5017 
     38 O          22.4827  -27.2999  -41.8412 O.2       5 UNK        -0.5012 
     39 N          23.1643  -26.9340  -39.7067 N.am      6 UNK        -0.4439 
     40 CA         22.3854  -27.9838  -39.0478 C.3       6 UNK         0.0297 
     41 CB         22.2447  -27.6420  -37.5530 C.3       6 UNK        -0.2006 
     42 C          23.0277  -29.3652  -39.2799 C.2       6 UNK         0.4892 
     43 O          23.6363  -29.9238  -38.3660 O.2       6 UNK        -0.5089 
     44 N          22.9166  -29.8613  -40.5198 N.am      7 UNK        -0.4243 
     45 CA         23.5276  -31.1030  -41.0036 C.3       7 UNK         0.0196 
     46 CB         23.2917  -31.2224  -42.5187 C.3       7 UNK        -0.2007 
     47 C          23.0475  -32.3744  -40.2822 C.2       7 UNK         0.5020 
     48 O          23.8291  -33.3177  -40.1552 O.2       7 UNK        -0.5147 
     49 N          21.7826  -32.3786  -39.8324 N.am      8 UNK        -0.4734 
     50 CA         21.0587  -33.4260  -39.0882 C.3       8 UNK         0.0238 
     51 CB         21.7222  -33.7011  -37.7248 C.3       8 UNK        -0.1912 
     52 C          20.8208  -34.7388  -39.8606 C.2       8 UNK         0.5038 
     53 O          19.7116  -35.2704  -39.8060 O.2       8 UNK        -0.5046 
     54 N          21.8451  -35.2177  -40.5738 N.am      9 UNK        -0.4200 
     55 CA         21.8457  -36.3822  -41.4755 C.3       9 UNK         0.0839 
     56 C          21.6818  -37.7609  -40.7675 C.2       9 UNK         0.5513 
     57 N          21.8852  -37.8596  -39.4593 N.am      9 UNK        -0.7519 
     58 O          21.3963  -38.7653  -41.4150 O.2       9 UNK        -0.4960 
     59 C59        20.8930  -36.2159  -42.6959 C.3       10 UNK        -0.0876 
     60 S60        21.1213  -34.6238  -43.5658 S.3       10 UNK        -0.2414 
     61 C61        19.4878  -33.8650  -43.3070 C.3       10 UNK         0.0169 
     62 H62        18.9611  -21.2282  -40.0118 H         1 UNK         0.0903 
     63 H63        20.4038  -21.8655  -40.8013 H         1 UNK         0.0903 
     64 H64        19.3595  -20.7307  -41.6591 H         1 UNK         0.0903 
     65 H65        20.1749  -23.8886  -41.7147 H         1 UNK         0.3096 
     66 H66        17.4857  -25.0501  -42.1128 H         1 UNK         0.1121 
     67 H67        20.0687  -26.5988  -42.5938 H         1 UNK         0.0849 
     68 H68        19.6341  -26.2134  -40.9572 H         1 UNK         0.0849 
     69 H69        20.1717  -28.7550  -41.2657 H         1 UNK         0.0865 
     70 H70        18.8149  -29.6663  -40.6553 H         1 UNK         0.0865 
     71 H71        19.2200  -31.8585  -41.4867 H         1 UNK         0.1346 
     72 H72        19.8027  -32.5566  -45.6749 H         1 UNK         0.1412 
     73 H73        19.4929  -28.5514  -44.1903 H         1 UNK         0.1426 
     74 H74        19.2082  -29.0536  -46.6259 H         1 UNK         0.0716 
     75 H75        19.3733  -30.6760  -47.2016 H         1 UNK         0.0716 
     76 H76        23.2107  -28.4110  -45.9259 H         1 UNK         0.0695 
     77 H77        21.8593  -28.5625  -44.8564 H         1 UNK         0.0695 
     78 H78        21.8351  -26.7648  -47.3555 H         1 UNK         0.0983 
     79 H79        19.9826  -26.9062  -45.0242 H         1 UNK         0.3095 
     80 H80        17.5550  -24.9723  -46.5215 H         1 UNK         0.0454 
     81 H81        16.9572  -27.1526  -47.6604 H         1 UNK         0.0851 
     82 H82        15.9236  -26.7738  -46.2952 H         1 UNK         0.0851 
     83 H83        17.1858  -27.9889  -46.1296 H         1 UNK         0.0851 
     84 H84        17.4547  -26.5796  -44.1662 H         1 UNK         0.2976 
     85 H85        20.9072  -24.6504  -45.2674 H         1 UNK         0.3116 
     86 H86        21.6294  -22.9128  -44.1826 H         1 UNK         0.0646 
     87 H87        24.4984  -23.5364  -45.0637 H         1 UNK         0.0847 
     88 H88        23.9330  -22.0498  -44.3258 H         1 UNK         0.0847 
     89 H89        23.3495  -22.5099  -45.9161 H         1 UNK         0.0847 
     90 H90        24.1604  -25.3613  -43.6087 H         1 UNK         0.3040 
     91 H91        24.2789  -24.8637  -40.7346 H         1 UNK         0.1015 
     92 H92        25.5251  -27.0604  -42.4909 H         1 UNK         0.0786 
     93 H93        25.9382  -26.7484  -40.8105 H         1 UNK         0.0786 
     94 H94        26.3056  -25.5459  -42.0356 H         1 UNK         0.0786 
     95 H95        23.8000  -26.4174  -39.1155 H         1 UNK         0.3172 
     96 H96        21.3812  -27.9997  -39.4734 H         1 UNK         0.0595 
     97 H97        23.2138  -27.5763  -37.0564 H         1 UNK         0.0839 
     98 H98        21.6638  -28.4047  -37.0325 H         1 UNK         0.0839 
     99 H99        21.7297  -26.6918  -37.4100 H         1 UNK         0.0839 
    100 H100       22.4869  -29.2641  -41.2183 H         1 UNK         0.2998 
    101 H101       24.6031  -31.0232  -40.8319 H         1 UNK         0.0822 
    102 H102       23.7195  -30.3762  -43.0568 H         1 UNK         0.0787 
    103 H103       23.7533  -32.1271  -42.9172 H         1 UNK         0.0787 
    104 H104       22.2298  -31.2687  -42.7615 H         1 UNK         0.0787 
    105 H105       21.2451  -31.5459  -40.0246 H         1 UNK         0.3055 
    106 H106       20.0695  -33.0108  -38.8870 H         1 UNK         0.1106 
    107 H107       21.1289  -34.4033  -37.1375 H         1 UNK         0.0828 
    108 H108       22.7186  -34.1304  -37.8326 H         1 UNK         0.0828 
    109 H109       21.8151  -32.7865  -37.1389 H         1 UNK         0.0828 
    110 H110       22.7154  -34.6928  -40.5259 H         1 UNK         0.2931 
    111 H111       22.8592  -36.4089  -41.8772 H         1 UNK         0.0412 
    112 H112       22.1315  -37.0453  -38.9196 H         1 UNK         0.3472 
    113 H113       21.7879  -38.7563  -39.0088 H         1 UNK         0.3472 
    114 H114       21.0697  -37.0120  -43.4212 H         1 UNK         0.0970 
    115 H115       19.8537  -36.3278  -42.3828 H         1 UNK         0.0970 
    116 H116       19.1455  -34.0697  -42.2921 H         1 UNK         0.0612 
    117 H117       18.7651  -34.3336  -43.9764 H         1 UNK         0.0612 
@<TRIPOS>BOND
     1    1    2 1    
     2    1   62 1    
     3    1   63 1    
     4    1   64 1    
     5    2    3 2    
     6    2    4 am   BACKBONE|DICT|INTERRES
     7    4    5 1    
     8    4   65 1    
     9    5    6 1    
    10    5   25 1    
    11    5   66 1    
    12    6    7 1    
    13    6   67 1    
    14    6   68 1    
    15    7    8 1    
    16    8    9 1    
    17    8   69 1    
    18    8   70 1    
    19    9   10 ar   
    20    9   14 ar   
    21   10   11 ar   
    22   10   71 1    
    23   11   12 ar   
    24   11   61 1    
    25   12   13 ar   
    26   12   72 1    
    27   13   14 ar   
    28   13   15 1    
    29   14   73 1    
    30   15   16 1    
    31   15   74 1    
    32   15   75 1    
    33   16   17 1    
    34   17   18 1    
    35   17   76 1    
    36   17   77 1    
    37   18   19 1    
    38   18   27 1    
    39   18   78 1    
    40   19   20 am   BACKBONE|DICT|INTERRES
    41   19   79 1    
    42   20   21 2    
    43   20   22 1    
    44   22   23 1    
    45   22   24 1    
    46   22   80 1    
    47   23   81 1    
    48   23   82 1    
    49   23   83 1    
    50   24   25 am   BACKBONE|DICT|INTERRES
    51   24   84 1    
    52   25   26 2    
    53   27   28 2    
    54   27   29 am   BACKBONE|DICT|INTERRES
    55   29   30 1    
    56   29   85 1    
    57   30   31 1    
    58   30   32 1    
    59   30   86 1    
    60   31   87 1    
    61   31   88 1    
    62   31   89 1    
    63   32   33 2    
    64   32   34 am   BACKBONE|DICT|INTERRES
    65   34   35 1    
    66   34   90 1    
    67   35   36 1    
    68   35   37 1    
    69   35   91 1    
    70   36   92 1    
    71   36   93 1    
    72   36   94 1    
    73   37   38 2    
    74   37   39 am   BACKBONE|DICT|INTERRES
    75   39   40 1    
    76   39   95 1    
    77   40   41 1    
    78   40   42 1    
    79   40   96 1    
    80   41   97 1    
    81   41   98 1    
    82   41   99 1    
    83   42   43 2    
    84   42   44 am   BACKBONE|DICT|INTERRES
    85   44   45 1    
    86   44  100 1    
    87   45   46 1    
    88   45   47 1    
    89   45  101 1    
    90   46  102 1    
    91   46  103 1    
    92   46  104 1    
    93   47   48 2    
    94   47   49 am   BACKBONE|DICT|INTERRES
    95   49   50 1    
    96   49  105 1    
    97   50   51 1    
    98   50   52 1    
    99   50  106 1    
   100   51  107 1    
   101   51  108 1    
   102   51  109 1    
   103   52   53 2    
   104   52   54 am   BACKBONE|DICT|INTERRES
   105   54   55 1    
   106   54  110 1    
   107   55   56 1    
   108   55   59 1    
   109   55  111 1    
   110   56   57 am   BACKBONE|DICT|INTERRES
   111   56   58 2    
   112   57  112 1    
   113   57  113 1    
   114   59   60 1    
   115   59  114 1    
   116   59  115 1    
   117   60   61 1    
   118   61  116 1    
   119   61  117 1    
@<TRIPOS>SUBSTRUCTURE
     1 UNK         1 GROUP             0       ****    0 ROOT    
