@<TRIPOS>MOLECULE
3R8
117   119    1
SMALL
USER_CHARGES


@<TRIPOS>ATOM
      1 CA         16.9188  -25.9988  -38.0472 C.3       0 UNK        -0.2013 
      2 C          17.1700  -25.3190  -39.3852 C.2       0 UNK         0.4866 
      3 O          17.2683  -24.0925  -39.4389 O.2       0 UNK        -0.5176 
      4 N          17.2666  -26.1082  -40.4618 N.am      1 UNK        -0.4884 
      5 CA         17.5993  -25.6614  -41.8188 C.3       1 UNK         0.0853 
      6 C6         16.8015  -26.4696  -42.8806 C.3       10 UNK        -0.0849 
      7 S7         17.1945  -28.2558  -42.9087 S.3       10 UNK        -0.2776 
      8 C8         16.5454  -28.7255  -44.5425 C.3       10 UNK         0.0316 
      9 C9         17.1844  -30.0175  -45.0240 C.ar      10 UNK        -0.0863 
     10 C10        16.7578  -31.2482  -44.5192 C.ar      10 UNK        -0.1009 
     11 C11        17.3690  -32.4348  -44.9358 C.ar      10 UNK        -0.0712 
     12 C12        18.3981  -32.3865  -45.8819 C.ar      10 UNK        -0.0894 
     13 C13        18.8400  -31.1591  -46.3847 C.ar      10 UNK        -0.0745 
     14 C14        18.2219  -29.9800  -45.9590 C.ar      10 UNK        -0.0972 
     15 C15        20.0044  -31.0959  -47.3645 C.3       10 UNK         0.0209 
     16 S16        21.5915  -31.6035  -46.6174 S.3       10 UNK        -0.2568 
     17 C17        21.7525  -30.4748  -45.1920 C.3       10 UNK        -0.0983 
     18 CA         22.4426  -29.1346  -45.5573 C.3       3 UNK         0.0876 
     19 N          22.1270  -28.0886  -44.5921 N.am      3 UNK        -0.4424 
     20 C          21.0970  -27.2454  -44.6607 C.2       2 UNK         0.4918 
     21 O          20.2549  -27.2389  -45.5605 O.2       2 UNK        -0.4875 
     22 CA         21.0110  -26.2144  -43.5342 C.3       2 UNK         0.0481 
     23 CB         21.7278  -24.9069  -43.9103 C.3       2 UNK        -0.1831 
     24 N          19.6073  -25.9632  -43.2329 N.am      2 UNK        -0.4498 
     25 C          19.1360  -25.6627  -42.0182 C.2       1 UNK         0.5027 
     26 O          19.8795  -25.4157  -41.0651 O.2       1 UNK        -0.4969 
     27 C          23.9771  -29.1911  -45.6028 C.2       3 UNK         0.5005 
     28 O          24.5904  -30.0256  -44.9354 O.2       3 UNK        -0.5279 
     29 N          24.5725  -28.1960  -46.2790 N.am      4 UNK        -0.4463 
     30 CA         25.9953  -27.8146  -46.2909 C.3       4 UNK         0.0283 
     31 CB         26.9168  -28.9698  -46.7308 C.3       4 UNK        -0.1875 
     32 C          26.4602  -27.1879  -44.9620 C.2       4 UNK         0.4949 
     33 O          27.0674  -26.1172  -44.9823 O.2       4 UNK        -0.5039 
     34 N          26.1277  -27.8336  -43.8404 N.am      5 UNK        -0.4663 
     35 CA         26.2339  -27.3053  -42.4822 C.3       5 UNK         0.0242 
     36 CB         26.9921  -28.3212  -41.6131 C.3       5 UNK        -0.1982 
     37 C          24.8212  -27.0582  -41.9303 C.2       5 UNK         0.5017 
     38 O          23.8611  -27.6745  -42.4040 O.2       5 UNK        -0.5012 
     39 N          24.7159  -26.1597  -40.9429 N.am      6 UNK        -0.4439 
     40 CA         23.4620  -25.7871  -40.2824 C.3       6 UNK         0.0297 
     41 CB         23.7063  -24.5799  -39.3633 C.3       6 UNK        -0.2006 
     42 C          22.8577  -26.9573  -39.4881 C.2       6 UNK         0.4892 
     43 O          23.5807  -27.6143  -38.7362 O.2       6 UNK        -0.5089 
     44 N          21.5468  -27.1730  -39.6691 N.am      7 UNK        -0.4243 
     45 CA         20.6990  -28.1938  -39.0374 C.3       7 UNK         0.0196 
     46 CB         20.4719  -27.8469  -37.5515 C.3       7 UNK        -0.2007 
     47 C          21.1762  -29.6491  -39.2361 C.2       7 UNK         0.5020 
     48 O          20.8467  -30.5148  -38.4240 O.2       7 UNK        -0.5147 
     49 N          21.9361  -29.9113  -40.3075 N.am      8 UNK        -0.4734 
     50 CA         22.5786  -31.1969  -40.5950 C.3       8 UNK         0.0238 
     51 CB         23.8290  -30.9342  -41.4526 C.3       8 UNK        -0.1912 
     52 C          21.6232  -32.2283  -41.2286 C.2       8 UNK         0.5038 
     53 O          21.9254  -32.7725  -42.2916 O.2       8 UNK        -0.5046 
     54 N          20.4940  -32.4908  -40.5637 N.am      9 UNK        -0.4200 
     55 CA         19.4986  -33.5025  -40.9369 C.3       9 UNK         0.0839 
     56 C          18.6476  -33.9351  -39.7130 C.2       9 UNK         0.5513 
     57 N          17.7685  -34.9121  -39.8833 N.am      9 UNK        -0.7519 
     58 O          18.7728  -33.4005  -38.6128 O.2       9 UNK        -0.4960 
     59 C59        18.6398  -33.0709  -42.1613 C.3       10 UNK        -0.0876 
     60 S60        18.2520  -34.4726  -43.2667 S.3       10 UNK        -0.2414 
     61 C61        16.9480  -33.7635  -44.3248 C.3       10 UNK         0.0169 
     62 H62        15.9570  -25.6859  -37.6417 H         1 UNK         0.0903 
     63 H63        16.9139  -27.0851  -38.1352 H         1 UNK         0.0903 
     64 H64        17.6954  -25.7217  -37.3348 H         1 UNK         0.0903 
     65 H65        17.1819  -27.1094  -40.3559 H         1 UNK         0.3096 
     66 H66        17.2969  -24.6172  -41.9256 H         1 UNK         0.1121 
     67 H67        16.9531  -26.0414  -43.8728 H         1 UNK         0.0849 
     68 H68        15.7326  -26.3653  -42.6865 H         1 UNK         0.0849 
     69 H69        15.4619  -28.8401  -44.4850 H         1 UNK         0.0865 
     70 H70        16.7332  -27.9284  -45.2635 H         1 UNK         0.0865 
     71 H71        15.9688  -31.2765  -43.7799 H         1 UNK         0.1346 
     72 H72        18.8843  -33.3008  -46.1941 H         1 UNK         0.1412 
     73 H73        18.5648  -29.0279  -46.3398 H         1 UNK         0.1426 
     74 H74        20.1137  -30.0889  -47.7704 H         1 UNK         0.0716 
     75 H75        19.7914  -31.7457  -48.2144 H         1 UNK         0.0716 
     76 H76        22.2837  -30.9967  -44.3952 H         1 UNK         0.0695 
     77 H77        20.7614  -30.2866  -44.7803 H         1 UNK         0.0695 
     78 H78        22.0919  -28.8199  -46.5429 H         1 UNK         0.0983 
     79 H79        22.7872  -27.9945  -43.8192 H         1 UNK         0.3095 
     80 H80        21.4868  -26.6465  -42.6534 H         1 UNK         0.0454 
     81 H81        22.7820  -25.0884  -44.1239 H         1 UNK         0.0851 
     82 H82        21.6834  -24.1818  -43.0977 H         1 UNK         0.0851 
     83 H83        21.2865  -24.4468  -44.7951 H         1 UNK         0.0851 
     84 H84        18.9674  -26.2173  -43.9749 H         1 UNK         0.2976 
     85 H85        23.9653  -27.5369  -46.7478 H         1 UNK         0.3116 
     86 H86        26.0781  -27.0340  -47.0491 H         1 UNK         0.0646 
     87 H87        26.9485  -29.7764  -45.9981 H         1 UNK         0.0847 
     88 H88        26.5962  -29.3931  -47.6825 H         1 UNK         0.0847 
     89 H89        27.9405  -28.6170  -46.8610 H         1 UNK         0.0847 
     90 H90        25.5841  -28.6873  -43.9434 H         1 UNK         0.3040 
     91 H91        26.7771  -26.3576  -42.4794 H         1 UNK         0.1015 
     92 H92        27.0369  -27.9985  -40.5720 H         1 UNK         0.0786 
     93 H93        28.0190  -28.4419  -41.9587 H         1 UNK         0.0786 
     94 H94        26.5204  -29.3033  -41.6330 H         1 UNK         0.0786 
     95 H95        25.5567  -25.7313  -40.5835 H         1 UNK         0.3172 
     96 H96        22.7572  -25.4798  -41.0567 H         1 UNK         0.0595 
     97 H97        24.4209  -24.8117  -38.5723 H         1 UNK         0.0839 
     98 H98        22.7791  -24.2651  -38.8819 H         1 UNK         0.0839 
     99 H99        24.0857  -23.7238  -39.9215 H         1 UNK         0.0839 
    100 H100       21.0416  -26.5258  -40.2746 H         1 UNK         0.2998 
    101 H101       19.7328  -28.1294  -39.5401 H         1 UNK         0.0822 
    102 H102       19.7301  -28.5071  -37.1004 H         1 UNK         0.0787 
    103 H103       20.1075  -26.8263  -37.4345 H         1 UNK         0.0787 
    104 H104       21.3908  -27.9436  -36.9720 H         1 UNK         0.0787 
    105 H105       22.1611  -29.1482  -40.9309 H         1 UNK         0.3055 
    106 H106       22.9197  -31.6318  -39.6526 H         1 UNK         0.1106 
    107 H107       24.5187  -30.2672  -40.9369 H         1 UNK         0.0828 
    108 H108       24.3687  -31.8583  -41.6631 H         1 UNK         0.0828 
    109 H109       23.5749  -30.4777  -42.4092 H         1 UNK         0.0828 
    110 H110       20.3288  -32.0250  -39.6751 H         1 UNK         0.2931 
    111 H111       20.0776  -34.3888  -41.2048 H         1 UNK         0.0412 
    112 H112       17.6546  -35.3449  -40.7879 H         1 UNK         0.3472 
    113 H113       17.2043  -35.2128  -39.1037 H         1 UNK         0.3472 
    114 H114       17.7195  -32.5734  -41.8491 H         1 UNK         0.0970 
    115 H115       19.1759  -32.3372  -42.7658 H         1 UNK         0.0970 
    116 H116       16.7119  -34.4707  -45.1211 H         1 UNK         0.0612 
    117 H117       16.0380  -33.6485  -43.7338 H         1 UNK         0.0612 
@<TRIPOS>BOND
     1    1    2 1    
     2    1   62 1    
     3    1   63 1    
     4    1   64 1    
     5    2    3 2    
     6    2    4 am   BACKBONE|DICT|INTERRES
     7    4    5 1    
     8    4   65 1    
     9    5    6 1    
    10    5   25 1    
    11    5   66 1    
    12    6    7 1    
    13    6   67 1    
    14    6   68 1    
    15    7    8 1    
    16    8    9 1    
    17    8   69 1    
    18    8   70 1    
    19    9   10 ar   
    20    9   14 ar   
    21   10   11 ar   
    22   10   71 1    
    23   11   12 ar   
    24   11   61 1    
    25   12   13 ar   
    26   12   72 1    
    27   13   14 ar   
    28   13   15 1    
    29   14   73 1    
    30   15   16 1    
    31   15   74 1    
    32   15   75 1    
    33   16   17 1    
    34   17   18 1    
    35   17   76 1    
    36   17   77 1    
    37   18   19 1    
    38   18   27 1    
    39   18   78 1    
    40   19   20 am   BACKBONE|DICT|INTERRES
    41   19   79 1    
    42   20   21 2    
    43   20   22 1    
    44   22   23 1    
    45   22   24 1    
    46   22   80 1    
    47   23   81 1    
    48   23   82 1    
    49   23   83 1    
    50   24   25 am   BACKBONE|DICT|INTERRES
    51   24   84 1    
    52   25   26 2    
    53   27   28 2    
    54   27   29 am   BACKBONE|DICT|INTERRES
    55   29   30 1    
    56   29   85 1    
    57   30   31 1    
    58   30   32 1    
    59   30   86 1    
    60   31   87 1    
    61   31   88 1    
    62   31   89 1    
    63   32   33 2    
    64   32   34 am   BACKBONE|DICT|INTERRES
    65   34   35 1    
    66   34   90 1    
    67   35   36 1    
    68   35   37 1    
    69   35   91 1    
    70   36   92 1    
    71   36   93 1    
    72   36   94 1    
    73   37   38 2    
    74   37   39 am   BACKBONE|DICT|INTERRES
    75   39   40 1    
    76   39   95 1    
    77   40   41 1    
    78   40   42 1    
    79   40   96 1    
    80   41   97 1    
    81   41   98 1    
    82   41   99 1    
    83   42   43 2    
    84   42   44 am   BACKBONE|DICT|INTERRES
    85   44   45 1    
    86   44  100 1    
    87   45   46 1    
    88   45   47 1    
    89   45  101 1    
    90   46  102 1    
    91   46  103 1    
    92   46  104 1    
    93   47   48 2    
    94   47   49 am   BACKBONE|DICT|INTERRES
    95   49   50 1    
    96   49  105 1    
    97   50   51 1    
    98   50   52 1    
    99   50  106 1    
   100   51  107 1    
   101   51  108 1    
   102   51  109 1    
   103   52   53 2    
   104   52   54 am   BACKBONE|DICT|INTERRES
   105   54   55 1    
   106   54  110 1    
   107   55   56 1    
   108   55   59 1    
   109   55  111 1    
   110   56   57 am   BACKBONE|DICT|INTERRES
   111   56   58 2    
   112   57  112 1    
   113   57  113 1    
   114   59   60 1    
   115   59  114 1    
   116   59  115 1    
   117   60   61 1    
   118   61  116 1    
   119   61  117 1    
@<TRIPOS>SUBSTRUCTURE
     1 UNK         1 GROUP             0       ****    0 ROOT    
