@<TRIPOS>MOLECULE
3R8
117   119    1
SMALL
USER_CHARGES


@<TRIPOS>ATOM
      1 CA         13.0850  -22.6796  -45.0386 C.3       0 UNK        -0.2013 
      2 C          14.1061  -23.7700  -44.7474 C.2       0 UNK         0.4866 
      3 O          14.0985  -24.3257  -43.6489 O.2       0 UNK        -0.5176 
      4 N          14.9635  -24.0773  -45.7326 N.am      1 UNK        -0.4884 
      5 CA         16.0823  -25.0320  -45.6953 C.3       1 UNK         0.0853 
      6 C6         15.6878  -26.4316  -45.1513 C.3       10 UNK        -0.0849 
      7 S7         16.7116  -27.7823  -45.8281 S.3       10 UNK        -0.2776 
      8 C8         16.0076  -29.2247  -44.9591 C.3       10 UNK         0.0316 
      9 C9         16.8382  -29.6033  -43.7408 C.ar      10 UNK        -0.0863 
     10 C10        17.6649  -30.7310  -43.7701 C.ar      10 UNK        -0.1009 
     11 C11        18.4561  -31.0618  -42.6649 C.ar      10 UNK        -0.0712 
     12 C12        18.4318  -30.2453  -41.5303 C.ar      10 UNK        -0.0894 
     13 C13        17.6198  -29.1077  -41.4968 C.ar      10 UNK        -0.0745 
     14 C14        16.7995  -28.8150  -42.5886 C.ar      10 UNK        -0.0972 
     15 C15        17.6724  -28.1482  -40.3182 C.3       10 UNK         0.0209 
     16 S16        18.3491  -26.5290  -40.8222 S.3       10 UNK        -0.2568 
     17 C17        20.0795  -26.9534  -41.2190 C.3       10 UNK        -0.0983 
     18 CA         20.3220  -27.3255  -42.7138 C.3       3 UNK         0.0876 
     19 N          19.8656  -26.3133  -43.6780 N.am      3 UNK        -0.4424 
     20 C          20.3410  -25.0672  -43.8174 C.2       2 UNK         0.4918 
     21 O          21.2076  -24.5733  -43.0963 O.2       2 UNK        -0.4875 
     22 CA         19.7884  -24.2341  -44.9886 C.3       2 UNK         0.0481 
     23 CB         20.8104  -24.1960  -46.1374 C.3       2 UNK        -0.1831 
     24 N          18.5076  -24.7262  -45.5084 N.am      2 UNK        -0.4498 
     25 C          17.3137  -24.4424  -44.9697 C.2       1 UNK         0.5027 
     26 O          17.1760  -23.7462  -43.9613 O.2       1 UNK        -0.4969 
     27 C          21.7751  -27.7917  -42.9755 C.2       3 UNK         0.5005 
     28 O          22.4565  -28.1988  -42.0356 O.2       3 UNK        -0.5279 
     29 N          22.2156  -27.7421  -44.2454 N.am      4 UNK        -0.4463 
     30 CA         23.5286  -28.1690  -44.7521 C.3       4 UNK         0.0283 
     31 CB         23.6129  -29.7129  -44.7554 C.3       4 UNK        -0.1875 
     32 C          24.7136  -27.4862  -44.0306 C.2       4 UNK         0.4949 
     33 O          24.6016  -26.3227  -43.6396 O.2       4 UNK        -0.5039 
     34 N          25.8362  -28.2047  -43.8866 N.am      5 UNK        -0.4663 
     35 CA         27.0015  -27.7740  -43.1059 C.3       5 UNK         0.0242 
     36 CB         28.2443  -28.5378  -43.5916 C.3       5 UNK        -0.1982 
     37 C          26.8021  -27.9790  -41.5924 C.2       5 UNK         0.5017 
     38 O          27.4214  -27.2695  -40.7989 O.2       5 UNK        -0.5012 
     39 N          25.9460  -28.9381  -41.2252 N.am      6 UNK        -0.4439 
     40 CA         25.5243  -29.2673  -39.8706 C.3       6 UNK         0.0297 
     41 CB         26.5797  -30.1432  -39.1722 C.3       6 UNK        -0.2006 
     42 C          24.1892  -30.0043  -39.9974 C.2       6 UNK         0.4892 
     43 O          24.0234  -30.7800  -40.9428 O.2       6 UNK        -0.5089 
     44 N          23.2794  -29.7682  -39.0424 N.am      7 UNK        -0.4243 
     45 CA         21.8735  -30.1978  -39.0725 C.3       7 UNK         0.0196 
     46 CB         21.1174  -29.5211  -37.9165 C.3       7 UNK        -0.2007 
     47 C          21.6231  -31.7183  -39.0780 C.2       7 UNK         0.5020 
     48 O          20.4821  -32.1332  -39.2785 O.2       7 UNK        -0.5147 
     49 N          22.6701  -32.5278  -38.8775 N.am      8 UNK        -0.4734 
     50 CA         22.6413  -33.9734  -39.1097 C.3       8 UNK         0.0238 
     51 CB         23.8765  -34.6143  -38.4563 C.3       8 UNK        -0.1912 
     52 C          22.5746  -34.3347  -40.6074 C.2       8 UNK         0.5038 
     53 O          22.0689  -35.4085  -40.9360 O.2       8 UNK        -0.5046 
     54 N          23.0867  -33.4471  -41.4753 N.am      9 UNK        -0.4200 
     55 CA         23.1512  -33.5854  -42.9407 C.3       9 UNK         0.0839 
     56 C          23.9935  -34.7972  -43.4474 C.2       9 UNK         0.5513 
     57 N          24.9349  -35.3131  -42.6658 N.am      9 UNK        -0.7519 
     58 O          23.8202  -35.2599  -44.5723 O.2       9 UNK        -0.4960 
     59 C59        21.7542  -33.4788  -43.6164 C.3       10 UNK        -0.0876 
     60 S60        20.9939  -31.8381  -43.3672 S.3       10 UNK        -0.2414 
     61 C61        19.3601  -32.2832  -42.7139 C.3       10 UNK         0.0169 
     62 H62        13.2070  -21.8555  -44.3362 H         1 UNK         0.0903 
     63 H63        13.1860  -22.2817  -46.0482 H         1 UNK         0.0903 
     64 H64        12.0746  -23.0731  -44.9296 H         1 UNK         0.0903 
     65 H65        14.8969  -23.5547  -46.5959 H         1 UNK         0.3096 
     66 H66        16.3560  -25.1506  -46.7454 H         1 UNK         0.1121 
     67 H67        14.6547  -26.6539  -45.4240 H         1 UNK         0.0849 
     68 H68        15.7160  -26.4422  -44.0621 H         1 UNK         0.0849 
     69 H69        14.9771  -29.0268  -44.6603 H         1 UNK         0.0865 
     70 H70        15.9612  -30.0608  -45.6585 H         1 UNK         0.0865 
     71 H71        17.7049  -31.3472  -44.6581 H         1 UNK         0.1346 
     72 H72        19.0686  -30.4793  -40.6892 H         1 UNK         0.1412 
     73 H73        16.1697  -27.9389  -42.5509 H         1 UNK         0.1426 
     74 H74        16.6647  -28.0063  -39.9253 H         1 UNK         0.0716 
     75 H75        18.2698  -28.5561  -39.5014 H         1 UNK         0.0716 
     76 H76        20.3775  -27.7737  -40.5651 H         1 UNK         0.0695 
     77 H77        20.7062  -26.1071  -40.9340 H         1 UNK         0.0695 
     78 H78        19.7237  -28.2082  -42.9334 H         1 UNK         0.0983 
     79 H79        19.1317  -26.6107  -44.3048 H         1 UNK         0.3095 
     80 H80        19.6546  -23.2118  -44.6279 H         1 UNK         0.0454 
     81 H81        20.9867  -25.1860  -46.5592 H         1 UNK         0.0851 
     82 H82        21.7725  -23.8142  -45.7921 H         1 UNK         0.0851 
     83 H83        20.4771  -23.5419  -46.9432 H         1 UNK         0.0851 
     84 H84        18.5457  -25.3070  -46.3349 H         1 UNK         0.2976 
     85 H85        21.5893  -27.3560  -44.9362 H         1 UNK         0.3116 
     86 H86        23.5760  -27.8332  -45.7889 H         1 UNK         0.0646 
     87 H87        23.6411  -30.1188  -43.7428 H         1 UNK         0.0847 
     88 H88        24.4939  -30.0719  -45.2879 H         1 UNK         0.0847 
     89 H89        22.7496  -30.1492  -45.2577 H         1 UNK         0.0847 
     90 H90        25.8642  -29.1387  -44.2697 H         1 UNK         0.3040 
     91 H91        27.1678  -26.7074  -43.2744 H         1 UNK         0.1015 
     92 H92        28.1413  -29.6142  -43.4475 H         1 UNK         0.0786 
     93 H93        29.1341  -28.2203  -43.0458 H         1 UNK         0.0786 
     94 H94        28.4336  -28.3560  -44.6497 H         1 UNK         0.0786 
     95 H95        25.4340  -29.4433  -41.9380 H         1 UNK         0.3172 
     96 H96        25.3745  -28.3435  -39.3079 H         1 UNK         0.0595 
     97 H97        26.2627  -30.4081  -38.1629 H         1 UNK         0.0839 
     98 H98        27.5338  -29.6234  -39.0848 H         1 UNK         0.0839 
     99 H99        26.7542  -31.0728  -39.7158 H         1 UNK         0.0839 
    100 H100       23.5324  -29.1443  -38.2896 H         1 UNK         0.2998 
    101 H101       21.4553  -29.8292  -40.0111 H         1 UNK         0.0822 
    102 H102       20.0591  -29.7857  -37.9296 H         1 UNK         0.0787 
    103 H103       21.5160  -29.8198  -36.9463 H         1 UNK         0.0787 
    104 H104       21.1749  -28.4346  -37.9866 H         1 UNK         0.0787 
    105 H105       23.5713  -32.1036  -38.7136 H         1 UNK         0.3055 
    106 H106       21.7472  -34.3837  -38.6344 H         1 UNK         0.1106 
    107 H107       23.8749  -35.6961  -38.5978 H         1 UNK         0.0828 
    108 H108       24.8052  -34.2313  -38.8810 H         1 UNK         0.0828 
    109 H109       23.8970  -34.4306  -37.3819 H         1 UNK         0.0828 
    110 H110       23.4489  -32.5659  -41.1200 H         1 UNK         0.2931 
    111 H111       23.7254  -32.7200  -43.2737 H         1 UNK         0.0412 
    112 H112       25.0995  -34.9346  -41.7471 H         1 UNK         0.3472 
    113 H113       25.4843  -36.0896  -42.9997 H         1 UNK         0.3472 
    114 H114       21.0929  -34.2671  -43.2540 H         1 UNK         0.0970 
    115 H115       21.8320  -33.6238  -44.6951 H         1 UNK         0.0970 
    116 H116       18.9116  -33.0521  -43.3450 H         1 UNK         0.0612 
    117 H117       19.4713  -32.7198  -41.7206 H         1 UNK         0.0612 
@<TRIPOS>BOND
     1    1    2 1    
     2    1   62 1    
     3    1   63 1    
     4    1   64 1    
     5    2    3 2    
     6    2    4 am   BACKBONE|DICT|INTERRES
     7    4    5 1    
     8    4   65 1    
     9    5    6 1    
    10    5   25 1    
    11    5   66 1    
    12    6    7 1    
    13    6   67 1    
    14    6   68 1    
    15    7    8 1    
    16    8    9 1    
    17    8   69 1    
    18    8   70 1    
    19    9   10 ar   
    20    9   14 ar   
    21   10   11 ar   
    22   10   71 1    
    23   11   12 ar   
    24   11   61 1    
    25   12   13 ar   
    26   12   72 1    
    27   13   14 ar   
    28   13   15 1    
    29   14   73 1    
    30   15   16 1    
    31   15   74 1    
    32   15   75 1    
    33   16   17 1    
    34   17   18 1    
    35   17   76 1    
    36   17   77 1    
    37   18   19 1    
    38   18   27 1    
    39   18   78 1    
    40   19   20 am   BACKBONE|DICT|INTERRES
    41   19   79 1    
    42   20   21 2    
    43   20   22 1    
    44   22   23 1    
    45   22   24 1    
    46   22   80 1    
    47   23   81 1    
    48   23   82 1    
    49   23   83 1    
    50   24   25 am   BACKBONE|DICT|INTERRES
    51   24   84 1    
    52   25   26 2    
    53   27   28 2    
    54   27   29 am   BACKBONE|DICT|INTERRES
    55   29   30 1    
    56   29   85 1    
    57   30   31 1    
    58   30   32 1    
    59   30   86 1    
    60   31   87 1    
    61   31   88 1    
    62   31   89 1    
    63   32   33 2    
    64   32   34 am   BACKBONE|DICT|INTERRES
    65   34   35 1    
    66   34   90 1    
    67   35   36 1    
    68   35   37 1    
    69   35   91 1    
    70   36   92 1    
    71   36   93 1    
    72   36   94 1    
    73   37   38 2    
    74   37   39 am   BACKBONE|DICT|INTERRES
    75   39   40 1    
    76   39   95 1    
    77   40   41 1    
    78   40   42 1    
    79   40   96 1    
    80   41   97 1    
    81   41   98 1    
    82   41   99 1    
    83   42   43 2    
    84   42   44 am   BACKBONE|DICT|INTERRES
    85   44   45 1    
    86   44  100 1    
    87   45   46 1    
    88   45   47 1    
    89   45  101 1    
    90   46  102 1    
    91   46  103 1    
    92   46  104 1    
    93   47   48 2    
    94   47   49 am   BACKBONE|DICT|INTERRES
    95   49   50 1    
    96   49  105 1    
    97   50   51 1    
    98   50   52 1    
    99   50  106 1    
   100   51  107 1    
   101   51  108 1    
   102   51  109 1    
   103   52   53 2    
   104   52   54 am   BACKBONE|DICT|INTERRES
   105   54   55 1    
   106   54  110 1    
   107   55   56 1    
   108   55   59 1    
   109   55  111 1    
   110   56   57 am   BACKBONE|DICT|INTERRES
   111   56   58 2    
   112   57  112 1    
   113   57  113 1    
   114   59   60 1    
   115   59  114 1    
   116   59  115 1    
   117   60   61 1    
   118   61  116 1    
   119   61  117 1    
@<TRIPOS>SUBSTRUCTURE
     1 UNK         1 GROUP             0       ****    0 ROOT    
