@<TRIPOS>MOLECULE
3R8
117   119    1
SMALL
USER_CHARGES


@<TRIPOS>ATOM
      1 CA         20.6609  -29.8441  -41.9476 C.3       0 UNK        -0.2013 
      2 C          19.1841  -29.5910  -41.7236 C.2       0 UNK         0.4866 
      3 O          18.6469  -29.9948  -40.6915 O.2       0 UNK        -0.5176 
      4 N          18.5473  -28.9158  -42.6851 N.am      1 UNK        -0.4884 
      5 CA         17.2256  -28.2971  -42.5591 C.3       1 UNK         0.0853 
      6 C6         16.4037  -28.4222  -43.8729 C.3       10 UNK        -0.0849 
      7 S7         16.1330  -30.1499  -44.3918 S.3       10 UNK        -0.2776 
      8 C8         16.9566  -30.1828  -46.0194 C.3       10 UNK         0.0316 
      9 C9         18.4726  -30.2464  -45.8934 C.ar      10 UNK        -0.0863 
     10 C10        19.0813  -31.4467  -45.5219 C.ar      10 UNK        -0.1009 
     11 C11        20.4696  -31.5362  -45.3946 C.ar      10 UNK        -0.0712 
     12 C12        21.2567  -30.4180  -45.6914 C.ar      10 UNK        -0.0894 
     13 C13        20.6626  -29.2109  -46.0781 C.ar      10 UNK        -0.0745 
     14 C14        19.2679  -29.1291  -46.1688 C.ar      10 UNK        -0.0972 
     15 C15        21.5283  -28.0069  -46.4363 C.3       10 UNK         0.0209 
     16 S16        22.4764  -27.3660  -45.0180 S.3       10 UNK        -0.2568 
     17 C17        21.1570  -26.7361  -43.9312 C.3       10 UNK        -0.0983 
     18 CA         21.1608  -25.1986  -43.7295 C.3       3 UNK         0.0876 
     19 N          19.9113  -24.7865  -43.0984 N.am      3 UNK        -0.4424 
     20 C          18.7877  -24.4839  -43.7529 C.2       2 UNK         0.4918 
     21 O          18.7191  -24.3389  -44.9745 O.2       2 UNK        -0.4875 
     22 CA         17.5001  -24.4825  -42.9114 C.3       2 UNK         0.0481 
     23 CB         16.4257  -23.5412  -43.4842 C.3       2 UNK        -0.1831 
     24 N          16.9923  -25.8559  -42.9083 N.am      2 UNK        -0.4498 
     25 C          17.4669  -26.8324  -42.1199 C.2       1 UNK         0.5027 
     26 O          18.1430  -26.6039  -41.1139 O.2       1 UNK        -0.4969 
     27 C          22.3290  -24.7442  -42.8383 C.2       3 UNK         0.5005 
     28 O          22.1685  -24.6702  -41.6165 O.2       3 UNK        -0.5279 
     29 N          23.4802  -24.4741  -43.4660 N.am      4 UNK        -0.4463 
     30 CA         24.7523  -24.1714  -42.8016 C.3       4 UNK         0.0283 
     31 CB         25.2169  -22.7675  -43.2259 C.3       4 UNK        -0.1875 
     32 C          25.8396  -25.2150  -43.1204 C.2       4 UNK         0.4949 
     33 O          26.8744  -25.2182  -42.4538 O.2       4 UNK        -0.5039 
     34 N          25.6092  -26.0737  -44.1253 N.am      5 UNK        -0.4663 
     35 CA         26.5463  -27.1136  -44.5668 C.3       5 UNK         0.0242 
     36 CB         26.3184  -27.3784  -46.0650 C.3       5 UNK        -0.1982 
     37 C          26.4169  -28.4236  -43.7683 C.2       5 UNK         0.5017 
     38 O          27.2962  -29.2799  -43.8711 O.2       5 UNK        -0.5012 
     39 N          25.3302  -28.5642  -43.0046 N.am      6 UNK        -0.4439 
     40 CA         24.9912  -29.7099  -42.1701 C.3       6 UNK         0.0297 
     41 CB         24.2881  -30.7806  -43.0270 C.3       6 UNK        -0.2006 
     42 C          24.0846  -29.2183  -41.0353 C.2       6 UNK         0.4892 
     43 O          23.6672  -28.0566  -41.0452 O.2       6 UNK        -0.5089 
     44 N          23.7716  -30.1160  -40.0970 N.am      7 UNK        -0.4243 
     45 CA         22.8214  -29.8955  -39.0118 C.3       7 UNK         0.0196 
     46 CB         23.5641  -29.4029  -37.7578 C.3       7 UNK        -0.2007 
     47 C          22.0883  -31.2121  -38.7366 C.2       7 UNK         0.5020 
     48 O          22.7085  -32.2743  -38.8211 O.2       7 UNK        -0.5147 
     49 N          20.7987  -31.1056  -38.3886 N.am      8 UNK        -0.4734 
     50 CA         19.8959  -32.1893  -37.9785 C.3       8 UNK         0.0238 
     51 CB         20.3101  -32.7317  -36.5928 C.3       8 UNK        -0.1912 
     52 C          19.7304  -33.3042  -39.0325 C.2       8 UNK         0.5038 
     53 O          19.8443  -34.4856  -38.6974 O.2       8 UNK        -0.5046 
     54 N          19.4415  -32.9133  -40.2816 N.am      9 UNK        -0.4200 
     55 CA         19.0840  -33.8500  -41.3650 C.3       9 UNK         0.0839 
     56 C          17.6253  -34.3882  -41.2685 C.2       9 UNK         0.5513 
     57 N          16.7479  -33.8076  -40.4578 N.am      9 UNK        -0.7519 
     58 O          17.2866  -35.3600  -41.9389 O.2       9 UNK        -0.4960 
     59 C59        19.3541  -33.2621  -42.7742 C.3       10 UNK        -0.0876 
     60 S60        21.1290  -33.0414  -43.1410 S.3       10 UNK        -0.2414 
     61 C61        21.1114  -32.8470  -44.9553 C.3       10 UNK         0.0169 
     62 H62        20.9031  -29.9144  -43.0058 H         1 UNK         0.0903 
     63 H63        21.2287  -29.0215  -41.5212 H         1 UNK         0.0903 
     64 H64        20.9806  -30.7618  -41.4602 H         1 UNK         0.0903 
     65 H65        19.0486  -28.6878  -43.5311 H         1 UNK         0.3096 
     66 H66        16.6639  -28.7812  -41.7569 H         1 UNK         0.1121 
     67 H67        16.8882  -27.8813  -44.6877 H         1 UNK         0.0849 
     68 H68        15.4171  -27.9722  -43.7461 H         1 UNK         0.0849 
     69 H69        16.6468  -29.3202  -46.6115 H         1 UNK         0.0865 
     70 H70        16.6089  -31.0599  -46.5673 H         1 UNK         0.0865 
     71 H71        18.4653  -32.3118  -45.3202 H         1 UNK         0.1346 
     72 H72        22.3336  -30.4828  -45.6200 H         1 UNK         0.1412 
     73 H73        18.8028  -28.2014  -46.4739 H         1 UNK         0.1426 
     74 H74        20.9237  -27.1994  -46.8526 H         1 UNK         0.0716 
     75 H75        22.2287  -28.2980  -47.2201 H         1 UNK         0.0716 
     76 H76        21.2376  -27.2414  -42.9690 H         1 UNK         0.0695 
     77 H77        20.1977  -27.0446  -44.3463 H         1 UNK         0.0695 
     78 H78        21.2518  -24.7016  -44.6982 H         1 UNK         0.0983 
     79 H79        19.9040  -24.8673  -42.0889 H         1 UNK         0.3095 
     80 H80        17.7324  -24.1585  -41.8945 H         1 UNK         0.0454 
     81 H81        16.1302  -23.8213  -44.4962 H         1 UNK         0.0851 
     82 H82        16.7915  -22.5146  -43.5245 H         1 UNK         0.0851 
     83 H83        15.5297  -23.5414  -42.8635 H         1 UNK         0.0851 
     84 H84        16.4484  -26.1178  -43.7175 H         1 UNK         0.2976 
     85 H85        23.5007  -24.5222  -44.4751 H         1 UNK         0.3116 
     86 H86        24.6260  -24.1745  -41.7168 H         1 UNK         0.0646 
     87 H87        25.3844  -22.7037  -44.3017 H         1 UNK         0.0847 
     88 H88        26.1528  -22.4992  -42.7337 H         1 UNK         0.0847 
     89 H89        24.4821  -22.0092  -42.9549 H         1 UNK         0.0847 
     90 H90        24.7188  -26.0494  -44.6000 H         1 UNK         0.3040 
     91 H91        27.5698  -26.7545  -44.4365 H         1 UNK         0.1015 
     92 H92        26.4511  -26.4705  -46.6537 H         1 UNK         0.0786 
     93 H93        25.3169  -27.7636  -46.2608 H         1 UNK         0.0786 
     94 H94        27.0289  -28.1144  -46.4439 H         1 UNK         0.0786 
     95 H95        24.6871  -27.7870  -42.9124 H         1 UNK         0.3172 
     96 H96        25.9004  -30.1225  -41.7282 H         1 UNK         0.0595 
     97 H97        23.3547  -30.4043  -43.4458 H         1 UNK         0.0839 
     98 H98        24.0467  -31.6679  -42.4408 H         1 UNK         0.0839 
     99 H99        24.9175  -31.1060  -43.8553 H         1 UNK         0.0839 
    100 H100       24.1101  -31.0675  -40.1708 H         1 UNK         0.2998 
    101 H101       22.0882  -29.1419  -39.3069 H         1 UNK         0.0822 
    102 H102       24.0711  -28.4561  -37.9451 H         1 UNK         0.0787 
    103 H103       22.8714  -29.2424  -36.9306 H         1 UNK         0.0787 
    104 H104       24.3119  -30.1235  -37.4240 H         1 UNK         0.0787 
    105 H105       20.3820  -30.1838  -38.3889 H         1 UNK         0.3055 
    106 H106       18.9078  -31.7390  -37.8678 H         1 UNK         0.1106 
    107 H107       19.5854  -33.4587  -36.2237 H         1 UNK         0.0828 
    108 H108       20.3681  -31.9324  -35.8541 H         1 UNK         0.0828 
    109 H109       21.2804  -33.2285  -36.6260 H         1 UNK         0.0828 
    110 H110       19.3138  -31.9251  -40.4683 H         1 UNK         0.2931 
    111 H111       19.7233  -34.7296  -41.2649 H         1 UNK         0.0412 
    112 H112       17.0051  -32.9995  -39.9146 H         1 UNK         0.3472 
    113 H113       15.8096  -34.1726  -40.4051 H         1 UNK         0.3472 
    114 H114       18.9483  -33.9224  -43.5433 H         1 UNK         0.0970 
    115 H115       18.8379  -32.3081  -42.8875 H         1 UNK         0.0970 
    116 H116       20.5898  -33.6913  -45.4084 H         1 UNK         0.0612 
    117 H117       22.1392  -32.8963  -45.3177 H         1 UNK         0.0612 
@<TRIPOS>BOND
     1    1    2 1    
     2    1   62 1    
     3    1   63 1    
     4    1   64 1    
     5    2    3 2    
     6    2    4 am   BACKBONE|DICT|INTERRES
     7    4    5 1    
     8    4   65 1    
     9    5    6 1    
    10    5   25 1    
    11    5   66 1    
    12    6    7 1    
    13    6   67 1    
    14    6   68 1    
    15    7    8 1    
    16    8    9 1    
    17    8   69 1    
    18    8   70 1    
    19    9   10 ar   
    20    9   14 ar   
    21   10   11 ar   
    22   10   71 1    
    23   11   12 ar   
    24   11   61 1    
    25   12   13 ar   
    26   12   72 1    
    27   13   14 ar   
    28   13   15 1    
    29   14   73 1    
    30   15   16 1    
    31   15   74 1    
    32   15   75 1    
    33   16   17 1    
    34   17   18 1    
    35   17   76 1    
    36   17   77 1    
    37   18   19 1    
    38   18   27 1    
    39   18   78 1    
    40   19   20 am   BACKBONE|DICT|INTERRES
    41   19   79 1    
    42   20   21 2    
    43   20   22 1    
    44   22   23 1    
    45   22   24 1    
    46   22   80 1    
    47   23   81 1    
    48   23   82 1    
    49   23   83 1    
    50   24   25 am   BACKBONE|DICT|INTERRES
    51   24   84 1    
    52   25   26 2    
    53   27   28 2    
    54   27   29 am   BACKBONE|DICT|INTERRES
    55   29   30 1    
    56   29   85 1    
    57   30   31 1    
    58   30   32 1    
    59   30   86 1    
    60   31   87 1    
    61   31   88 1    
    62   31   89 1    
    63   32   33 2    
    64   32   34 am   BACKBONE|DICT|INTERRES
    65   34   35 1    
    66   34   90 1    
    67   35   36 1    
    68   35   37 1    
    69   35   91 1    
    70   36   92 1    
    71   36   93 1    
    72   36   94 1    
    73   37   38 2    
    74   37   39 am   BACKBONE|DICT|INTERRES
    75   39   40 1    
    76   39   95 1    
    77   40   41 1    
    78   40   42 1    
    79   40   96 1    
    80   41   97 1    
    81   41   98 1    
    82   41   99 1    
    83   42   43 2    
    84   42   44 am   BACKBONE|DICT|INTERRES
    85   44   45 1    
    86   44  100 1    
    87   45   46 1    
    88   45   47 1    
    89   45  101 1    
    90   46  102 1    
    91   46  103 1    
    92   46  104 1    
    93   47   48 2    
    94   47   49 am   BACKBONE|DICT|INTERRES
    95   49   50 1    
    96   49  105 1    
    97   50   51 1    
    98   50   52 1    
    99   50  106 1    
   100   51  107 1    
   101   51  108 1    
   102   51  109 1    
   103   52   53 2    
   104   52   54 am   BACKBONE|DICT|INTERRES
   105   54   55 1    
   106   54  110 1    
   107   55   56 1    
   108   55   59 1    
   109   55  111 1    
   110   56   57 am   BACKBONE|DICT|INTERRES
   111   56   58 2    
   112   57  112 1    
   113   57  113 1    
   114   59   60 1    
   115   59  114 1    
   116   59  115 1    
   117   60   61 1    
   118   61  116 1    
   119   61  117 1    
@<TRIPOS>SUBSTRUCTURE
     1 UNK         1 GROUP             0       ****    0 ROOT    
