@<TRIPOS>MOLECULE
3R8
117   119    1
SMALL
USER_CHARGES


@<TRIPOS>ATOM
      1 CA         17.1062  -28.6396  -38.8754 C.3       0 UNK        -0.2013 
      2 C          17.4949  -28.4203  -40.3295 C.2       0 UNK         0.4866 
      3 O          18.5221  -28.9447  -40.7615 O.2       0 UNK        -0.5176 
      4 N          16.6678  -27.6569  -41.0591 N.am      1 UNK        -0.4884 
      5 CA         16.8120  -27.2184  -42.4572 C.3       1 UNK         0.0853 
      6 C6         17.0131  -28.3714  -43.4768 C.3       10 UNK        -0.0849 
      7 S7         15.6261  -29.5643  -43.4822 S.3       10 UNK        -0.2776 
      8 C8         15.6191  -30.1356  -45.2198 C.3       10 UNK         0.0316 
      9 C9         17.0157  -30.5138  -45.6944 C.ar      10 UNK        -0.0863 
     10 C10        17.7286  -31.5172  -45.0364 C.ar      10 UNK        -0.1009 
     11 C11        19.0677  -31.7633  -45.3495 C.ar      10 UNK        -0.0712 
     12 C12        19.6719  -31.0447  -46.3867 C.ar      10 UNK        -0.0894 
     13 C13        18.9485  -30.0785  -47.0947 C.ar      10 UNK        -0.0745 
     14 C14        17.6216  -29.8154  -46.7417 C.ar      10 UNK        -0.0972 
     15 C15        19.5980  -29.3049  -48.2331 C.3       10 UNK         0.0209 
     16 S16        19.7701  -27.5349  -47.8442 S.3       10 UNK        -0.2568 
     17 C17        21.0660  -27.5818  -46.5654 C.3       10 UNK        -0.0983 
     18 CA         21.2878  -26.1898  -45.9283 C.3       3 UNK         0.0876 
     19 N          20.1005  -25.7326  -45.1980 N.am      3 UNK        -0.4424 
     20 C          19.9175  -24.4920  -44.7276 C.2       2 UNK         0.4918 
     21 O          20.7439  -23.5872  -44.8563 O.2       2 UNK        -0.4875 
     22 CA         18.5785  -24.1772  -44.0335 C.3       2 UNK         0.0481 
     23 CB         17.7474  -23.2153  -44.8999 C.3       2 UNK        -0.1831 
     24 N          17.7618  -25.3590  -43.7327 N.am      2 UNK        -0.4498 
     25 C          17.8736  -26.1054  -42.6241 C.2       1 UNK         0.5027 
     26 O          18.7334  -25.9094  -41.7620 O.2       1 UNK        -0.4969 
     27 C          22.5425  -26.2057  -45.0332 C.2       3 UNK         0.5005 
     28 O          22.4473  -26.4826  -43.8341 O.2       3 UNK        -0.5279 
     29 N          23.7098  -25.9604  -45.6449 N.am      4 UNK        -0.4463 
     30 CA         25.0298  -25.9501  -45.0047 C.3       4 UNK         0.0283 
     31 CB         25.9959  -25.1143  -45.8655 C.3       4 UNK        -0.1875 
     32 C          25.5633  -27.3713  -44.7267 C.2       4 UNK         0.4949 
     33 O          26.6678  -27.7166  -45.1480 O.2       4 UNK        -0.5039 
     34 N          24.7619  -28.1734  -44.0174 N.am      5 UNK        -0.4663 
     35 CA         25.0724  -29.5474  -43.6119 C.3       5 UNK         0.0242 
     36 CB         23.7501  -30.3153  -43.4410 C.3       5 UNK        -0.1982 
     37 C          25.9258  -29.6251  -42.3303 C.2       5 UNK         0.5017 
     38 O          26.3292  -30.7245  -41.9474 O.2       5 UNK        -0.5012 
     39 N          26.1693  -28.4741  -41.6829 N.am      6 UNK        -0.4439 
     40 CA         26.8824  -28.2461  -40.4169 C.3       6 UNK         0.0297 
     41 CB         28.3316  -28.7709  -40.4581 C.3       6 UNK        -0.2006 
     42 C          26.1175  -28.7709  -39.1901 C.2       6 UNK         0.4892 
     43 O          25.8600  -27.9998  -38.2648 O.2       6 UNK        -0.5089 
     44 N          25.7386  -30.0523  -39.2195 N.am      7 UNK        -0.4243 
     45 CA         24.7837  -30.6599  -38.2965 C.3       7 UNK         0.0196 
     46 CB         25.0409  -32.1746  -38.2424 C.3       7 UNK        -0.2007 
     47 C          23.3501  -30.3759  -38.7719 C.2       7 UNK         0.5020 
     48 O          23.1242  -30.1981  -39.9706 O.2       7 UNK        -0.5147 
     49 N          22.3985  -30.3689  -37.8324 N.am      8 UNK        -0.4734 
     50 CA         20.9680  -30.2643  -38.1282 C.3       8 UNK         0.0238 
     51 CB         20.2101  -29.9236  -36.8340 C.3       8 UNK        -0.1912 
     52 C          20.4451  -31.5777  -38.7322 C.2       8 UNK         0.5038 
     53 O          20.7623  -32.6482  -38.2069 O.2       8 UNK        -0.5046 
     54 N          19.6381  -31.4735  -39.7928 N.am      9 UNK        -0.4200 
     55 CA         19.0062  -32.6161  -40.4723 C.3       9 UNK         0.0839 
     56 C          17.7096  -33.1339  -39.7794 C.2       9 UNK         0.5513 
     57 N          17.2718  -32.5697  -38.6600 N.am      9 UNK        -0.7519 
     58 O          17.0931  -34.0815  -40.2598 O.2       9 UNK        -0.4960 
     59 C59        18.7718  -32.3148  -41.9743 C.3       10 UNK        -0.0876 
     60 S60        20.3320  -32.1267  -42.9082 S.3       10 UNK        -0.2414 
     61 C61        19.8650  -32.7817  -44.5462 C.3       10 UNK         0.0169 
     62 H62        17.0496  -29.7045  -38.6572 H         1 UNK         0.0903 
     63 H63        17.8508  -28.1895  -38.2198 H         1 UNK         0.0903 
     64 H64        16.1383  -28.1978  -38.6392 H         1 UNK         0.0903 
     65 H65        15.8573  -27.2707  -40.5953 H         1 UNK         0.3096 
     66 H66        15.8574  -26.7451  -42.6945 H         1 UNK         0.1121 
     67 H67        17.9419  -28.9119  -43.2861 H         1 UNK         0.0849 
     68 H68        17.1081  -27.9658  -44.4852 H         1 UNK         0.0849 
     69 H69        14.9580  -30.9982  -45.3126 H         1 UNK         0.0865 
     70 H70        15.1939  -29.3511  -45.8477 H         1 UNK         0.0865 
     71 H71        17.2494  -32.0616  -44.2365 H         1 UNK         0.1346 
     72 H72        20.7072  -31.2320  -46.6369 H         1 UNK         0.1412 
     73 H73        17.0756  -29.0418  -47.2647 H         1 UNK         0.1426 
     74 H74        18.9842  -29.4102  -49.1287 H         1 UNK         0.0716 
     75 H75        20.5771  -29.7173  -48.4818 H         1 UNK         0.0716 
     76 H76        21.9804  -27.9480  -47.0369 H         1 UNK         0.0695 
     77 H77        20.7971  -28.3137  -45.8009 H         1 UNK         0.0695 
     78 H78        21.4671  -25.4693  -46.7299 H         1 UNK         0.0983 
     79 H79        19.3808  -26.4202  -45.0419 H         1 UNK         0.3095 
     80 H80        18.8140  -23.6625  -43.0994 H         1 UNK         0.0454 
     81 H81        18.3007  -22.2986  -45.1095 H         1 UNK         0.0851 
     82 H82        16.8250  -22.9234  -44.3976 H         1 UNK         0.0851 
     83 H83        17.4825  -23.6607  -45.8597 H         1 UNK         0.0851 
     84 H84        17.0275  -25.5709  -44.3939 H         1 UNK         0.2976 
     85 H85        23.7035  -25.7891  -46.6408 H         1 UNK         0.3116 
     86 H86        24.9387  -25.4511  -44.0375 H         1 UNK         0.0646 
     87 H87        26.1442  -25.5550  -46.8521 H         1 UNK         0.0847 
     88 H88        25.6282  -24.0973  -46.0029 H         1 UNK         0.0847 
     89 H89        26.9760  -25.0385  -45.3923 H         1 UNK         0.0847 
     90 H90        23.8629  -27.7946  -43.7273 H         1 UNK         0.3040 
     91 H91        25.6466  -30.0311  -44.4053 H         1 UNK         0.1015 
     92 H92        23.9280  -31.3493  -43.1422 H         1 UNK         0.0786 
     93 H93        23.1817  -30.3421  -44.3710 H         1 UNK         0.0786 
     94 H94        23.1165  -29.8628  -42.6771 H         1 UNK         0.0786 
     95 H95        25.7482  -27.6492  -42.0860 H         1 UNK         0.3172 
     96 H96        26.9389  -27.1616  -40.3092 H         1 UNK         0.0595 
     97 H97        28.3773  -29.8574  -40.5348 H         1 UNK         0.0839 
     98 H98        28.8693  -28.4908  -39.5515 H         1 UNK         0.0839 
     99 H99        28.8801  -28.3527  -41.3021 H         1 UNK         0.0839 
    100 H100       25.9383  -30.5676  -40.0723 H         1 UNK         0.2998 
    101 H101       24.9217  -30.2394  -37.2979 H         1 UNK         0.0822 
    102 H102       24.3525  -32.6649  -37.5525 H         1 UNK         0.0787 
    103 H103       24.9086  -32.6402  -39.2202 H         1 UNK         0.0787 
    104 H104       26.0530  -32.3930  -37.9011 H         1 UNK         0.0787 
    105 H105       22.6511  -30.5679  -36.8749 H         1 UNK         0.3055 
    106 H106       20.8151  -29.4552  -38.8476 H         1 UNK         0.1106 
    107 H107       20.5274  -28.9620  -36.4300 H         1 UNK         0.0828 
    108 H108       19.1366  -29.8616  -37.0105 H         1 UNK         0.0828 
    109 H109       20.3659  -30.6798  -36.0634 H         1 UNK         0.0828 
    110 H110       19.4004  -30.5564  -40.1631 H         1 UNK         0.2931 
    111 H111       19.7008  -33.4573  -40.4255 H         1 UNK         0.0412 
    112 H112       16.4357  -32.9260  -38.2237 H         1 UNK         0.3472 
    113 H113       17.7882  -31.8217  -38.2297 H         1 UNK         0.3472 
    114 H114       18.1733  -31.4096  -42.0942 H         1 UNK         0.0970 
    115 H115       18.2020  -33.1252  -42.4311 H         1 UNK         0.0970 
    116 H116       19.2954  -33.7054  -44.4361 H         1 UNK         0.0612 
    117 H117       20.7771  -33.0506  -45.0811 H         1 UNK         0.0612 
@<TRIPOS>BOND
     1    1    2 1    
     2    1   62 1    
     3    1   63 1    
     4    1   64 1    
     5    2    3 2    
     6    2    4 am   BACKBONE|DICT|INTERRES
     7    4    5 1    
     8    4   65 1    
     9    5    6 1    
    10    5   25 1    
    11    5   66 1    
    12    6    7 1    
    13    6   67 1    
    14    6   68 1    
    15    7    8 1    
    16    8    9 1    
    17    8   69 1    
    18    8   70 1    
    19    9   10 ar   
    20    9   14 ar   
    21   10   11 ar   
    22   10   71 1    
    23   11   12 ar   
    24   11   61 1    
    25   12   13 ar   
    26   12   72 1    
    27   13   14 ar   
    28   13   15 1    
    29   14   73 1    
    30   15   16 1    
    31   15   74 1    
    32   15   75 1    
    33   16   17 1    
    34   17   18 1    
    35   17   76 1    
    36   17   77 1    
    37   18   19 1    
    38   18   27 1    
    39   18   78 1    
    40   19   20 am   BACKBONE|DICT|INTERRES
    41   19   79 1    
    42   20   21 2    
    43   20   22 1    
    44   22   23 1    
    45   22   24 1    
    46   22   80 1    
    47   23   81 1    
    48   23   82 1    
    49   23   83 1    
    50   24   25 am   BACKBONE|DICT|INTERRES
    51   24   84 1    
    52   25   26 2    
    53   27   28 2    
    54   27   29 am   BACKBONE|DICT|INTERRES
    55   29   30 1    
    56   29   85 1    
    57   30   31 1    
    58   30   32 1    
    59   30   86 1    
    60   31   87 1    
    61   31   88 1    
    62   31   89 1    
    63   32   33 2    
    64   32   34 am   BACKBONE|DICT|INTERRES
    65   34   35 1    
    66   34   90 1    
    67   35   36 1    
    68   35   37 1    
    69   35   91 1    
    70   36   92 1    
    71   36   93 1    
    72   36   94 1    
    73   37   38 2    
    74   37   39 am   BACKBONE|DICT|INTERRES
    75   39   40 1    
    76   39   95 1    
    77   40   41 1    
    78   40   42 1    
    79   40   96 1    
    80   41   97 1    
    81   41   98 1    
    82   41   99 1    
    83   42   43 2    
    84   42   44 am   BACKBONE|DICT|INTERRES
    85   44   45 1    
    86   44  100 1    
    87   45   46 1    
    88   45   47 1    
    89   45  101 1    
    90   46  102 1    
    91   46  103 1    
    92   46  104 1    
    93   47   48 2    
    94   47   49 am   BACKBONE|DICT|INTERRES
    95   49   50 1    
    96   49  105 1    
    97   50   51 1    
    98   50   52 1    
    99   50  106 1    
   100   51  107 1    
   101   51  108 1    
   102   51  109 1    
   103   52   53 2    
   104   52   54 am   BACKBONE|DICT|INTERRES
   105   54   55 1    
   106   54  110 1    
   107   55   56 1    
   108   55   59 1    
   109   55  111 1    
   110   56   57 am   BACKBONE|DICT|INTERRES
   111   56   58 2    
   112   57  112 1    
   113   57  113 1    
   114   59   60 1    
   115   59  114 1    
   116   59  115 1    
   117   60   61 1    
   118   61  116 1    
   119   61  117 1    
@<TRIPOS>SUBSTRUCTURE
     1 UNK         1 GROUP             0       ****    0 ROOT    
