@<TRIPOS>MOLECULE
3R8
117   119    1
SMALL
USER_CHARGES


@<TRIPOS>ATOM
      1 CA         17.2279  -23.1752  -47.7832 C.3       0 UNK        -0.2013 
      2 C          17.7352  -24.3592  -46.9747 C.2       0 UNK         0.4866 
      3 O          18.7400  -24.9693  -47.3420 O.2       0 UNK        -0.5176 
      4 N          17.0627  -24.6832  -45.8631 N.am      1 UNK        -0.4884 
      5 CA         17.3596  -25.8126  -44.9680 C.3       1 UNK         0.0853 
      6 C6         16.0952  -26.2660  -44.1938 C.3       10 UNK        -0.0849 
      7 S7         14.8277  -26.9129  -45.3380 S.3       10 UNK        -0.2776 
      8 C8         14.4421  -28.5472  -44.6207 C.3       10 UNK         0.0316 
      9 C9         15.6426  -29.4802  -44.4612 C.ar      10 UNK        -0.0863 
     10 C10        15.7540  -30.2513  -43.2991 C.ar      10 UNK        -0.1009 
     11 C11        16.8094  -31.1530  -43.1324 C.ar      10 UNK        -0.0712 
     12 C12        17.7554  -31.2866  -44.1518 C.ar      10 UNK        -0.0894 
     13 C13        17.6912  -30.4859  -45.2970 C.ar      10 UNK        -0.0745 
     14 C14        16.6198  -29.6012  -45.4574 C.ar      10 UNK        -0.0972 
     15 C15        18.7926  -30.5693  -46.3479 C.3       10 UNK         0.0209 
     16 S16        20.0731  -29.2845  -46.1183 S.3       10 UNK        -0.2568 
     17 C17        20.7314  -29.7122  -44.4680 C.3       10 UNK        -0.0983 
     18 CA         21.6598  -28.6555  -43.8139 C.3       3 UNK         0.0876 
     19 N          21.2037  -27.2855  -44.0674 N.am      3 UNK        -0.4424 
     20 C          21.6633  -26.1439  -43.5339 C.2       2 UNK         0.4918 
     21 O          22.5784  -26.0877  -42.7119 O.2       2 UNK        -0.4875 
     22 CA         20.9655  -24.8433  -43.9710 C.3       2 UNK         0.0481 
     23 CB         21.8774  -24.0391  -44.9098 C.3       2 UNK        -0.1831 
     24 N          19.6763  -25.0734  -44.6316 N.am      2 UNK        -0.4498 
     25 C          18.5601  -25.5194  -44.0383 C.2       1 UNK         0.5027 
     26 O          18.4775  -25.7210  -42.8252 O.2       1 UNK        -0.4969 
     27 C          21.7813  -28.9814  -42.3118 C.2       3 UNK         0.5005 
     28 O          22.7352  -29.6446  -41.9044 O.2       3 UNK        -0.5279 
     29 N          20.8089  -28.5036  -41.5209 N.am      4 UNK        -0.4463 
     30 CA         20.7196  -28.6885  -40.0718 C.3       4 UNK         0.0283 
     31 CB         19.3627  -28.1607  -39.5812 C.3       4 UNK        -0.1875 
     32 C          21.8693  -28.0294  -39.2905 C.2       4 UNK         0.4949 
     33 O          22.2303  -28.5288  -38.2258 O.2       4 UNK        -0.5039 
     34 N          22.4314  -26.9413  -39.8310 N.am      5 UNK        -0.4663 
     35 CA         23.6100  -26.2695  -39.2853 C.3       5 UNK         0.0242 
     36 CB         23.4779  -24.7528  -39.5030 C.3       5 UNK        -0.1982 
     37 C          24.8974  -26.7978  -39.9343 C.2       5 UNK         0.5017 
     38 O          25.8897  -26.9942  -39.2327 O.2       5 UNK        -0.5012 
     39 N          24.8621  -26.9990  -41.2592 N.am      6 UNK        -0.4439 
     40 CA         26.0136  -27.3782  -42.0777 C.3       6 UNK         0.0297 
     41 CB         25.6757  -27.1630  -43.5621 C.3       6 UNK        -0.2006 
     42 C          26.5118  -28.8137  -41.8435 C.2       6 UNK         0.4892 
     43 O          27.7259  -29.0192  -41.8046 O.2       6 UNK        -0.5089 
     44 N          25.5862  -29.7753  -41.7262 N.am      7 UNK        -0.4243 
     45 CA         25.8959  -31.2090  -41.6755 C.3       7 UNK         0.0196 
     46 CB         25.6778  -31.8030  -43.0797 C.3       7 UNK        -0.2007 
     47 C          25.0785  -31.9830  -40.6280 C.2       7 UNK         0.5020 
     48 O          25.3126  -33.1816  -40.4721 O.2       7 UNK        -0.5147 
     49 N          24.1365  -31.3126  -39.9465 N.am      8 UNK        -0.4734 
     50 CA         23.0973  -31.8903  -39.0812 C.3       8 UNK         0.0238 
     51 CB         23.7029  -32.5964  -37.8482 C.3       8 UNK        -0.1912 
     52 C          22.1193  -32.7743  -39.8817 C.2       8 UNK         0.5038 
     53 O          21.7740  -33.8720  -39.4398 O.2       8 UNK        -0.5046 
     54 N          21.7050  -32.2667  -41.0516 N.am      9 UNK        -0.4200 
     55 CA         20.8654  -32.9431  -42.0533 C.3       9 UNK         0.0839 
     56 C          21.6083  -34.1428  -42.7186 C.2       9 UNK         0.5513 
     57 N          20.9150  -35.1918  -43.1437 N.am      9 UNK        -0.7519 
     58 O          22.8202  -34.1031  -42.9158 O.2       9 UNK        -0.4960 
     59 C59        19.4271  -33.2655  -41.5453 C.3       10 UNK        -0.0876 
     60 S60        18.5058  -31.7860  -40.9927 S.3       10 UNK        -0.2414 
     61 C61        16.9069  -31.9828  -41.8557 C.3       10 UNK         0.0169 
     62 H62        16.9787  -23.4925  -48.7954 H         1 UNK         0.0903 
     63 H63        16.3382  -22.7290  -47.3392 H         1 UNK         0.0903 
     64 H64        17.9977  -22.4066  -47.8466 H         1 UNK         0.0903 
     65 H65        16.2544  -24.1349  -45.6042 H         1 UNK         0.3096 
     66 H66        17.6762  -26.6572  -45.5854 H         1 UNK         0.1121 
     67 H67        15.6709  -25.4381  -43.6230 H         1 UNK         0.0849 
     68 H68        16.3426  -27.0390  -43.4639 H         1 UNK         0.0849 
     69 H69        13.9542  -28.3852  -43.6581 H         1 UNK         0.0865 
     70 H70        13.7049  -29.0400  -45.2557 H         1 UNK         0.0865 
     71 H71        15.0073  -30.1574  -42.5222 H         1 UNK         0.1346 
     72 H72        18.5725  -31.9832  -44.0344 H         1 UNK         0.1412 
     73 H73        16.5541  -28.9999  -46.3539 H         1 UNK         0.1426 
     74 H74        19.2645  -31.5530  -46.3286 H         1 UNK         0.0716 
     75 H75        18.3588  -30.4604  -47.3430 H         1 UNK         0.0716 
     76 H76        19.8750  -29.8796  -43.8173 H         1 UNK         0.0695 
     77 H77        21.2512  -30.6683  -44.5481 H         1 UNK         0.0695 
     78 H78        22.6530  -28.7458  -44.2563 H         1 UNK         0.0983 
     79 H79        20.4719  -27.2123  -44.7589 H         1 UNK         0.3095 
     80 H80        20.7877  -24.2495  -43.0722 H         1 UNK         0.0454 
     81 H81        22.0812  -24.5786  -45.8357 H         1 UNK         0.0851 
     82 H82        21.4305  -23.0799  -45.1715 H         1 UNK         0.0851 
     83 H83        22.8378  -23.8288  -44.4366 H         1 UNK         0.0851 
     84 H84        19.6390  -24.9415  -45.6397 H         1 UNK         0.2976 
     85 H85        20.0714  -27.9623  -41.9510 H         1 UNK         0.3116 
     86 H86        20.7559  -29.7605  -39.8721 H         1 UNK         0.0646 
     87 H87        19.2458  -27.0950  -39.7830 H         1 UNK         0.0847 
     88 H88        18.5362  -28.6860  -40.0605 H         1 UNK         0.0847 
     89 H89        19.2539  -28.3039  -38.5053 H         1 UNK         0.0847 
     90 H90        22.0993  -26.6169  -40.7313 H         1 UNK         0.3040 
     91 H91        23.6795  -26.4499  -38.2099 H         1 UNK         0.1015 
     92 H92        23.4042  -24.4965  -40.5607 H         1 UNK         0.0786 
     93 H93        24.3426  -24.2246  -39.0988 H         1 UNK         0.0786 
     94 H94        22.5943  -24.3579  -39.0014 H         1 UNK         0.0786 
     95 H95        24.0086  -26.7625  -41.7595 H         1 UNK         0.3172 
     96 H96        26.8328  -26.7022  -41.8230 H         1 UNK         0.0595 
     97 H97        26.5319  -27.3989  -44.1957 H         1 UNK         0.0839 
     98 H98        25.4017  -26.1267  -43.7612 H         1 UNK         0.0839 
     99 H99        24.8483  -27.7950  -43.8843 H         1 UNK         0.0839 
    100 H100       24.6013  -29.5305  -41.7985 H         1 UNK         0.2998 
    101 H101       26.9419  -31.3572  -41.3992 H         1 UNK         0.0822 
    102 H102       25.9156  -32.8675  -43.1005 H         1 UNK         0.0787 
    103 H103       24.6406  -31.6959  -43.4008 H         1 UNK         0.0787 
    104 H104       26.3119  -31.3160  -43.8207 H         1 UNK         0.0787 
    105 H105       24.0130  -30.3344  -40.1698 H         1 UNK         0.3055 
    106 H106       22.5038  -31.0572  -38.7073 H         1 UNK         0.1106 
    107 H107       24.3903  -31.9408  -37.3139 H         1 UNK         0.0828 
    108 H108       22.9204  -32.8860  -37.1458 H         1 UNK         0.0828 
    109 H109       24.2432  -33.5040  -38.1175 H         1 UNK         0.0828 
    110 H110       22.0973  -31.3775  -41.3436 H         1 UNK         0.2931 
    111 H111       20.7567  -32.2185  -42.8584 H         1 UNK         0.0412 
    112 H112       21.4086  -35.9473  -43.5935 H         1 UNK         0.3472 
    113 H113       19.9184  -35.2564  -43.0147 H         1 UNK         0.3472 
    114 H114       18.8521  -33.7477  -42.3355 H         1 UNK         0.0970 
    115 H115       19.4586  -33.9806  -40.7221 H         1 UNK         0.0970 
    116 H116       16.7153  -33.0314  -42.0851 H         1 UNK         0.0612 
    117 H117       16.1235  -31.6858  -41.1569 H         1 UNK         0.0612 
@<TRIPOS>BOND
     1    1    2 1    
     2    1   62 1    
     3    1   63 1    
     4    1   64 1    
     5    2    3 2    
     6    2    4 am   BACKBONE|DICT|INTERRES
     7    4    5 1    
     8    4   65 1    
     9    5    6 1    
    10    5   25 1    
    11    5   66 1    
    12    6    7 1    
    13    6   67 1    
    14    6   68 1    
    15    7    8 1    
    16    8    9 1    
    17    8   69 1    
    18    8   70 1    
    19    9   10 ar   
    20    9   14 ar   
    21   10   11 ar   
    22   10   71 1    
    23   11   12 ar   
    24   11   61 1    
    25   12   13 ar   
    26   12   72 1    
    27   13   14 ar   
    28   13   15 1    
    29   14   73 1    
    30   15   16 1    
    31   15   74 1    
    32   15   75 1    
    33   16   17 1    
    34   17   18 1    
    35   17   76 1    
    36   17   77 1    
    37   18   19 1    
    38   18   27 1    
    39   18   78 1    
    40   19   20 am   BACKBONE|DICT|INTERRES
    41   19   79 1    
    42   20   21 2    
    43   20   22 1    
    44   22   23 1    
    45   22   24 1    
    46   22   80 1    
    47   23   81 1    
    48   23   82 1    
    49   23   83 1    
    50   24   25 am   BACKBONE|DICT|INTERRES
    51   24   84 1    
    52   25   26 2    
    53   27   28 2    
    54   27   29 am   BACKBONE|DICT|INTERRES
    55   29   30 1    
    56   29   85 1    
    57   30   31 1    
    58   30   32 1    
    59   30   86 1    
    60   31   87 1    
    61   31   88 1    
    62   31   89 1    
    63   32   33 2    
    64   32   34 am   BACKBONE|DICT|INTERRES
    65   34   35 1    
    66   34   90 1    
    67   35   36 1    
    68   35   37 1    
    69   35   91 1    
    70   36   92 1    
    71   36   93 1    
    72   36   94 1    
    73   37   38 2    
    74   37   39 am   BACKBONE|DICT|INTERRES
    75   39   40 1    
    76   39   95 1    
    77   40   41 1    
    78   40   42 1    
    79   40   96 1    
    80   41   97 1    
    81   41   98 1    
    82   41   99 1    
    83   42   43 2    
    84   42   44 am   BACKBONE|DICT|INTERRES
    85   44   45 1    
    86   44  100 1    
    87   45   46 1    
    88   45   47 1    
    89   45  101 1    
    90   46  102 1    
    91   46  103 1    
    92   46  104 1    
    93   47   48 2    
    94   47   49 am   BACKBONE|DICT|INTERRES
    95   49   50 1    
    96   49  105 1    
    97   50   51 1    
    98   50   52 1    
    99   50  106 1    
   100   51  107 1    
   101   51  108 1    
   102   51  109 1    
   103   52   53 2    
   104   52   54 am   BACKBONE|DICT|INTERRES
   105   54   55 1    
   106   54  110 1    
   107   55   56 1    
   108   55   59 1    
   109   55  111 1    
   110   56   57 am   BACKBONE|DICT|INTERRES
   111   56   58 2    
   112   57  112 1    
   113   57  113 1    
   114   59   60 1    
   115   59  114 1    
   116   59  115 1    
   117   60   61 1    
   118   61  116 1    
   119   61  117 1    
@<TRIPOS>SUBSTRUCTURE
     1 UNK         1 GROUP             0       ****    0 ROOT    
