@<TRIPOS>MOLECULE
3R8
117   119    1
SMALL
USER_CHARGES


@<TRIPOS>ATOM
      1 CA         17.8295  -21.3243  -46.7174 C.3       0 UNK        -0.2013 
      2 C          18.3075  -22.7561  -46.9069 C.2       0 UNK         0.4866 
      3 O          19.3159  -22.9806  -47.5764 O.2       0 UNK        -0.5176 
      4 N          17.5902  -23.7271  -46.3245 N.am      1 UNK        -0.4884 
      5 CA         17.9094  -25.1608  -46.3967 C.3       1 UNK         0.0853 
      6 C6         16.7035  -26.0421  -45.9536 C.3       10 UNK        -0.0849 
      7 S7         16.1124  -27.1643  -47.2628 S.3       10 UNK        -0.2776 
      8 C8         17.3795  -28.4845  -47.2601 C.3       10 UNK         0.0316 
      9 C9         17.4978  -29.3227  -45.9836 C.ar      10 UNK        -0.0863 
     10 C10        18.6623  -30.0749  -45.7944 C.ar      10 UNK        -0.1009 
     11 C11        18.8160  -30.8951  -44.6729 C.ar      10 UNK        -0.0712 
     12 C12        17.7921  -30.9591  -43.7262 C.ar      10 UNK        -0.0894 
     13 C13        16.6400  -30.1830  -43.8755 C.ar      10 UNK        -0.0745 
     14 C14        16.4865  -29.3877  -45.0156 C.ar      10 UNK        -0.0972 
     15 C15        15.5733  -30.1839  -42.7896 C.3       10 UNK         0.0209 
     16 S16        16.2220  -29.5864  -41.1915 S.3       10 UNK        -0.2568 
     17 C17        16.8663  -27.9313  -41.6212 C.3       10 UNK        -0.0983 
     18 CA         18.4135  -27.9025  -41.7286 C.3       3 UNK         0.0876 
     19 N          18.8804  -26.7025  -42.4283 N.am      3 UNK        -0.4424 
     20 C          20.1573  -26.4213  -42.7344 C.2       2 UNK         0.4918 
     21 O          21.1060  -27.1659  -42.4807 O.2       2 UNK        -0.4875 
     22 CA         20.3994  -25.0683  -43.4349 C.3       2 UNK         0.0481 
     23 CB         21.8362  -24.9126  -43.9772 C.3       2 UNK        -0.1831 
     24 N          19.3991  -24.7990  -44.4763 N.am      2 UNK        -0.4498 
     25 C          19.1676  -25.5291  -45.5810 C.2       1 UNK         0.5027 
     26 O          19.8675  -26.4735  -45.9459 O.2       1 UNK        -0.4969 
     27 C          19.0914  -28.0109  -40.3482 C.2       3 UNK         0.5005 
     28 O          19.0121  -27.0630  -39.5624 O.2       3 UNK        -0.5279 
     29 N          19.8073  -29.1211  -40.1182 N.am      4 UNK        -0.4463 
     30 CA         20.6852  -29.4244  -38.9765 C.3       4 UNK         0.0283 
     31 CB         19.9248  -29.3890  -37.6368 C.3       4 UNK        -0.1875 
     32 C          21.9639  -28.5659  -38.9159 C.2       4 UNK         0.4949 
     33 O          23.0242  -29.1022  -38.5971 O.2       4 UNK        -0.5039 
     34 N          21.8645  -27.2729  -39.2522 N.am      5 UNK        -0.4663 
     35 CA         22.9590  -26.2963  -39.2943 C.3       5 UNK         0.0242 
     36 CB         22.3885  -24.9145  -39.6511 C.3       5 UNK        -0.1982 
     37 C          24.1037  -26.6714  -40.2529 C.2       5 UNK         0.5017 
     38 O          25.2554  -26.3411  -39.9696 O.2       5 UNK        -0.5012 
     39 N          23.7789  -27.3812  -41.3431 N.am      6 UNK        -0.4439 
     40 CA         24.7386  -27.9517  -42.2929 C.3       6 UNK         0.0297 
     41 CB         23.9931  -28.3652  -43.5722 C.3       6 UNK        -0.2006 
     42 C          25.5518  -29.1404  -41.7388 C.2       6 UNK         0.4892 
     43 O          26.4903  -29.5710  -42.4096 O.2       6 UNK        -0.5089 
     44 N          25.1779  -29.6724  -40.5629 N.am      7 UNK        -0.4243 
     45 CA         25.7970  -30.7662  -39.7950 C.3       7 UNK         0.0196 
     46 CB         27.2534  -30.4320  -39.4175 C.3       7 UNK        -0.2007 
     47 C          25.6997  -32.1648  -40.4328 C.2       7 UNK         0.5020 
     48 O          25.5982  -33.1484  -39.7002 O.2       7 UNK        -0.5147 
     49 N          25.7184  -32.2435  -41.7680 N.am      8 UNK        -0.4734 
     50 CA         25.6014  -33.4783  -42.5498 C.3       8 UNK         0.0238 
     51 CB         26.0556  -33.1937  -43.9911 C.3       8 UNK        -0.1912 
     52 C          24.1877  -34.0904  -42.5455 C.2       8 UNK         0.5038 
     53 O          24.0473  -35.2665  -42.8844 O.2       8 UNK        -0.5046 
     54 N          23.1749  -33.2870  -42.1955 N.am      9 UNK        -0.4200 
     55 CA         21.7587  -33.6733  -42.1259 C.3       9 UNK         0.0839 
     56 C          21.4850  -34.7777  -41.0692 C.2       9 UNK         0.5513 
     57 N          20.6202  -35.7336  -41.3796 N.am      9 UNK        -0.7519 
     58 O          22.0091  -34.7445  -39.9581 O.2       9 UNK        -0.4960 
     59 C59        20.8418  -32.4473  -41.8724 C.3       10 UNK        -0.0876 
     60 S60        21.0845  -31.1099  -43.0906 S.3       10 UNK        -0.2414 
     61 C61        20.0848  -31.7134  -44.4890 C.3       10 UNK         0.0169 
     62 H62        16.9264  -21.2715  -46.1097 H         1 UNK         0.0903 
     63 H63        18.6026  -20.7326  -46.2279 H         1 UNK         0.0903 
     64 H64        17.6140  -20.8701  -47.6841 H         1 UNK         0.0903 
     65 H65        16.7601  -23.4813  -45.8030 H         1 UNK         0.3096 
     66 H66        18.1519  -25.3781  -47.4398 H         1 UNK         0.1121 
     67 H67        16.9132  -26.6288  -45.0570 H         1 UNK         0.0849 
     68 H68        15.8511  -25.4208  -45.6742 H         1 UNK         0.0849 
     69 H69        17.1568  -29.1624  -48.0852 H         1 UNK         0.0865 
     70 H70        18.3453  -28.0357  -47.4949 H         1 UNK         0.0865 
     71 H71        19.4527  -30.0273  -46.5314 H         1 UNK         0.1346 
     72 H72        17.9057  -31.5834  -42.8512 H         1 UNK         0.1412 
     73 H73        15.5795  -28.8129  -45.1366 H         1 UNK         0.1426 
     74 H74        15.1923  -31.1980  -42.6621 H         1 UNK         0.0716 
     75 H75        14.7204  -29.5672  -43.0774 H         1 UNK         0.0716 
     76 H76        16.4174  -27.6217  -42.5661 H         1 UNK         0.0695 
     77 H77        16.5119  -27.2132  -40.8790 H         1 UNK         0.0695 
     78 H78        18.7346  -28.7459  -42.3423 H         1 UNK         0.0983 
     79 H79        18.1779  -26.0108  -42.6386 H         1 UNK         0.3095 
     80 H80        20.2572  -24.3039  -42.6698 H         1 UNK         0.0454 
     81 H81        22.5708  -25.0154  -43.1776 H         1 UNK         0.0851 
     82 H82        21.9846  -23.9320  -44.4287 H         1 UNK         0.0851 
     83 H83        22.0710  -25.6656  -44.7292 H         1 UNK         0.0851 
     84 H84        18.7728  -24.0268  -44.2954 H         1 UNK         0.2976 
     85 H85        19.8417  -29.8023  -40.8643 H         1 UNK         0.3116 
     86 H86        21.0154  -30.4526  -39.1274 H         1 UNK         0.0646 
     87 H87        19.5989  -28.3823  -37.3743 H         1 UNK         0.0847 
     88 H88        19.0444  -30.0309  -37.6629 H         1 UNK         0.0847 
     89 H89        20.5597  -29.7421  -36.8232 H         1 UNK         0.0847 
     90 H90        20.9326  -26.9320  -39.4715 H         1 UNK         0.3040 
     91 H91        23.3853  -26.2441  -38.2902 H         1 UNK         0.1015 
     92 H92        23.1742  -24.1576  -39.6610 H         1 UNK         0.0786 
     93 H93        21.6405  -24.5943  -38.9255 H         1 UNK         0.0786 
     94 H94        21.9220  -24.9133  -40.6362 H         1 UNK         0.0786 
     95 H95        22.7933  -27.5343  -41.5430 H         1 UNK         0.3172 
     96 H96        25.4547  -27.1711  -42.5575 H         1 UNK         0.0595 
     97 H97        23.2369  -29.1227  -43.3688 H         1 UNK         0.0839 
     98 H98        24.6777  -28.7773  -44.3147 H         1 UNK         0.0839 
     99 H99        23.4941  -27.5140  -44.0337 H         1 UNK         0.0839 
    100 H100       24.3727  -29.2598  -40.1022 H         1 UNK         0.2998 
    101 H101       25.2267  -30.8189  -38.8660 H         1 UNK         0.0822 
    102 H102       27.6651  -31.1900  -38.7499 H         1 UNK         0.0787 
    103 H103       27.3182  -29.4746  -38.9002 H         1 UNK         0.0787 
    104 H104       27.9026  -30.3861  -40.2923 H         1 UNK         0.0787 
    105 H105       25.8836  -31.3794  -42.2774 H         1 UNK         0.3055 
    106 H106       26.2741  -34.2216  -42.1158 H         1 UNK         0.1106 
    107 H107       27.0839  -32.8329  -44.0195 H         1 UNK         0.0828 
    108 H108       26.0144  -34.0975  -44.6007 H         1 UNK         0.0828 
    109 H109       25.4239  -32.4461  -44.4726 H         1 UNK         0.0828 
    110 H110       23.3911  -32.3377  -41.9343 H         1 UNK         0.2931 
    111 H111       21.5052  -34.0818  -43.1063 H         1 UNK         0.0412 
    112 H112       20.4161  -36.4494  -40.6992 H         1 UNK         0.3472 
    113 H113       20.1787  -35.7652  -42.2857 H         1 UNK         0.3472 
    114 H114       19.7917  -32.7448  -41.8751 H         1 UNK         0.0970 
    115 H115       21.0348  -32.0381  -40.8802 H         1 UNK         0.0970 
    116 H116       19.8225  -32.7631  -44.3523 H         1 UNK         0.0612 
    117 H117       20.7000  -31.6719  -45.3891 H         1 UNK         0.0612 
@<TRIPOS>BOND
     1    1    2 1    
     2    1   62 1    
     3    1   63 1    
     4    1   64 1    
     5    2    3 2    
     6    2    4 am   BACKBONE|DICT|INTERRES
     7    4    5 1    
     8    4   65 1    
     9    5    6 1    
    10    5   25 1    
    11    5   66 1    
    12    6    7 1    
    13    6   67 1    
    14    6   68 1    
    15    7    8 1    
    16    8    9 1    
    17    8   69 1    
    18    8   70 1    
    19    9   10 ar   
    20    9   14 ar   
    21   10   11 ar   
    22   10   71 1    
    23   11   12 ar   
    24   11   61 1    
    25   12   13 ar   
    26   12   72 1    
    27   13   14 ar   
    28   13   15 1    
    29   14   73 1    
    30   15   16 1    
    31   15   74 1    
    32   15   75 1    
    33   16   17 1    
    34   17   18 1    
    35   17   76 1    
    36   17   77 1    
    37   18   19 1    
    38   18   27 1    
    39   18   78 1    
    40   19   20 am   BACKBONE|DICT|INTERRES
    41   19   79 1    
    42   20   21 2    
    43   20   22 1    
    44   22   23 1    
    45   22   24 1    
    46   22   80 1    
    47   23   81 1    
    48   23   82 1    
    49   23   83 1    
    50   24   25 am   BACKBONE|DICT|INTERRES
    51   24   84 1    
    52   25   26 2    
    53   27   28 2    
    54   27   29 am   BACKBONE|DICT|INTERRES
    55   29   30 1    
    56   29   85 1    
    57   30   31 1    
    58   30   32 1    
    59   30   86 1    
    60   31   87 1    
    61   31   88 1    
    62   31   89 1    
    63   32   33 2    
    64   32   34 am   BACKBONE|DICT|INTERRES
    65   34   35 1    
    66   34   90 1    
    67   35   36 1    
    68   35   37 1    
    69   35   91 1    
    70   36   92 1    
    71   36   93 1    
    72   36   94 1    
    73   37   38 2    
    74   37   39 am   BACKBONE|DICT|INTERRES
    75   39   40 1    
    76   39   95 1    
    77   40   41 1    
    78   40   42 1    
    79   40   96 1    
    80   41   97 1    
    81   41   98 1    
    82   41   99 1    
    83   42   43 2    
    84   42   44 am   BACKBONE|DICT|INTERRES
    85   44   45 1    
    86   44  100 1    
    87   45   46 1    
    88   45   47 1    
    89   45  101 1    
    90   46  102 1    
    91   46  103 1    
    92   46  104 1    
    93   47   48 2    
    94   47   49 am   BACKBONE|DICT|INTERRES
    95   49   50 1    
    96   49  105 1    
    97   50   51 1    
    98   50   52 1    
    99   50  106 1    
   100   51  107 1    
   101   51  108 1    
   102   51  109 1    
   103   52   53 2    
   104   52   54 am   BACKBONE|DICT|INTERRES
   105   54   55 1    
   106   54  110 1    
   107   55   56 1    
   108   55   59 1    
   109   55  111 1    
   110   56   57 am   BACKBONE|DICT|INTERRES
   111   56   58 2    
   112   57  112 1    
   113   57  113 1    
   114   59   60 1    
   115   59  114 1    
   116   59  115 1    
   117   60   61 1    
   118   61  116 1    
   119   61  117 1    
@<TRIPOS>SUBSTRUCTURE
     1 UNK         1 GROUP             0       ****    0 ROOT    
