@<TRIPOS>MOLECULE
3R8
117   119    1
SMALL
USER_CHARGES


@<TRIPOS>ATOM
      1 CA         11.9563  -24.9195  -43.3145 C.3       0 UNK        -0.2013 
      2 C          13.3922  -25.0128  -43.8088 C.2       0 UNK         0.4866 
      3 O          14.2360  -24.2188  -43.3920 O.2       0 UNK        -0.5176 
      4 N          13.6753  -25.9707  -44.7005 N.am      1 UNK        -0.4884 
      5 CA         15.0145  -26.2496  -45.2257 C.3       1 UNK         0.0853 
      6 C6         14.9377  -27.1152  -46.5064 C.3       10 UNK        -0.0849 
      7 S7         16.5020  -27.1366  -47.4509 S.3       10 UNK        -0.2776 
      8 C8         16.8666  -28.9196  -47.5710 C.3       10 UNK         0.0316 
      9 C9         17.9719  -29.3559  -46.6178 C.ar      10 UNK        -0.0863 
     10 C10        17.6712  -29.9673  -45.3959 C.ar      10 UNK        -0.1009 
     11 C11        18.6957  -30.4382  -44.5645 C.ar      10 UNK        -0.0712 
     12 C12        20.0285  -30.2911  -44.9637 C.ar      10 UNK        -0.0894 
     13 C13        20.3396  -29.6611  -46.1718 C.ar      10 UNK        -0.0745 
     14 C14        19.3085  -29.1977  -46.9930 C.ar      10 UNK        -0.0972 
     15 C15        21.7853  -29.5004  -46.6130 C.3       10 UNK         0.0209 
     16 S16        22.3975  -27.8137  -46.3130 S.3       10 UNK        -0.2568 
     17 C17        22.7409  -27.8426  -44.5242 C.3       10 UNK        -0.0983 
     18 CA         21.8735  -26.8294  -43.7426 C.3       3 UNK         0.0876 
     19 N          20.4656  -27.2284  -43.6558 N.am      3 UNK        -0.4424 
     20 C          19.4642  -26.3759  -43.4131 C.2       2 UNK         0.4918 
     21 O          19.5815  -25.1488  -43.4145 O.2       2 UNK        -0.4875 
     22 CA         18.1073  -26.9921  -43.0717 C.3       2 UNK         0.0481 
     23 CB         17.7723  -26.7869  -41.5814 C.3       2 UNK        -0.1831 
     24 N          17.0887  -26.4038  -43.9301 N.am      2 UNK        -0.4498 
     25 C          15.8776  -26.9278  -44.1452 C.2       1 UNK         0.5027 
     26 O          15.4379  -27.9219  -43.5606 O.2       1 UNK        -0.4969 
     27 C          22.4348  -26.6106  -42.3260 C.2       3 UNK         0.5005 
     28 O          23.0323  -25.5647  -42.0657 O.2       3 UNK        -0.5279 
     29 N          22.2101  -27.5934  -41.4380 N.am      4 UNK        -0.4463 
     30 CA         22.5751  -27.6586  -40.0159 C.3       4 UNK         0.0283 
     31 CB         21.9146  -26.5261  -39.2063 C.3       4 UNK        -0.1875 
     32 C          24.0895  -27.7329  -39.7483 C.2       4 UNK         0.4949 
     33 O          24.5256  -28.6087  -39.0017 O.2       4 UNK        -0.5039 
     34 N          24.8649  -26.8288  -40.3560 N.am      5 UNK        -0.4663 
     35 CA         26.3255  -26.8263  -40.3349 C.3       5 UNK         0.0242 
     36 CB         26.8372  -25.4459  -40.7769 C.3       5 UNK        -0.1982 
     37 C          26.8582  -27.9311  -41.2583 C.2       5 UNK         0.5017 
     38 O          26.4975  -27.9517  -42.4382 O.2       5 UNK        -0.5012 
     39 N          27.6888  -28.8257  -40.7035 N.am      6 UNK        -0.4439 
     40 CA         28.2792  -30.0279  -41.3122 C.3       6 UNK         0.0297 
     41 CB         29.1914  -29.6819  -42.5067 C.3       6 UNK        -0.2006 
     42 C          27.2365  -31.0992  -41.6801 C.2       6 UNK         0.4892 
     43 O          27.2829  -32.2036  -41.1368 O.2       6 UNK        -0.5089 
     44 N          26.2991  -30.7475  -42.5664 N.am      7 UNK        -0.4243 
     45 CA         25.1371  -31.5475  -42.9404 C.3       7 UNK         0.0196 
     46 CB         24.7222  -31.1862  -44.3772 C.3       7 UNK        -0.2007 
     47 C          24.0126  -31.3207  -41.9172 C.2       7 UNK         0.5020 
     48 O          23.0516  -30.6000  -42.1944 O.2       7 UNK        -0.5147 
     49 N          24.1846  -31.9115  -40.7285 N.am      8 UNK        -0.4734 
     50 CA         23.2253  -31.8660  -39.6258 C.3       8 UNK         0.0238 
     51 CB         23.8748  -32.4490  -38.3607 C.3       8 UNK        -0.1912 
     52 C          21.9344  -32.6206  -39.9801 C.2       8 UNK         0.5038 
     53 O          22.0067  -33.7650  -40.4350 O.2       8 UNK        -0.5046 
     54 N          20.7894  -31.9667  -39.7614 N.am      9 UNK        -0.4200 
     55 CA         19.4540  -32.4855  -40.0977 C.3       9 UNK         0.0839 
     56 C          18.8457  -33.4388  -39.0287 C.2       9 UNK         0.5513 
     57 N          19.4734  -33.6384  -37.8758 N.am      9 UNK        -0.7519 
     58 O          17.7857  -34.0167  -39.2548 O.2       9 UNK        -0.4960 
     59 C59        18.4740  -31.3378  -40.4569 C.3       10 UNK        -0.0876 
     60 S60        19.0935  -30.2874  -41.8151 S.3       10 UNK        -0.2414 
     61 C61        18.3631  -31.1357  -43.2519 C.3       10 UNK         0.0169 
     62 H62        11.5432  -23.9377  -43.5446 H         1 UNK         0.0903 
     63 H63        11.3162  -25.6725  -43.7741 H         1 UNK         0.0903 
     64 H64        11.9220  -25.0591  -42.2344 H         1 UNK         0.0903 
     65 H65        12.9502  -26.6160  -44.9809 H         1 UNK         0.3096 
     66 H66        15.4674  -25.2907  -45.4896 H         1 UNK         0.1121 
     67 H67        14.6100  -28.1288  -46.2685 H         1 UNK         0.0849 
     68 H68        14.1765  -26.7109  -47.1758 H         1 UNK         0.0849 
     69 H69        15.9671  -29.5158  -47.4131 H         1 UNK         0.0865 
     70 H70        17.1761  -29.1342  -48.5951 H         1 UNK         0.0865 
     71 H71        16.6381  -30.0899  -45.0995 H         1 UNK         0.1346 
     72 H72        20.8215  -30.6670  -44.3300 H         1 UNK         0.1412 
     73 H73        19.5483  -28.7228  -47.9350 H         1 UNK         0.1426 
     74 H74        21.8617  -29.7138  -47.6802 H         1 UNK         0.0716 
     75 H75        22.4300  -30.2254  -46.1152 H         1 UNK         0.0716 
     76 H76        23.8027  -27.6168  -44.4026 H         1 UNK         0.0695 
     77 H77        22.5990  -28.8495  -44.1318 H         1 UNK         0.0695 
     78 H78        21.9331  -25.8685  -44.2596 H         1 UNK         0.0983 
     79 H79        20.2676  -28.2183  -43.6955 H         1 UNK         0.3095 
     80 H80        18.1450  -28.0586  -43.2826 H         1 UNK         0.0454 
     81 H81        18.5671  -27.1806  -40.9464 H         1 UNK         0.0851 
     82 H82        16.8548  -27.3040  -41.3017 H         1 UNK         0.0851 
     83 H83        17.6509  -25.7308  -41.3383 H         1 UNK         0.0851 
     84 H84        17.3854  -25.5864  -44.4476 H         1 UNK         0.2976 
     85 H85        21.7895  -28.4424  -41.7933 H         1 UNK         0.3116 
     86 H86        22.1490  -28.5957  -39.6564 H         1 UNK         0.0646 
     87 H87        22.1121  -26.6457  -38.1403 H         1 UNK         0.0847 
     88 H88        20.8325  -26.5248  -39.3372 H         1 UNK         0.0847 
     89 H89        22.2877  -25.5430  -39.4943 H         1 UNK         0.0847 
     90 H90        24.4060  -26.1799  -40.9921 H         1 UNK         0.3040 
     91 H91        26.6614  -27.0082  -39.3115 H         1 UNK         0.1015 
     92 H92        26.4818  -24.6596  -40.1105 H         1 UNK         0.0786 
     93 H93        26.5116  -25.1993  -41.7887 H         1 UNK         0.0786 
     94 H94        27.9275  -25.4122  -40.7669 H         1 UNK         0.0786 
     95 H95        27.8857  -28.7201  -39.7172 H         1 UNK         0.3172 
     96 H96        28.9153  -30.4646  -40.5403 H         1 UNK         0.0595 
     97 H97        28.6416  -29.2346  -43.3350 H         1 UNK         0.0839 
     98 H98        29.6804  -30.5776  -42.8921 H         1 UNK         0.0839 
     99 H99        29.9773  -28.9855  -42.2145 H         1 UNK         0.0839 
    100 H100       26.2988  -29.7751  -42.8649 H         1 UNK         0.2998 
    101 H101       25.3971  -32.6083  -42.9255 H         1 UNK         0.0822 
    102 H102       24.5468  -30.1170  -44.4904 H         1 UNK         0.0787 
    103 H103       25.4937  -31.4715  -45.0924 H         1 UNK         0.0787 
    104 H104       23.8067  -31.7062  -44.6620 H         1 UNK         0.0787 
    105 H105       25.0232  -32.4596  -40.5856 H         1 UNK         0.3055 
    106 H106       22.9867  -30.8187  -39.4362 H         1 UNK         0.1106 
    107 H107       24.1600  -33.4931  -38.4963 H         1 UNK         0.0828 
    108 H108       24.7679  -31.8891  -38.0817 H         1 UNK         0.0828 
    109 H109       23.1893  -32.4050  -37.5135 H         1 UNK         0.0828 
    110 H110       20.8131  -31.0342  -39.3778 H         1 UNK         0.2931 
    111 H111       19.5576  -33.0969  -40.9964 H         1 UNK         0.0412 
    112 H112       20.3464  -33.1756  -37.6813 H         1 UNK         0.3472 
    113 H113       19.0693  -34.2625  -37.1949 H         1 UNK         0.3472 
    114 H114       17.4955  -31.7343  -40.7347 H         1 UNK         0.0970 
    115 H115       18.3011  -30.7013  -39.5873 H         1 UNK         0.0970 
    116 H116       17.2823  -31.1955  -43.1147 H         1 UNK         0.0612 
    117 H117       18.7327  -32.1612  -43.2899 H         1 UNK         0.0612 
@<TRIPOS>BOND
     1    1    2 1    
     2    1   62 1    
     3    1   63 1    
     4    1   64 1    
     5    2    3 2    
     6    2    4 am   BACKBONE|DICT|INTERRES
     7    4    5 1    
     8    4   65 1    
     9    5    6 1    
    10    5   25 1    
    11    5   66 1    
    12    6    7 1    
    13    6   67 1    
    14    6   68 1    
    15    7    8 1    
    16    8    9 1    
    17    8   69 1    
    18    8   70 1    
    19    9   10 ar   
    20    9   14 ar   
    21   10   11 ar   
    22   10   71 1    
    23   11   12 ar   
    24   11   61 1    
    25   12   13 ar   
    26   12   72 1    
    27   13   14 ar   
    28   13   15 1    
    29   14   73 1    
    30   15   16 1    
    31   15   74 1    
    32   15   75 1    
    33   16   17 1    
    34   17   18 1    
    35   17   76 1    
    36   17   77 1    
    37   18   19 1    
    38   18   27 1    
    39   18   78 1    
    40   19   20 am   BACKBONE|DICT|INTERRES
    41   19   79 1    
    42   20   21 2    
    43   20   22 1    
    44   22   23 1    
    45   22   24 1    
    46   22   80 1    
    47   23   81 1    
    48   23   82 1    
    49   23   83 1    
    50   24   25 am   BACKBONE|DICT|INTERRES
    51   24   84 1    
    52   25   26 2    
    53   27   28 2    
    54   27   29 am   BACKBONE|DICT|INTERRES
    55   29   30 1    
    56   29   85 1    
    57   30   31 1    
    58   30   32 1    
    59   30   86 1    
    60   31   87 1    
    61   31   88 1    
    62   31   89 1    
    63   32   33 2    
    64   32   34 am   BACKBONE|DICT|INTERRES
    65   34   35 1    
    66   34   90 1    
    67   35   36 1    
    68   35   37 1    
    69   35   91 1    
    70   36   92 1    
    71   36   93 1    
    72   36   94 1    
    73   37   38 2    
    74   37   39 am   BACKBONE|DICT|INTERRES
    75   39   40 1    
    76   39   95 1    
    77   40   41 1    
    78   40   42 1    
    79   40   96 1    
    80   41   97 1    
    81   41   98 1    
    82   41   99 1    
    83   42   43 2    
    84   42   44 am   BACKBONE|DICT|INTERRES
    85   44   45 1    
    86   44  100 1    
    87   45   46 1    
    88   45   47 1    
    89   45  101 1    
    90   46  102 1    
    91   46  103 1    
    92   46  104 1    
    93   47   48 2    
    94   47   49 am   BACKBONE|DICT|INTERRES
    95   49   50 1    
    96   49  105 1    
    97   50   51 1    
    98   50   52 1    
    99   50  106 1    
   100   51  107 1    
   101   51  108 1    
   102   51  109 1    
   103   52   53 2    
   104   52   54 am   BACKBONE|DICT|INTERRES
   105   54   55 1    
   106   54  110 1    
   107   55   56 1    
   108   55   59 1    
   109   55  111 1    
   110   56   57 am   BACKBONE|DICT|INTERRES
   111   56   58 2    
   112   57  112 1    
   113   57  113 1    
   114   59   60 1    
   115   59  114 1    
   116   59  115 1    
   117   60   61 1    
   118   61  116 1    
   119   61  117 1    
@<TRIPOS>SUBSTRUCTURE
     1 UNK         1 GROUP             0       ****    0 ROOT    
