@<TRIPOS>MOLECULE
3R8
117   119    1
SMALL
USER_CHARGES


@<TRIPOS>ATOM
      1 CA         15.2434  -29.2713  -41.1722 C.3       0 UNK        -0.2013 
      2 C          15.3483  -28.0533  -42.0780 C.2       0 UNK         0.4866 
      3 O          15.0437  -26.9421  -41.6458 O.2       0 UNK        -0.5176 
      4 N          15.7779  -28.2519  -43.3312 N.am      1 UNK        -0.4884 
      5 CA         15.9106  -27.1969  -44.3453 C.3       1 UNK         0.0853 
      6 C6         15.9713  -27.7663  -45.7830 C.3       10 UNK        -0.0849 
      7 S7         14.6445  -28.9601  -46.2067 S.3       10 UNK        -0.2776 
      8 C8         15.2314  -30.6089  -45.6456 C.3       10 UNK         0.0316 
      9 C9         16.7476  -30.7591  -45.5949 C.ar      10 UNK        -0.0863 
     10 C10        17.3906  -31.0528  -44.3866 C.ar      10 UNK        -0.1009 
     11 C11        18.7855  -31.1125  -44.3257 C.ar      10 UNK        -0.0712 
     12 C12        19.5383  -30.8839  -45.4795 C.ar      10 UNK        -0.0894 
     13 C13        18.9072  -30.5834  -46.6879 C.ar      10 UNK        -0.0745 
     14 C14        17.5119  -30.5637  -46.7498 C.ar      10 UNK        -0.0972 
     15 C15        19.7246  -30.2162  -47.9135 C.3       10 UNK         0.0209 
     16 S16        20.0165  -28.4177  -47.9714 S.3       10 UNK        -0.2568 
     17 C17        21.5448  -28.2506  -46.9908 C.3       10 UNK        -0.0983 
     18 CA         21.5699  -26.9726  -46.1150 C.3       3 UNK         0.0876 
     19 N          20.5975  -27.0030  -45.0104 N.am      3 UNK        -0.4424 
     20 C          20.3178  -25.9448  -44.2314 C.2       2 UNK         0.4918 
     21 O          20.7570  -24.8119  -44.4374 O.2       2 UNK        -0.4875 
     22 CA         19.4157  -26.2074  -43.0118 C.3       2 UNK         0.0481 
     23 CB         19.1920  -24.9549  -42.1373 C.3       2 UNK        -0.1831 
     24 N          18.1417  -26.8321  -43.3781 N.am      2 UNK        -0.4498 
     25 C          17.1441  -26.2994  -44.1028 C.2       1 UNK         0.5027 
     26 O          17.1643  -25.1659  -44.5837 O.2       1 UNK        -0.4969 
     27 C          23.0053  -26.7134  -45.6061 C.2       3 UNK         0.5005 
     28 O          23.7463  -25.9620  -46.2426 O.2       3 UNK        -0.5279 
     29 N          23.3628  -27.3190  -44.4664 N.am      4 UNK        -0.4463 
     30 CA         24.6293  -27.1392  -43.7655 C.3       4 UNK         0.0283 
     31 CB         25.7602  -27.9045  -44.4797 C.3       4 UNK        -0.1875 
     32 C          24.4546  -27.6591  -42.3380 C.2       4 UNK         0.4949 
     33 O          23.7710  -28.6659  -42.1445 O.2       4 UNK        -0.5039 
     34 N          25.1212  -27.0104  -41.3737 N.am      5 UNK        -0.4663 
     35 CA         25.1107  -27.3931  -39.9541 C.3       5 UNK         0.0242 
     36 CB         25.8197  -26.3085  -39.1279 C.3       5 UNK        -0.1982 
     37 C          25.7362  -28.7735  -39.6828 C.2       5 UNK         0.5017 
     38 O          25.3603  -29.4318  -38.7130 O.2       5 UNK        -0.5012 
     39 N          26.6406  -29.2083  -40.5727 N.am      6 UNK        -0.4439 
     40 CA         27.2440  -30.5436  -40.5955 C.3       6 UNK         0.0297 
     41 CB         28.3494  -30.5759  -41.6634 C.3       6 UNK        -0.2006 
     42 C          26.2322  -31.6815  -40.8371 C.2       6 UNK         0.4892 
     43 O          26.5186  -32.8197  -40.4655 O.2       6 UNK        -0.5089 
     44 N          25.0695  -31.3611  -41.4252 N.am      7 UNK        -0.4243 
     45 CA         23.9488  -32.2817  -41.6257 C.3       7 UNK         0.0196 
     46 CB         23.2957  -31.9771  -42.9847 C.3       7 UNK        -0.2007 
     47 C          22.9296  -32.2253  -40.4675 C.2       7 UNK         0.5020 
     48 O          21.8303  -32.7589  -40.6111 O.2       7 UNK        -0.5147 
     49 N          23.2953  -31.5795  -39.3484 N.am      8 UNK        -0.4734 
     50 CA         22.5749  -31.4268  -38.0737 C.3       8 UNK         0.0238 
     51 CB         22.1956  -32.7922  -37.4661 C.3       8 UNK        -0.1912 
     52 C          21.3662  -30.4742  -38.1042 C.2       8 UNK         0.5038 
     53 O          21.0362  -29.9078  -37.0610 O.2       8 UNK        -0.5046 
     54 N          20.7352  -30.2991  -39.2690 N.am      9 UNK        -0.4200 
     55 CA         19.6771  -29.3133  -39.5236 C.3       9 UNK         0.0839 
     56 C          20.1691  -27.8416  -39.4150 C.2       9 UNK         0.5513 
     57 N          19.2796  -26.9216  -39.0671 N.am      9 UNK        -0.7519 
     58 O          21.3282  -27.5209  -39.6660 O.2       9 UNK        -0.4960 
     59 C59        18.9482  -29.5877  -40.8666 C.3       10 UNK        -0.0876 
     60 S60        20.0816  -29.8201  -42.2834 S.3       10 UNK        -0.2414 
     61 C61        19.4975  -31.3823  -43.0128 C.3       10 UNK         0.0169 
     62 H62        15.6419  -30.1696  -41.6417 H         1 UNK         0.0903 
     63 H63        14.2002  -29.4570  -40.9177 H         1 UNK         0.0903 
     64 H64        15.7917  -29.1008  -40.2461 H         1 UNK         0.0903 
     65 H65        15.9954  -29.1830  -43.6542 H         1 UNK         0.3096 
     66 H66        15.0291  -26.5549  -44.2758 H         1 UNK         0.1121 
     67 H67        15.8761  -26.9417  -46.4923 H         1 UNK         0.0849 
     68 H68        16.9542  -28.1842  -45.9908 H         1 UNK         0.0849 
     69 H69        14.7931  -30.8140  -44.6678 H         1 UNK         0.0865 
     70 H70        14.8253  -31.3683  -46.3152 H         1 UNK         0.0865 
     71 H71        16.8133  -31.2248  -43.4892 H         1 UNK         0.1346 
     72 H72        20.6175  -30.9105  -45.4235 H         1 UNK         0.1412 
     73 H73        17.0190  -30.3190  -47.6812 H         1 UNK         0.1426 
     74 H74        20.6726  -30.7563  -47.9269 H         1 UNK         0.0716 
     75 H75        19.1911  -30.5153  -48.8170 H         1 UNK         0.0716 
     76 H76        22.3692  -28.2405  -47.7072 H         1 UNK         0.0695 
     77 H77        21.6990  -29.1354  -46.3732 H         1 UNK         0.0695 
     78 H78        21.3092  -26.1245  -46.7526 H         1 UNK         0.0983 
     79 H79        20.1715  -27.8947  -44.8037 H         1 UNK         0.3095 
     80 H80        19.9478  -26.9288  -42.3927 H         1 UNK         0.0454 
     81 H81        18.5485  -25.1757  -41.2862 H         1 UNK         0.0851 
     82 H82        18.7360  -24.1385  -42.6978 H         1 UNK         0.0851 
     83 H83        20.1388  -24.5861  -41.7413 H         1 UNK         0.0851 
     84 H84        18.0150  -27.7830  -43.0641 H         1 UNK         0.2976 
     85 H85        22.7039  -27.9167  -43.9818 H         1 UNK         0.3116 
     86 H86        24.8675  -26.0739  -43.7315 H         1 UNK         0.0646 
     87 H87        25.9165  -27.5357  -45.4933 H         1 UNK         0.0847 
     88 H88        26.7066  -27.7921  -43.9496 H         1 UNK         0.0847 
     89 H89        25.5451  -28.9722  -44.5428 H         1 UNK         0.0847 
     90 H90        25.6662  -26.1954  -41.6191 H         1 UNK         0.3040 
     91 H91        24.0680  -27.4464  -39.6318 H         1 UNK         0.1015 
     92 H92        26.8638  -26.1930  -39.4214 H         1 UNK         0.0786 
     93 H93        25.8052  -26.5564  -38.0654 H         1 UNK         0.0786 
     94 H94        25.3289  -25.3413  -39.2384 H         1 UNK         0.0786 
     95 H95        26.8879  -28.5849  -41.3270 H         1 UNK         0.3172 
     96 H96        27.7029  -30.7166  -39.6199 H         1 UNK         0.0595 
     97 H97        27.9527  -30.3896  -42.6624 H         1 UNK         0.0839 
     98 H98        28.8416  -31.5494  -41.6858 H         1 UNK         0.0839 
     99 H99        29.1202  -29.8317  -41.4620 H         1 UNK         0.0839 
    100 H100       24.8892  -30.3935  -41.6717 H         1 UNK         0.2998 
    101 H101       24.3234  -33.3067  -41.6642 H         1 UNK         0.0822 
    102 H102       22.7899  -31.0115  -42.9837 H         1 UNK         0.0787 
    103 H103       22.5581  -32.7383  -43.2387 H         1 UNK         0.0787 
    104 H104       24.0331  -31.9673  -43.7875 H         1 UNK         0.0787 
    105 H105       24.1940  -31.1101  -39.3634 H         1 UNK         0.3055 
    106 H106       23.2953  -30.9623  -37.3977 H         1 UNK         0.1106 
    107 H107       23.0643  -33.4450  -37.3817 H         1 UNK         0.0828 
    108 H108       21.7847  -32.6693  -36.4632 H         1 UNK         0.0828 
    109 H109       21.4415  -33.3094  -38.0599 H         1 UNK         0.0828 
    110 H110       21.0645  -30.8180  -40.0730 H         1 UNK         0.2931 
    111 H111       18.9391  -29.4502  -38.7302 H         1 UNK         0.0412 
    112 H112       19.5783  -25.9624  -38.9904 H         1 UNK         0.3472 
    113 H113       18.3273  -27.1676  -38.8473 H         1 UNK         0.3472 
    114 H114       18.3243  -30.4734  -40.7468 H         1 UNK         0.0970 
    115 H115       18.2549  -28.7798  -41.1011 H         1 UNK         0.0970 
    116 H116       20.3549  -32.0294  -43.1929 H         1 UNK         0.0612 
    117 H117       18.8542  -31.9319  -42.3253 H         1 UNK         0.0612 
@<TRIPOS>BOND
     1    1    2 1    
     2    1   62 1    
     3    1   63 1    
     4    1   64 1    
     5    2    3 2    
     6    2    4 am   BACKBONE|DICT|INTERRES
     7    4    5 1    
     8    4   65 1    
     9    5    6 1    
    10    5   25 1    
    11    5   66 1    
    12    6    7 1    
    13    6   67 1    
    14    6   68 1    
    15    7    8 1    
    16    8    9 1    
    17    8   69 1    
    18    8   70 1    
    19    9   10 ar   
    20    9   14 ar   
    21   10   11 ar   
    22   10   71 1    
    23   11   12 ar   
    24   11   61 1    
    25   12   13 ar   
    26   12   72 1    
    27   13   14 ar   
    28   13   15 1    
    29   14   73 1    
    30   15   16 1    
    31   15   74 1    
    32   15   75 1    
    33   16   17 1    
    34   17   18 1    
    35   17   76 1    
    36   17   77 1    
    37   18   19 1    
    38   18   27 1    
    39   18   78 1    
    40   19   20 am   BACKBONE|DICT|INTERRES
    41   19   79 1    
    42   20   21 2    
    43   20   22 1    
    44   22   23 1    
    45   22   24 1    
    46   22   80 1    
    47   23   81 1    
    48   23   82 1    
    49   23   83 1    
    50   24   25 am   BACKBONE|DICT|INTERRES
    51   24   84 1    
    52   25   26 2    
    53   27   28 2    
    54   27   29 am   BACKBONE|DICT|INTERRES
    55   29   30 1    
    56   29   85 1    
    57   30   31 1    
    58   30   32 1    
    59   30   86 1    
    60   31   87 1    
    61   31   88 1    
    62   31   89 1    
    63   32   33 2    
    64   32   34 am   BACKBONE|DICT|INTERRES
    65   34   35 1    
    66   34   90 1    
    67   35   36 1    
    68   35   37 1    
    69   35   91 1    
    70   36   92 1    
    71   36   93 1    
    72   36   94 1    
    73   37   38 2    
    74   37   39 am   BACKBONE|DICT|INTERRES
    75   39   40 1    
    76   39   95 1    
    77   40   41 1    
    78   40   42 1    
    79   40   96 1    
    80   41   97 1    
    81   41   98 1    
    82   41   99 1    
    83   42   43 2    
    84   42   44 am   BACKBONE|DICT|INTERRES
    85   44   45 1    
    86   44  100 1    
    87   45   46 1    
    88   45   47 1    
    89   45  101 1    
    90   46  102 1    
    91   46  103 1    
    92   46  104 1    
    93   47   48 2    
    94   47   49 am   BACKBONE|DICT|INTERRES
    95   49   50 1    
    96   49  105 1    
    97   50   51 1    
    98   50   52 1    
    99   50  106 1    
   100   51  107 1    
   101   51  108 1    
   102   51  109 1    
   103   52   53 2    
   104   52   54 am   BACKBONE|DICT|INTERRES
   105   54   55 1    
   106   54  110 1    
   107   55   56 1    
   108   55   59 1    
   109   55  111 1    
   110   56   57 am   BACKBONE|DICT|INTERRES
   111   56   58 2    
   112   57  112 1    
   113   57  113 1    
   114   59   60 1    
   115   59  114 1    
   116   59  115 1    
   117   60   61 1    
   118   61  116 1    
   119   61  117 1    
@<TRIPOS>SUBSTRUCTURE
     1 UNK         1 GROUP             0       ****    0 ROOT    
