@<TRIPOS>MOLECULE
3R8
117   119    1
SMALL
USER_CHARGES


@<TRIPOS>ATOM
      1 CA         14.1392  -30.4828  -42.8723 C.3       0 UNK        -0.2013 
      2 C          14.5047  -29.0789  -42.4147 C.2       0 UNK         0.4866 
      3 O          13.6194  -28.3127  -42.0336 O.2       0 UNK        -0.5176 
      4 N          15.7958  -28.7351  -42.4473 N.am      1 UNK        -0.4884 
      5 CA         16.3470  -27.4549  -42.0063 C.3       1 UNK         0.0853 
      6 C6         16.0091  -26.2628  -42.9562 C.3       10 UNK        -0.0849 
      7 S7         17.0855  -25.9443  -44.3994 S.3       10 UNK        -0.2776 
      8 C8         16.8231  -27.4039  -45.4630 C.3       10 UNK         0.0316 
      9 C9         17.8806  -28.4739  -45.2211 C.ar      10 UNK        -0.0863 
     10 C10        17.5131  -29.7922  -44.9443 C.ar      10 UNK        -0.1009 
     11 C11        18.4865  -30.7557  -44.6666 C.ar      10 UNK        -0.0712 
     12 C12        19.8383  -30.3981  -44.7002 C.ar      10 UNK        -0.0894 
     13 C13        20.2270  -29.0915  -45.0167 C.ar      10 UNK        -0.0745 
     14 C14        19.2362  -28.1405  -45.2770 C.ar      10 UNK        -0.0972 
     15 C15        21.7143  -28.7376  -45.0234 C.3       10 UNK         0.0209 
     16 S16        22.2260  -27.4853  -46.2536 S.3       10 UNK        -0.2568 
     17 C17        21.9030  -25.8238  -45.5364 C.3       10 UNK        -0.0983 
     18 CA         22.1495  -25.5593  -44.0251 C.3       3 UNK         0.0876 
     19 N          21.1148  -26.1347  -43.1599 N.am      3 UNK        -0.4424 
     20 C          20.8551  -25.6879  -41.9252 C.2       2 UNK         0.4918 
     21 O          21.2772  -24.6199  -41.4784 O.2       2 UNK        -0.4875 
     22 CA         19.9844  -26.5934  -41.0480 C.3       2 UNK         0.0481 
     23 CB         20.0199  -26.1980  -39.5576 C.3       2 UNK        -0.1831 
     24 N          18.6021  -26.5750  -41.5176 N.am      2 UNK        -0.4498 
     25 C          17.8257  -27.6602  -41.6158 C.2       1 UNK         0.5027 
     26 O          18.2274  -28.7988  -41.3620 O.2       1 UNK        -0.4969 
     27 C          23.5610  -25.9754  -43.5547 C.2       3 UNK         0.5005 
     28 O          23.7061  -26.9518  -42.8144 O.2       3 UNK        -0.5279 
     29 N          24.5865  -25.2448  -44.0132 N.am      4 UNK        -0.4463 
     30 CA         25.9927  -25.4438  -43.6370 C.3       4 UNK         0.0283 
     31 CB         26.8427  -24.3213  -44.2546 C.3       4 UNK        -0.1875 
     32 C          26.5775  -26.8212  -44.0071 C.2       4 UNK         0.4949 
     33 O          27.5652  -27.2339  -43.3990 O.2       4 UNK        -0.5039 
     34 N          25.9712  -27.5050  -44.9873 N.am      5 UNK        -0.4663 
     35 CA         26.3754  -28.8379  -45.4358 C.3       5 UNK         0.0242 
     36 CB         25.7620  -29.1144  -46.8181 C.3       5 UNK        -0.1982 
     37 C          26.0054  -29.9637  -44.4531 C.2       5 UNK         0.5017 
     38 O          26.6803  -30.9940  -44.4635 O.2       5 UNK        -0.5012 
     39 N          24.9552  -29.7719  -43.6412 N.am      6 UNK        -0.4439 
     40 CA         24.4301  -30.7699  -42.7089 C.3       6 UNK         0.0297 
     41 CB         23.7932  -31.9576  -43.4650 C.3       6 UNK        -0.2006 
     42 C          23.4245  -30.0930  -41.7726 C.2       6 UNK         0.4892 
     43 O          22.2271  -30.0826  -42.0655 O.2       6 UNK        -0.5089 
     44 N          23.9279  -29.5191  -40.6719 N.am      7 UNK        -0.4243 
     45 CA         23.1216  -28.8588  -39.6424 C.3       7 UNK         0.0196 
     46 CB         24.0442  -28.2446  -38.5782 C.3       7 UNK        -0.2007 
     47 C          22.1183  -29.8364  -39.0062 C.2       7 UNK         0.5020 
     48 O          22.5242  -30.9077  -38.5507 O.2       7 UNK        -0.5147 
     49 N          20.8293  -29.4692  -39.0393 N.am      8 UNK        -0.4734 
     50 CA         19.6682  -30.2760  -38.6326 C.3       8 UNK         0.0238 
     51 CB         19.6521  -30.4689  -37.1011 C.3       8 UNK        -0.1912 
     52 C          19.5490  -31.6087  -39.4048 C.2       8 UNK         0.5038 
     53 O          19.0477  -32.5902  -38.8529 O.2       8 UNK        -0.5046 
     54 N          20.0386  -31.6203  -40.6527 N.am      9 UNK        -0.4200 
     55 CA         20.1836  -32.7914  -41.5301 C.3       9 UNK         0.0839 
     56 C          21.2540  -33.8198  -41.0524 C.2       9 UNK         0.5513 
     57 N          22.1327  -33.4876  -40.1125 N.am      9 UNK        -0.7519 
     58 O          21.3156  -34.9332  -41.5675 O.2       9 UNK        -0.4960 
     59 C59        18.8342  -33.4663  -41.9133 C.3       10 UNK        -0.0876 
     60 S60        17.5883  -32.3051  -42.5712 S.3       10 UNK        -0.2414 
     61 C61        18.0686  -32.1768  -44.3225 C.3       10 UNK         0.0169 
     62 H62        15.0031  -31.0313  -43.2435 H         1 UNK         0.0903 
     63 H63        13.7108  -31.0471  -42.0446 H         1 UNK         0.0903 
     64 H64        13.4008  -30.4365  -43.6721 H         1 UNK         0.0903 
     65 H65        16.5087  -29.4170  -42.6822 H         1 UNK         0.3096 
     66 H66        15.8587  -27.2367  -41.0534 H         1 UNK         0.1121 
     67 H67        14.9824  -26.3436  -43.3153 H         1 UNK         0.0849 
     68 H68        16.0157  -25.3439  -42.3677 H         1 UNK         0.0849 
     69 H69        15.8161  -27.7954  -45.3110 H         1 UNK         0.0865 
     70 H70        16.8786  -27.0923  -46.5068 H         1 UNK         0.0865 
     71 H71        16.4680  -30.0673  -44.9249 H         1 UNK         0.1346 
     72 H72        20.5916  -31.1394  -44.4743 H         1 UNK         0.1412 
     73 H73        19.5032  -27.1242  -45.5114 H         1 UNK         0.1426 
     74 H74        22.2866  -29.6373  -45.2512 H         1 UNK         0.0716 
     75 H75        22.0208  -28.4474  -44.0241 H         1 UNK         0.0716 
     76 H76        22.5310  -25.1380  -46.1076 H         1 UNK         0.0695 
     77 H77        20.8903  -25.5179  -45.7973 H         1 UNK         0.0695 
     78 H78        22.0975  -24.4754  -43.8960 H         1 UNK         0.0983 
     79 H79        20.7346  -27.0257  -43.4443 H         1 UNK         0.3095 
     80 H80        20.4037  -27.5964  -41.1477 H         1 UNK         0.0454 
     81 H81        21.0401  -26.2022  -39.1715 H         1 UNK         0.0851 
     82 H82        19.6203  -25.1954  -39.4003 H         1 UNK         0.0851 
     83 H83        19.4328  -26.8820  -38.9451 H         1 UNK         0.0851 
     84 H84        18.2340  -25.6759  -41.7985 H         1 UNK         0.2976 
     85 H85        24.3946  -24.4697  -44.6324 H         1 UNK         0.3116 
     86 H86        26.0528  -25.3560  -42.5501 H         1 UNK         0.0646 
     87 H87        27.8907  -24.4218  -43.9680 H         1 UNK         0.0847 
     88 H88        26.5121  -23.3387  -43.9177 H         1 UNK         0.0847 
     89 H89        26.8017  -24.3365  -45.3445 H         1 UNK         0.0847 
     90 H90        25.1652  -27.0927  -45.4351 H         1 UNK         0.3040 
     91 H91        27.4629  -28.8452  -45.5414 H         1 UNK         0.1015 
     92 H92        26.0496  -28.3520  -47.5423 H         1 UNK         0.0786 
     93 H93        24.6731  -29.1489  -46.7785 H         1 UNK         0.0786 
     94 H94        26.1016  -30.0747  -47.2087 H         1 UNK         0.0786 
     95 H95        24.4969  -28.8658  -43.6243 H         1 UNK         0.3172 
     96 H96        25.2541  -31.1515  -42.1023 H         1 UNK         0.0595 
     97 H97        24.5276  -32.5064  -44.0536 H         1 UNK         0.0839 
     98 H98        23.0011  -31.6341  -44.1393 H         1 UNK         0.0839 
     99 H99        23.3561  -32.6698  -42.7660 H         1 UNK         0.0839 
    100 H100       24.9218  -29.5727  -40.5049 H         1 UNK         0.2998 
    101 H101       22.5791  -28.0474  -40.1307 H         1 UNK         0.0822 
    102 H102       24.7245  -27.5142  -39.0169 H         1 UNK         0.0787 
    103 H103       23.4647  -27.7279  -37.8120 H         1 UNK         0.0787 
    104 H104       24.6436  -29.0054  -38.0763 H         1 UNK         0.0787 
    105 H105       20.5981  -28.5889  -39.4755 H         1 UNK         0.3055 
    106 H106       18.7806  -29.7008  -38.9004 H         1 UNK         0.1106 
    107 H107       20.4763  -31.0982  -36.7640 H         1 UNK         0.0828 
    108 H108       19.7229  -29.5145  -36.5797 H         1 UNK         0.0828 
    109 H109       18.7265  -30.9454  -36.7759 H         1 UNK         0.0828 
    110 H110       20.4581  -30.7719  -41.0144 H         1 UNK         0.2931 
    111 H111       20.6015  -32.3870  -42.4514 H         1 UNK         0.0412 
    112 H112       22.8207  -34.1648  -39.8247 H         1 UNK         0.3472 
    113 H113       22.1089  -32.5767  -39.6675 H         1 UNK         0.3472 
    114 H114       18.4022  -33.9618  -41.0427 H         1 UNK         0.0970 
    115 H115       18.9928  -34.2568  -42.6488 H         1 UNK         0.0970 
    116 H116       18.8735  -32.8752  -44.5552 H         1 UNK         0.0612 
    117 H117       17.2210  -32.4724  -44.9425 H         1 UNK         0.0612 
@<TRIPOS>BOND
     1    1    2 1    
     2    1   62 1    
     3    1   63 1    
     4    1   64 1    
     5    2    3 2    
     6    2    4 am   BACKBONE|DICT|INTERRES
     7    4    5 1    
     8    4   65 1    
     9    5    6 1    
    10    5   25 1    
    11    5   66 1    
    12    6    7 1    
    13    6   67 1    
    14    6   68 1    
    15    7    8 1    
    16    8    9 1    
    17    8   69 1    
    18    8   70 1    
    19    9   10 ar   
    20    9   14 ar   
    21   10   11 ar   
    22   10   71 1    
    23   11   12 ar   
    24   11   61 1    
    25   12   13 ar   
    26   12   72 1    
    27   13   14 ar   
    28   13   15 1    
    29   14   73 1    
    30   15   16 1    
    31   15   74 1    
    32   15   75 1    
    33   16   17 1    
    34   17   18 1    
    35   17   76 1    
    36   17   77 1    
    37   18   19 1    
    38   18   27 1    
    39   18   78 1    
    40   19   20 am   BACKBONE|DICT|INTERRES
    41   19   79 1    
    42   20   21 2    
    43   20   22 1    
    44   22   23 1    
    45   22   24 1    
    46   22   80 1    
    47   23   81 1    
    48   23   82 1    
    49   23   83 1    
    50   24   25 am   BACKBONE|DICT|INTERRES
    51   24   84 1    
    52   25   26 2    
    53   27   28 2    
    54   27   29 am   BACKBONE|DICT|INTERRES
    55   29   30 1    
    56   29   85 1    
    57   30   31 1    
    58   30   32 1    
    59   30   86 1    
    60   31   87 1    
    61   31   88 1    
    62   31   89 1    
    63   32   33 2    
    64   32   34 am   BACKBONE|DICT|INTERRES
    65   34   35 1    
    66   34   90 1    
    67   35   36 1    
    68   35   37 1    
    69   35   91 1    
    70   36   92 1    
    71   36   93 1    
    72   36   94 1    
    73   37   38 2    
    74   37   39 am   BACKBONE|DICT|INTERRES
    75   39   40 1    
    76   39   95 1    
    77   40   41 1    
    78   40   42 1    
    79   40   96 1    
    80   41   97 1    
    81   41   98 1    
    82   41   99 1    
    83   42   43 2    
    84   42   44 am   BACKBONE|DICT|INTERRES
    85   44   45 1    
    86   44  100 1    
    87   45   46 1    
    88   45   47 1    
    89   45  101 1    
    90   46  102 1    
    91   46  103 1    
    92   46  104 1    
    93   47   48 2    
    94   47   49 am   BACKBONE|DICT|INTERRES
    95   49   50 1    
    96   49  105 1    
    97   50   51 1    
    98   50   52 1    
    99   50  106 1    
   100   51  107 1    
   101   51  108 1    
   102   51  109 1    
   103   52   53 2    
   104   52   54 am   BACKBONE|DICT|INTERRES
   105   54   55 1    
   106   54  110 1    
   107   55   56 1    
   108   55   59 1    
   109   55  111 1    
   110   56   57 am   BACKBONE|DICT|INTERRES
   111   56   58 2    
   112   57  112 1    
   113   57  113 1    
   114   59   60 1    
   115   59  114 1    
   116   59  115 1    
   117   60   61 1    
   118   61  116 1    
   119   61  117 1    
@<TRIPOS>SUBSTRUCTURE
     1 UNK         1 GROUP             0       ****    0 ROOT    
