@<TRIPOS>MOLECULE
3R8
117   119    1
SMALL
USER_CHARGES


@<TRIPOS>ATOM
      1 CA         13.4241  -24.8791  -42.9568 C.3       0 UNK        -0.2013 
      2 C          14.3410  -25.0158  -44.1628 C.2       0 UNK         0.4866 
      3 O          14.2754  -24.1948  -45.0785 O.2       0 UNK        -0.5176 
      4 N          15.1883  -26.0516  -44.1756 N.am      1 UNK        -0.4884 
      5 CA         16.1733  -26.3177  -45.2293 C.3       1 UNK         0.0853 
      6 C6         16.7724  -27.7421  -45.1098 C.3       10 UNK        -0.0849 
      7 S7         15.5130  -29.0614  -45.1759 S.3       10 UNK        -0.2776 
      8 C8         16.5535  -30.5604  -45.1626 C.3       10 UNK         0.0316 
      9 C9         17.4449  -30.6284  -43.9293 C.ar      10 UNK        -0.0863 
     10 C10        16.8964  -30.9224  -42.6782 C.ar      10 UNK        -0.1009 
     11 C11        17.7047  -30.9495  -41.5383 C.ar      10 UNK        -0.0712 
     12 C12        19.0683  -30.6594  -41.6573 C.ar      10 UNK        -0.0894 
     13 C13        19.6402  -30.3972  -42.9052 C.ar      10 UNK        -0.0745 
     14 C14        18.8184  -30.3921  -44.0401 C.ar      10 UNK        -0.0972 
     15 C15        21.1508  -30.1721  -42.9819 C.3       10 UNK         0.0209 
     16 S16        21.7286  -29.2054  -44.4175 S.3       10 UNK        -0.2568 
     17 C17        20.9742  -27.5885  -44.0571 C.3       10 UNK        -0.0983 
     18 CA         21.4914  -26.4814  -45.0113 C.3       3 UNK         0.0876 
     19 N          20.4335  -25.5107  -45.2812 N.am      3 UNK        -0.4424 
     20 C          20.2714  -24.8277  -46.4179 C.2       2 UNK         0.4918 
     21 O          21.0483  -24.8896  -47.3725 O.2       2 UNK        -0.4875 
     22 CA         18.9777  -23.9922  -46.5152 C.3       2 UNK         0.0481 
     23 CB         18.8663  -23.2226  -47.8444 C.3       2 UNK        -0.1831 
     24 N          17.7944  -24.8471  -46.3550 N.am      2 UNK        -0.4498 
     25 C          17.3109  -25.2779  -45.1817 C.2       1 UNK         0.5027 
     26 O          17.7825  -24.9420  -44.0913 O.2       1 UNK        -0.4969 
     27 C          22.7584  -25.7996  -44.4579 C.2       3 UNK         0.5005 
     28 O          22.7128  -24.6418  -44.0302 O.2       3 UNK        -0.5279 
     29 N          23.8643  -26.5538  -44.4513 N.am      4 UNK        -0.4463 
     30 CA         25.1244  -26.1851  -43.8066 C.3       4 UNK         0.0283 
     31 CB         26.2486  -27.0741  -44.3630 C.3       4 UNK        -0.1875 
     32 C          25.0293  -26.3284  -42.2777 C.2       4 UNK         0.4949 
     33 O          24.2201  -27.1142  -41.7770 O.2       4 UNK        -0.5039 
     34 N          25.8774  -25.5791  -41.5628 N.am      5 UNK        -0.4663 
     35 CA         25.9663  -25.5925  -40.1013 C.3       5 UNK         0.0242 
     36 CB         26.9304  -24.4875  -39.6386 C.3       5 UNK        -0.1982 
     37 C          26.4130  -26.9642  -39.5662 C.2       5 UNK         0.5017 
     38 O          27.4408  -27.4809  -40.0097 O.2       5 UNK        -0.5012 
     39 N          25.6294  -27.5114  -38.6260 N.am      6 UNK        -0.4439 
     40 CA         25.8232  -28.7933  -37.9335 C.3       6 UNK         0.0297 
     41 CB         27.1045  -28.7631  -37.0718 C.3       6 UNK        -0.2006 
     42 C          25.7543  -30.0441  -38.8379 C.2       6 UNK         0.4892 
     43 O          26.1970  -31.1133  -38.4128 O.2       6 UNK        -0.5089 
     44 N          25.1890  -29.9165  -40.0470 N.am      7 UNK        -0.4243 
     45 CA         24.9381  -31.0367  -40.9558 C.3       7 UNK         0.0196 
     46 CB         24.7448  -30.4989  -42.3811 C.3       7 UNK        -0.2007 
     47 C          23.7189  -31.8566  -40.4998 C.2       7 UNK         0.5020 
     48 O          22.7551  -31.2876  -39.9815 O.2       7 UNK        -0.5147 
     49 N          23.7826  -33.1779  -40.7043 N.am      8 UNK        -0.4734 
     50 CA         22.7229  -34.1231  -40.3430 C.3       8 UNK         0.0238 
     51 CB         23.2991  -35.5488  -40.3399 C.3       8 UNK        -0.1912 
     52 C          21.5226  -34.0326  -41.2994 C.2       8 UNK         0.5038 
     53 O          21.7152  -33.8317  -42.5011 O.2       8 UNK        -0.5046 
     54 N          20.3177  -34.2105  -40.7468 N.am      9 UNK        -0.4200 
     55 CA         19.0441  -34.1901  -41.4799 C.3       9 UNK         0.0839 
     56 C          18.8662  -35.4212  -42.4073 C.2       9 UNK         0.5513 
     57 N          18.1835  -35.2551  -43.5318 N.am      9 UNK        -0.7519 
     58 O          19.2992  -36.5291  -42.0961 O.2       9 UNK        -0.4960 
     59 C59        17.8266  -34.0372  -40.5255 C.3       10 UNK        -0.0876 
     60 S60        17.9931  -32.6532  -39.3412 S.3       10 UNK        -0.2414 
     61 C61        17.1027  -31.3014  -40.1832 C.3       10 UNK         0.0169 
     62 H62        12.3817  -24.9071  -43.2727 H         1 UNK         0.0903 
     63 H63        13.5803  -25.6787  -42.2328 H         1 UNK         0.0903 
     64 H64        13.6034  -23.9282  -42.4556 H         1 UNK         0.0903 
     65 H65        15.2045  -26.6948  -43.3970 H         1 UNK         0.3096 
     66 H66        15.6646  -26.2335  -46.1924 H         1 UNK         0.1121 
     67 H67        17.4946  -27.9226  -45.9088 H         1 UNK         0.0849 
     68 H68        17.3217  -27.8411  -44.1712 H         1 UNK         0.0849 
     69 H69        15.9091  -31.4402  -45.1927 H         1 UNK         0.0865 
     70 H70        17.1504  -30.5903  -46.0755 H         1 UNK         0.0865 
     71 H71        15.8367  -31.1223  -42.5950 H         1 UNK         0.1346 
     72 H72        19.6964  -30.6829  -40.7765 H         1 UNK         0.1412 
     73 H73        19.2414  -30.1948  -45.0148 H         1 UNK         0.1426 
     74 H74        21.6398  -31.1462  -43.0069 H         1 UNK         0.0716 
     75 H75        21.4987  -29.6776  -42.0733 H         1 UNK         0.0716 
     76 H76        21.1310  -27.3297  -43.0073 H         1 UNK         0.0695 
     77 H77        19.8966  -27.7156  -44.1715 H         1 UNK         0.0695 
     78 H78        21.7605  -26.9380  -45.9671 H         1 UNK         0.0983 
     79 H79        19.7537  -25.3634  -44.5439 H         1 UNK         0.3095 
     80 H80        19.0020  -23.2560  -45.7089 H         1 UNK         0.0454 
     81 H81        19.7182  -22.5551  -47.9811 H         1 UNK         0.0851 
     82 H82        17.9676  -22.6064  -47.8717 H         1 UNK         0.0851 
     83 H83        18.8385  -23.8953  -48.7025 H         1 UNK         0.0851 
     84 H84        17.3808  -25.1951  -47.2086 H         1 UNK         0.2976 
     85 H85        23.7800  -27.5156  -44.7502 H         1 UNK         0.3116 
     86 H86        25.3492  -25.1437  -44.0474 H         1 UNK         0.0646 
     87 H87        27.2088  -26.8249  -43.9093 H         1 UNK         0.0847 
     88 H88        26.3590  -26.9463  -45.4400 H         1 UNK         0.0847 
     89 H89        26.0629  -28.1305  -44.1686 H         1 UNK         0.0847 
     90 H90        26.5354  -24.9877  -42.0498 H         1 UNK         0.3040 
     91 H91        24.9726  -25.3629  -39.7096 H         1 UNK         0.1015 
     92 H92        27.0006  -24.4621  -38.5502 H         1 UNK         0.0786 
     93 H93        26.5930  -23.5029  -39.9631 H         1 UNK         0.0786 
     94 H94        27.9385  -24.6426  -40.0258 H         1 UNK         0.0786 
     95 H95        24.7958  -27.0056  -38.3574 H         1 UNK         0.3172 
     96 H96        24.9781  -28.8857  -37.2498 H         1 UNK         0.0595 
     97 H97        28.0055  -28.7468  -37.6858 H         1 UNK         0.0839 
     98 H98        27.1676  -29.6427  -36.4298 H         1 UNK         0.0839 
     99 H99        27.1259  -27.8895  -36.4204 H         1 UNK         0.0839 
    100 H100       24.8220  -29.0152  -40.3234 H         1 UNK         0.2998 
    101 H101       25.8153  -31.6879  -40.9552 H         1 UNK         0.0822 
    102 H102       25.6598  -30.0373  -42.7509 H         1 UNK         0.0787 
    103 H103       24.4788  -31.2976  -43.0750 H         1 UNK         0.0787 
    104 H104       23.9548  -29.7501  -42.4230 H         1 UNK         0.0787 
    105 H105       24.5875  -33.5622  -41.1779 H         1 UNK         0.3055 
    106 H106       22.3851  -33.8830  -39.3319 H         1 UNK         0.1106 
    107 H107       24.1242  -35.6436  -39.6338 H         1 UNK         0.0828 
    108 H108       22.5401  -36.2764  -40.0485 H         1 UNK         0.0828 
    109 H109       23.6641  -35.8390  -41.3262 H         1 UNK         0.0828 
    110 H110       20.2480  -34.3924  -39.7569 H         1 UNK         0.2931 
    111 H111       19.0732  -33.3155  -42.1294 H         1 UNK         0.0412 
    112 H112       17.8212  -34.3505  -43.7909 H         1 UNK         0.3472 
    113 H113       18.0413  -36.0456  -44.1415 H         1 UNK         0.3472 
    114 H114       16.9077  -33.9040  -41.0996 H         1 UNK         0.0970 
    115 H115       17.6859  -34.9510  -39.9450 H         1 UNK         0.0970 
    116 H116       17.1267  -30.4156  -39.5474 H         1 UNK         0.0612 
    117 H117       16.0532  -31.5828  -40.2831 H         1 UNK         0.0612 
@<TRIPOS>BOND
     1    1    2 1    
     2    1   62 1    
     3    1   63 1    
     4    1   64 1    
     5    2    3 2    
     6    2    4 am   BACKBONE|DICT|INTERRES
     7    4    5 1    
     8    4   65 1    
     9    5    6 1    
    10    5   25 1    
    11    5   66 1    
    12    6    7 1    
    13    6   67 1    
    14    6   68 1    
    15    7    8 1    
    16    8    9 1    
    17    8   69 1    
    18    8   70 1    
    19    9   10 ar   
    20    9   14 ar   
    21   10   11 ar   
    22   10   71 1    
    23   11   12 ar   
    24   11   61 1    
    25   12   13 ar   
    26   12   72 1    
    27   13   14 ar   
    28   13   15 1    
    29   14   73 1    
    30   15   16 1    
    31   15   74 1    
    32   15   75 1    
    33   16   17 1    
    34   17   18 1    
    35   17   76 1    
    36   17   77 1    
    37   18   19 1    
    38   18   27 1    
    39   18   78 1    
    40   19   20 am   BACKBONE|DICT|INTERRES
    41   19   79 1    
    42   20   21 2    
    43   20   22 1    
    44   22   23 1    
    45   22   24 1    
    46   22   80 1    
    47   23   81 1    
    48   23   82 1    
    49   23   83 1    
    50   24   25 am   BACKBONE|DICT|INTERRES
    51   24   84 1    
    52   25   26 2    
    53   27   28 2    
    54   27   29 am   BACKBONE|DICT|INTERRES
    55   29   30 1    
    56   29   85 1    
    57   30   31 1    
    58   30   32 1    
    59   30   86 1    
    60   31   87 1    
    61   31   88 1    
    62   31   89 1    
    63   32   33 2    
    64   32   34 am   BACKBONE|DICT|INTERRES
    65   34   35 1    
    66   34   90 1    
    67   35   36 1    
    68   35   37 1    
    69   35   91 1    
    70   36   92 1    
    71   36   93 1    
    72   36   94 1    
    73   37   38 2    
    74   37   39 am   BACKBONE|DICT|INTERRES
    75   39   40 1    
    76   39   95 1    
    77   40   41 1    
    78   40   42 1    
    79   40   96 1    
    80   41   97 1    
    81   41   98 1    
    82   41   99 1    
    83   42   43 2    
    84   42   44 am   BACKBONE|DICT|INTERRES
    85   44   45 1    
    86   44  100 1    
    87   45   46 1    
    88   45   47 1    
    89   45  101 1    
    90   46  102 1    
    91   46  103 1    
    92   46  104 1    
    93   47   48 2    
    94   47   49 am   BACKBONE|DICT|INTERRES
    95   49   50 1    
    96   49  105 1    
    97   50   51 1    
    98   50   52 1    
    99   50  106 1    
   100   51  107 1    
   101   51  108 1    
   102   51  109 1    
   103   52   53 2    
   104   52   54 am   BACKBONE|DICT|INTERRES
   105   54   55 1    
   106   54  110 1    
   107   55   56 1    
   108   55   59 1    
   109   55  111 1    
   110   56   57 am   BACKBONE|DICT|INTERRES
   111   56   58 2    
   112   57  112 1    
   113   57  113 1    
   114   59   60 1    
   115   59  114 1    
   116   59  115 1    
   117   60   61 1    
   118   61  116 1    
   119   61  117 1    
@<TRIPOS>SUBSTRUCTURE
     1 UNK         1 GROUP             0       ****    0 ROOT    
