@<TRIPOS>MOLECULE
3R8
117   119    1
SMALL
USER_CHARGES


@<TRIPOS>ATOM
      1 CA         13.1330  -21.8472  -46.3120 C.3       0 UNK        -0.2013 
      2 C          14.1636  -22.8666  -46.7742 C.2       0 UNK         0.4866 
      3 O          14.9031  -22.6026  -47.7230 O.2       0 UNK        -0.5176 
      4 N          14.2137  -24.0325  -46.1176 N.am      1 UNK        -0.4884 
      5 CA         15.1882  -25.0955  -46.3805 C.3       1 UNK         0.0853 
      6 C6         14.7213  -26.4363  -45.7648 C.3       10 UNK        -0.0849 
      7 S7         15.5701  -27.8833  -46.4836 S.3       10 UNK        -0.2776 
      8 C8         15.1247  -29.1848  -45.2893 C.3       10 UNK         0.0316 
      9 C9         16.1917  -29.3728  -44.2185 C.ar      10 UNK        -0.0863 
     10 C10        17.1128  -30.4203  -44.3210 C.ar      10 UNK        -0.1009 
     11 C11        18.0695  -30.6342  -43.3226 C.ar      10 UNK        -0.0712 
     12 C12        18.1052  -29.7770  -42.2165 C.ar      10 UNK        -0.0894 
     13 C13        17.2103  -28.7085  -42.1177 C.ar      10 UNK        -0.0745 
     14 C14        16.2446  -28.5235  -43.1103 C.ar      10 UNK        -0.0972 
     15 C15        17.2845  -27.7448  -40.9445 C.3       10 UNK         0.0209 
     16 S16        17.9391  -26.1265  -41.4622 S.3       10 UNK        -0.2568 
     17 C17        19.7039  -26.4952  -41.7525 C.3       10 UNK        -0.0983 
     18 CA         20.0543  -26.8167  -43.2306 C.3       3 UNK         0.0876 
     19 N          19.5431  -25.8069  -44.1619 N.am      3 UNK        -0.4424 
     20 C          19.5320  -25.9387  -45.4931 C.2       2 UNK         0.4918 
     21 O          19.8799  -26.9604  -46.0886 O.2       2 UNK        -0.4875 
     22 CA         19.0193  -24.7336  -46.2944 C.3       2 UNK         0.0481 
     23 CB         19.8450  -24.5058  -47.5730 C.3       2 UNK        -0.1831 
     24 N          17.6224  -24.9539  -46.6565 N.am      2 UNK        -0.4498 
     25 C          16.5816  -24.6859  -45.8590 C.2       1 UNK         0.5027 
     26 O          16.6854  -24.1537  -44.7503 O.2       1 UNK        -0.4969 
     27 C          21.5831  -26.9597  -43.3853 C.2       3 UNK         0.5005 
     28 O          22.2716  -25.9451  -43.5272 O.2       3 UNK        -0.5279 
     29 N          22.0972  -28.1963  -43.3157 N.am      4 UNK        -0.4463 
     30 CA         23.5355  -28.4865  -43.4092 C.3       4 UNK         0.0283 
     31 CB         23.7377  -29.9204  -43.9206 C.3       4 UNK        -0.1875 
     32 C          24.2996  -28.2520  -42.0888 C.2       4 UNK         0.4949 
     33 O          25.5276  -28.3498  -42.0846 O.2       4 UNK        -0.5039 
     34 N          23.5707  -27.9437  -41.0039 N.am      5 UNK        -0.4663 
     35 CA         24.0551  -27.5514  -39.6761 C.3       5 UNK         0.0242 
     36 CB         24.6549  -26.1272  -39.7313 C.3       5 UNK        -0.1982 
     37 C          24.9914  -28.6066  -39.0598 C.2       5 UNK         0.5017 
     38 O          24.5268  -29.7027  -38.7432 O.2       5 UNK        -0.5012 
     39 N          26.2824  -28.2720  -38.9210 N.am      6 UNK        -0.4439 
     40 CA         27.3396  -29.0980  -38.3268 C.3       6 UNK         0.0297 
     41 CB         28.6445  -28.2859  -38.2852 C.3       6 UNK        -0.2006 
     42 C          27.5762  -30.4568  -39.0139 C.2       6 UNK         0.4892 
     43 O          28.1384  -31.3507  -38.3803 O.2       6 UNK        -0.5089 
     44 N          27.1351  -30.6050  -40.2721 N.am      7 UNK        -0.4243 
     45 CA         27.1386  -31.8768  -41.0006 C.3       7 UNK         0.0196 
     46 CB         26.9104  -31.6029  -42.4930 C.3       7 UNK        -0.2007 
     47 C          26.1020  -32.8905  -40.4740 C.2       7 UNK         0.5020 
     48 O          26.2515  -34.0799  -40.7538 O.2       7 UNK        -0.5147 
     49 N          25.0916  -32.4147  -39.7252 N.am      8 UNK        -0.4734 
     50 CA         24.0355  -33.1828  -39.0535 C.3       8 UNK         0.0238 
     51 CB         24.6292  -34.0066  -37.8905 C.3       8 UNK        -0.1912 
     52 C          23.1989  -34.0338  -40.0277 C.2       8 UNK         0.5038 
     53 O          23.1272  -35.2558  -39.8784 O.2       8 UNK        -0.5046 
     54 N          22.5911  -33.3665  -41.0180 N.am      9 UNK        -0.4200 
     55 CA         21.7347  -33.9892  -42.0419 C.3       9 UNK         0.0839 
     56 C          20.3875  -34.5807  -41.5287 C.2       9 UNK         0.5513 
     57 N          19.9333  -34.2591  -40.3233 N.am      9 UNK        -0.7519 
     58 O          19.7473  -35.3502  -42.2404 O.2       9 UNK        -0.4960 
     59 C59        21.5341  -33.0636  -43.2717 C.3       10 UNK        -0.0876 
     60 S60        20.7211  -31.4682  -42.8960 S.3       10 UNK        -0.2414 
     61 C61        19.0157  -31.8255  -43.4355 C.3       10 UNK         0.0169 
     62 H62        12.4531  -21.6043  -47.1281 H         1 UNK         0.0903 
     63 H63        12.5399  -22.2164  -45.4755 H         1 UNK         0.0903 
     64 H64        13.6289  -20.9295  -45.9968 H         1 UNK         0.0903 
     65 H65        13.6068  -24.1791  -45.3233 H         1 UNK         0.3096 
     66 H66        15.2442  -25.2183  -47.4650 H         1 UNK         0.1121 
     67 H67        14.8387  -26.4241  -44.6811 H         1 UNK         0.0849 
     68 H68        13.6544  -26.5757  -45.9479 H         1 UNK         0.0849 
     69 H69        14.9781  -30.1178  -45.8358 H         1 UNK         0.0865 
     70 H70        14.1628  -28.9597  -44.8258 H         1 UNK         0.0865 
     71 H71        17.0710  -31.0847  -45.1736 H         1 UNK         0.1346 
     72 H72        18.8340  -29.9366  -41.4339 H         1 UNK         0.1412 
     73 H73        15.5408  -27.7096  -43.0152 H         1 UNK         0.1426 
     74 H74        17.8957  -28.1494  -40.1363 H         1 UNK         0.0716 
     75 H75        16.2847  -27.6047  -40.5310 H         1 UNK         0.0716 
     76 H76        20.0041  -27.3188  -41.1023 H         1 UNK         0.0695 
     77 H77        20.2676  -25.6244  -41.4107 H         1 UNK         0.0695 
     78 H78        19.5902  -27.7667  -43.5023 H         1 UNK         0.0983 
     79 H79        19.2008  -24.9519  -43.7480 H         1 UNK         0.3095 
     80 H80        19.1054  -23.8341  -45.6805 H         1 UNK         0.0454 
     81 H81        19.5076  -23.6186  -48.1089 H         1 UNK         0.0851 
     82 H82        19.7832  -25.3531  -48.2571 H         1 UNK         0.0851 
     83 H83        20.8987  -24.3579  -47.3330 H         1 UNK         0.0851 
     84 H84        17.4578  -25.4410  -47.5261 H         1 UNK         0.2976 
     85 H85        21.4808  -28.9911  -43.2033 H         1 UNK         0.3116 
     86 H86        23.9702  -27.8141  -44.1522 H         1 UNK         0.0646 
     87 H87        23.0817  -30.1469  -44.7614 H         1 UNK         0.0847 
     88 H88        23.5567  -30.6579  -43.1390 H         1 UNK         0.0847 
     89 H89        24.7600  -30.0578  -44.2731 H         1 UNK         0.0847 
     90 H90        22.5678  -27.9460  -41.1148 H         1 UNK         0.3040 
     91 H91        23.1813  -27.5135  -39.0232 H         1 UNK         0.1015 
     92 H92        23.9106  -25.4077  -40.0734 H         1 UNK         0.0786 
     93 H93        25.5056  -26.0595  -40.4105 H         1 UNK         0.0786 
     94 H94        24.9839  -25.7960  -38.7452 H         1 UNK         0.0786 
     95 H95        26.5611  -27.3595  -39.2523 H         1 UNK         0.3172 
     96 H96        27.0391  -29.3116  -37.2991 H         1 UNK         0.0595 
     97 H97        29.4470  -28.8584  -37.8174 H         1 UNK         0.0839 
     98 H98        28.5262  -27.3696  -37.7064 H         1 UNK         0.0839 
     99 H99        28.9815  -28.0124  -39.2859 H         1 UNK         0.0839 
    100 H100       26.6928  -29.8152  -40.7278 H         1 UNK         0.2998 
    101 H101       28.1253  -32.3308  -40.8857 H         1 UNK         0.0822 
    102 H102       26.9691  -32.5236  -43.0751 H         1 UNK         0.0787 
    103 H103       27.6554  -30.9150  -42.8934 H         1 UNK         0.0787 
    104 H104       25.9267  -31.1713  -42.6624 H         1 UNK         0.0787 
    105 H105       25.0612  -31.4139  -39.5481 H         1 UNK         0.3055 
    106 H106       23.3516  -32.4523  -38.6175 H         1 UNK         0.1106 
    107 H107       25.1716  -33.3699  -37.1915 H         1 UNK         0.0828 
    108 H108       23.8427  -34.5099  -37.3269 H         1 UNK         0.0828 
    109 H109       25.3169  -34.7750  -38.2455 H         1 UNK         0.0828 
    110 H110       22.6872  -32.3634  -41.0686 H         1 UNK         0.2931 
    111 H111       22.2941  -34.8529  -42.4074 H         1 UNK         0.0412 
    112 H112       20.4467  -33.6228  -39.7359 H         1 UNK         0.3472 
    113 H113       19.0628  -34.6527  -40.0022 H         1 UNK         0.3472 
    114 H114       20.9810  -33.5851  -44.0552 H         1 UNK         0.0970 
    115 H115       22.5059  -32.8438  -43.7156 H         1 UNK         0.0970 
    116 H116       19.0491  -32.1791  -44.4672 H         1 UNK         0.0612 
    117 H117       18.6111  -32.6418  -42.8369 H         1 UNK         0.0612 
@<TRIPOS>BOND
     1    1    2 1    
     2    1   62 1    
     3    1   63 1    
     4    1   64 1    
     5    2    3 2    
     6    2    4 am   BACKBONE|DICT|INTERRES
     7    4    5 1    
     8    4   65 1    
     9    5    6 1    
    10    5   25 1    
    11    5   66 1    
    12    6    7 1    
    13    6   67 1    
    14    6   68 1    
    15    7    8 1    
    16    8    9 1    
    17    8   69 1    
    18    8   70 1    
    19    9   10 ar   
    20    9   14 ar   
    21   10   11 ar   
    22   10   71 1    
    23   11   12 ar   
    24   11   61 1    
    25   12   13 ar   
    26   12   72 1    
    27   13   14 ar   
    28   13   15 1    
    29   14   73 1    
    30   15   16 1    
    31   15   74 1    
    32   15   75 1    
    33   16   17 1    
    34   17   18 1    
    35   17   76 1    
    36   17   77 1    
    37   18   19 1    
    38   18   27 1    
    39   18   78 1    
    40   19   20 am   BACKBONE|DICT|INTERRES
    41   19   79 1    
    42   20   21 2    
    43   20   22 1    
    44   22   23 1    
    45   22   24 1    
    46   22   80 1    
    47   23   81 1    
    48   23   82 1    
    49   23   83 1    
    50   24   25 am   BACKBONE|DICT|INTERRES
    51   24   84 1    
    52   25   26 2    
    53   27   28 2    
    54   27   29 am   BACKBONE|DICT|INTERRES
    55   29   30 1    
    56   29   85 1    
    57   30   31 1    
    58   30   32 1    
    59   30   86 1    
    60   31   87 1    
    61   31   88 1    
    62   31   89 1    
    63   32   33 2    
    64   32   34 am   BACKBONE|DICT|INTERRES
    65   34   35 1    
    66   34   90 1    
    67   35   36 1    
    68   35   37 1    
    69   35   91 1    
    70   36   92 1    
    71   36   93 1    
    72   36   94 1    
    73   37   38 2    
    74   37   39 am   BACKBONE|DICT|INTERRES
    75   39   40 1    
    76   39   95 1    
    77   40   41 1    
    78   40   42 1    
    79   40   96 1    
    80   41   97 1    
    81   41   98 1    
    82   41   99 1    
    83   42   43 2    
    84   42   44 am   BACKBONE|DICT|INTERRES
    85   44   45 1    
    86   44  100 1    
    87   45   46 1    
    88   45   47 1    
    89   45  101 1    
    90   46  102 1    
    91   46  103 1    
    92   46  104 1    
    93   47   48 2    
    94   47   49 am   BACKBONE|DICT|INTERRES
    95   49   50 1    
    96   49  105 1    
    97   50   51 1    
    98   50   52 1    
    99   50  106 1    
   100   51  107 1    
   101   51  108 1    
   102   51  109 1    
   103   52   53 2    
   104   52   54 am   BACKBONE|DICT|INTERRES
   105   54   55 1    
   106   54  110 1    
   107   55   56 1    
   108   55   59 1    
   109   55  111 1    
   110   56   57 am   BACKBONE|DICT|INTERRES
   111   56   58 2    
   112   57  112 1    
   113   57  113 1    
   114   59   60 1    
   115   59  114 1    
   116   59  115 1    
   117   60   61 1    
   118   61  116 1    
   119   61  117 1    
@<TRIPOS>SUBSTRUCTURE
     1 UNK         1 GROUP             0       ****    0 ROOT    
