@<TRIPOS>MOLECULE
3R8
117   119    1
SMALL
USER_CHARGES


@<TRIPOS>ATOM
      1 CA         18.5234  -32.6171  -46.4890 C.3       0 UNK        -0.2013 
      2 C          18.2944  -31.1230  -46.6660 C.2       0 UNK         0.4866 
      3 O          18.1382  -30.6566  -47.7953 O.2       0 UNK        -0.5176 
      4 N          18.2687  -30.3784  -45.5538 N.am      1 UNK        -0.4884 
      5 CA         18.1420  -28.9191  -45.4805 C.3       1 UNK         0.0853 
      6 C6         16.7890  -28.3988  -46.0476 C.3       10 UNK        -0.0849 
      7 S7         16.1928  -26.8708  -45.2412 S.3       10 UNK        -0.2776 
      8 C8         15.1857  -27.5213  -43.8632 C.3       10 UNK         0.0316 
      9 C9         16.0649  -27.9678  -42.7042 C.ar      10 UNK        -0.0863 
     10 C10        16.3758  -29.3193  -42.5247 C.ar      10 UNK        -0.1009 
     11 C11        17.2649  -29.7119  -41.5192 C.ar      10 UNK        -0.0712 
     12 C12        17.8119  -28.7502  -40.6654 C.ar      10 UNK        -0.0894 
     13 C13        17.4910  -27.3994  -40.8220 C.ar      10 UNK        -0.0745 
     14 C14        16.6070  -27.0161  -41.8356 C.ar      10 UNK        -0.0972 
     15 C15        18.1209  -26.3545  -39.9119 C.3       10 UNK         0.0209 
     16 S16        19.8506  -26.0009  -40.3669 S.3       10 UNK        -0.2568 
     17 C17        19.6546  -25.1333  -41.9617 C.3       10 UNK        -0.0983 
     18 CA         20.8918  -25.3076  -42.8847 C.3       3 UNK         0.0876 
     19 N          20.4927  -25.2825  -44.2937 N.am      3 UNK        -0.4424 
     20 C          21.1844  -25.7689  -45.3322 C.2       2 UNK         0.4918 
     21 O          22.3567  -26.1457  -45.2727 O.2       2 UNK        -0.4875 
     22 CA         20.3611  -25.9554  -46.6211 C.3       2 UNK         0.0481 
     23 CB         21.2181  -26.3495  -47.8430 C.3       2 UNK        -0.1831 
     24 N          19.2769  -26.9215  -46.3812 N.am      2 UNK        -0.4498 
     25 C          19.4104  -28.2036  -45.9997 C.2       1 UNK         0.5027 
     26 O          20.4899  -28.8016  -45.9749 O.2       1 UNK        -0.4969 
     27 C          22.0531  -24.3443  -42.5426 C.2       3 UNK         0.5005 
     28 O          21.8835  -23.4173  -41.7474 O.2       3 UNK        -0.5279 
     29 N          23.2360  -24.6055  -43.1152 N.am      4 UNK        -0.4463 
     30 CA         24.5218  -24.0985  -42.6219 C.3       4 UNK         0.0283 
     31 CB         25.6225  -24.3825  -43.6562 C.3       4 UNK        -0.1875 
     32 C          24.8703  -24.7308  -41.2601 C.2       4 UNK         0.4949 
     33 O          25.3963  -24.0500  -40.3799 O.2       4 UNK        -0.5039 
     34 N          24.5070  -26.0089  -41.1079 N.am      5 UNK        -0.4663 
     35 CA         24.4365  -26.7606  -39.8641 C.3       5 UNK         0.0242 
     36 CB         25.8093  -27.3689  -39.5278 C.3       5 UNK        -0.1982 
     37 C          23.3853  -27.8545  -40.0808 C.2       5 UNK         0.5017 
     38 O          23.2807  -28.3729  -41.1964 O.2       5 UNK        -0.5012 
     39 N          22.6516  -28.2202  -39.0211 N.am      6 UNK        -0.4439 
     40 CA         21.6336  -29.2806  -39.0565 C.3       6 UNK         0.0297 
     41 CB         20.7868  -29.2250  -37.7754 C.3       6 UNK        -0.2006 
     42 C          22.2210  -30.6904  -39.2638 C.2       6 UNK         0.4892 
     43 O          21.5120  -31.5801  -39.7328 O.2       6 UNK        -0.5089 
     44 N          23.5166  -30.8550  -38.9568 N.am      7 UNK        -0.4243 
     45 CA         24.3130  -32.0645  -39.1839 C.3       7 UNK         0.0196 
     46 CB         25.6872  -31.8823  -38.5175 C.3       7 UNK        -0.2007 
     47 C          24.4807  -32.4482  -40.6685 C.2       7 UNK         0.5020 
     48 O          24.8941  -33.5737  -40.9478 O.2       7 UNK        -0.5147 
     49 N          24.1595  -31.5307  -41.5944 N.am      8 UNK        -0.4734 
     50 CA         24.1155  -31.7860  -43.0372 C.3       8 UNK         0.0238 
     51 CB         23.9832  -30.4456  -43.7812 C.3       8 UNK        -0.1912 
     52 C          22.9795  -32.7411  -43.4544 C.2       8 UNK         0.5038 
     53 O          23.0962  -33.3845  -44.4985 O.2       8 UNK        -0.5046 
     54 N          21.9075  -32.8091  -42.6530 N.am      9 UNK        -0.4200 
     55 CA         20.7485  -33.6838  -42.8743 C.3       9 UNK         0.0839 
     56 C          21.0699  -35.1636  -42.5393 C.2       9 UNK         0.5513 
     57 N          20.5647  -36.1020  -43.3287 N.am      9 UNK        -0.7519 
     58 O          21.7299  -35.4698  -41.5485 O.2       9 UNK        -0.4960 
     59 C59        19.5110  -33.1949  -42.0809 C.3       10 UNK        -0.0876 
     60 S60        19.0481  -31.4988  -42.5523 S.3       10 UNK        -0.2414 
     61 C61        17.6889  -31.1646  -41.3969 C.3       10 UNK         0.0169 
     62 H62        19.4973  -32.8965  -46.8918 H         1 UNK         0.0903 
     63 H63        18.4905  -32.9126  -45.4396 H         1 UNK         0.0903 
     64 H64        17.7575  -33.1812  -47.0221 H         1 UNK         0.0903 
     65 H65        18.4551  -30.8255  -44.6637 H         1 UNK         0.3096 
     66 H66        18.1601  -28.7070  -44.4121 H         1 UNK         0.1121 
     67 H67        16.8552  -28.2355  -47.1250 H         1 UNK         0.0849 
     68 H68        16.0164  -29.1594  -45.9237 H         1 UNK         0.0849 
     69 H69        14.5086  -26.7369  -43.5211 H         1 UNK         0.0865 
     70 H70        14.5500  -28.3369  -44.2113 H         1 UNK         0.0865 
     71 H71        15.9712  -30.0603  -43.2009 H         1 UNK         0.1346 
     72 H72        18.5117  -29.0483  -39.8970 H         1 UNK         0.1412 
     73 H73        16.3693  -25.9700  -41.9747 H         1 UNK         0.1426 
     74 H74        17.5461  -25.4271  -39.9282 H         1 UNK         0.0716 
     75 H75        18.0954  -26.7114  -38.8813 H         1 UNK         0.0716 
     76 H76        19.4113  -24.0840  -41.7843 H         1 UNK         0.0695 
     77 H77        18.7788  -25.5508  -42.4562 H         1 UNK         0.0695 
     78 H78        21.2811  -26.3145  -42.7106 H         1 UNK         0.0983 
     79 H79        19.5475  -24.9732  -44.4663 H         1 UNK         0.3095 
     80 H80        19.8887  -24.9974  -46.8444 H         1 UNK         0.0454 
     81 H81        20.6042  -26.4676  -48.7357 H         1 UNK         0.0851 
     82 H82        21.7612  -27.2817  -47.6848 H         1 UNK         0.0851 
     83 H83        21.9598  -25.5795  -48.0581 H         1 UNK         0.0851 
     84 H84        18.3420  -26.5326  -46.3490 H         1 UNK         0.2976 
     85 H85        23.2546  -25.3153  -43.8445 H         1 UNK         0.3116 
     86 H86        24.4430  -23.0175  -42.4869 H         1 UNK         0.0646 
     87 H87        25.4049  -23.8999  -44.6092 H         1 UNK         0.0847 
     88 H88        26.5856  -24.0019  -43.3130 H         1 UNK         0.0847 
     89 H89        25.7411  -25.4511  -43.8408 H         1 UNK         0.0847 
     90 H90        24.0804  -26.4938  -41.8881 H         1 UNK         0.3040 
     91 H91        24.1108  -26.0979  -39.0590 H         1 UNK         0.1015 
     92 H92        26.1531  -28.0446  -40.3124 H         1 UNK         0.0786 
     93 H93        25.7694  -27.9381  -38.5983 H         1 UNK         0.0786 
     94 H94        26.5654  -26.5940  -39.3999 H         1 UNK         0.0786 
     95 H95        22.7896  -27.7492  -38.1374 H         1 UNK         0.3172 
     96 H96        20.9756  -29.0814  -39.9055 H         1 UNK         0.0595 
     97 H97        21.3905  -29.3907  -36.8821 H         1 UNK         0.0839 
     98 H98        20.0092  -29.9902  -37.7893 H         1 UNK         0.0839 
     99 H99        20.2872  -28.2611  -37.6727 H         1 UNK         0.0839 
    100 H100       24.0085  -30.0616  -38.5741 H         1 UNK         0.2998 
    101 H101       23.7987  -32.8950  -38.6957 H         1 UNK         0.0822 
    102 H102       25.5894  -31.6961  -37.4476 H         1 UNK         0.0787 
    103 H103       26.3003  -32.7777  -38.6325 H         1 UNK         0.0787 
    104 H104       26.2405  -31.0506  -38.9561 H         1 UNK         0.0787 
    105 H105       23.8439  -30.6182  -41.2881 H         1 UNK         0.3055 
    106 H106       25.0595  -32.2532  -43.3294 H         1 UNK         0.1106 
    107 H107       24.8090  -29.7740  -43.5429 H         1 UNK         0.0828 
    108 H108       23.9880  -30.5946  -44.8629 H         1 UNK         0.0828 
    109 H109       23.0516  -29.9344  -43.5288 H         1 UNK         0.0828 
    110 H110       21.8996  -32.2773  -41.7913 H         1 UNK         0.2931 
    111 H111       20.4989  -33.6284  -43.9366 H         1 UNK         0.0412 
    112 H112       20.0143  -35.8628  -44.1392 H         1 UNK         0.3472 
    113 H113       20.7480  -37.0710  -43.1171 H         1 UNK         0.3472 
    114 H114       18.6543  -33.8473  -42.2621 H         1 UNK         0.0970 
    115 H115       19.7051  -33.2257  -41.0067 H         1 UNK         0.0970 
    116 H116       16.8490  -31.8267  -41.6139 H         1 UNK         0.0612 
    117 H117       18.0122  -31.3833  -40.3776 H         1 UNK         0.0612 
@<TRIPOS>BOND
     1    1    2 1    
     2    1   62 1    
     3    1   63 1    
     4    1   64 1    
     5    2    3 2    
     6    2    4 am   BACKBONE|DICT|INTERRES
     7    4    5 1    
     8    4   65 1    
     9    5    6 1    
    10    5   25 1    
    11    5   66 1    
    12    6    7 1    
    13    6   67 1    
    14    6   68 1    
    15    7    8 1    
    16    8    9 1    
    17    8   69 1    
    18    8   70 1    
    19    9   10 ar   
    20    9   14 ar   
    21   10   11 ar   
    22   10   71 1    
    23   11   12 ar   
    24   11   61 1    
    25   12   13 ar   
    26   12   72 1    
    27   13   14 ar   
    28   13   15 1    
    29   14   73 1    
    30   15   16 1    
    31   15   74 1    
    32   15   75 1    
    33   16   17 1    
    34   17   18 1    
    35   17   76 1    
    36   17   77 1    
    37   18   19 1    
    38   18   27 1    
    39   18   78 1    
    40   19   20 am   BACKBONE|DICT|INTERRES
    41   19   79 1    
    42   20   21 2    
    43   20   22 1    
    44   22   23 1    
    45   22   24 1    
    46   22   80 1    
    47   23   81 1    
    48   23   82 1    
    49   23   83 1    
    50   24   25 am   BACKBONE|DICT|INTERRES
    51   24   84 1    
    52   25   26 2    
    53   27   28 2    
    54   27   29 am   BACKBONE|DICT|INTERRES
    55   29   30 1    
    56   29   85 1    
    57   30   31 1    
    58   30   32 1    
    59   30   86 1    
    60   31   87 1    
    61   31   88 1    
    62   31   89 1    
    63   32   33 2    
    64   32   34 am   BACKBONE|DICT|INTERRES
    65   34   35 1    
    66   34   90 1    
    67   35   36 1    
    68   35   37 1    
    69   35   91 1    
    70   36   92 1    
    71   36   93 1    
    72   36   94 1    
    73   37   38 2    
    74   37   39 am   BACKBONE|DICT|INTERRES
    75   39   40 1    
    76   39   95 1    
    77   40   41 1    
    78   40   42 1    
    79   40   96 1    
    80   41   97 1    
    81   41   98 1    
    82   41   99 1    
    83   42   43 2    
    84   42   44 am   BACKBONE|DICT|INTERRES
    85   44   45 1    
    86   44  100 1    
    87   45   46 1    
    88   45   47 1    
    89   45  101 1    
    90   46  102 1    
    91   46  103 1    
    92   46  104 1    
    93   47   48 2    
    94   47   49 am   BACKBONE|DICT|INTERRES
    95   49   50 1    
    96   49  105 1    
    97   50   51 1    
    98   50   52 1    
    99   50  106 1    
   100   51  107 1    
   101   51  108 1    
   102   51  109 1    
   103   52   53 2    
   104   52   54 am   BACKBONE|DICT|INTERRES
   105   54   55 1    
   106   54  110 1    
   107   55   56 1    
   108   55   59 1    
   109   55  111 1    
   110   56   57 am   BACKBONE|DICT|INTERRES
   111   56   58 2    
   112   57  112 1    
   113   57  113 1    
   114   59   60 1    
   115   59  114 1    
   116   59  115 1    
   117   60   61 1    
   118   61  116 1    
   119   61  117 1    
@<TRIPOS>SUBSTRUCTURE
     1 UNK         1 GROUP             0       ****    0 ROOT    
