@<TRIPOS>MOLECULE
3R8
117   119    1
SMALL
USER_CHARGES


@<TRIPOS>ATOM
      1 CA         14.0750  -21.8737  -47.4868 C.3       0 UNK        -0.2013 
      2 C          15.0706  -23.0111  -47.6605 C.2       0 UNK         0.4866 
      3 O          15.8409  -23.0090  -48.6216 O.2       0 UNK        -0.5176 
      4 N          15.0562  -23.9869  -46.7434 N.am      1 UNK        -0.4884 
      5 CA         15.9910  -25.1171  -46.7154 C.3       1 UNK         0.0853 
      6 C6         15.4338  -26.2793  -45.8565 C.3       10 UNK        -0.0849 
      7 S7         16.0683  -27.9004  -46.3992 S.3       10 UNK        -0.2776 
      8 C8         15.1792  -29.0154  -45.2694 C.3       10 UNK         0.0316 
      9 C9         15.9952  -29.3138  -44.0207 C.ar      10 UNK        -0.0863 
     10 C10        16.7769  -30.4710  -43.9610 C.ar      10 UNK        -0.1009 
     11 C11        17.5064  -30.7792  -42.8094 C.ar      10 UNK        -0.0712 
     12 C12        17.4520  -29.9155  -41.7117 C.ar      10 UNK        -0.0894 
     13 C13        16.7060  -28.7342  -41.7736 C.ar      10 UNK        -0.0745 
     14 C14        15.9651  -28.4471  -42.9242 C.ar      10 UNK        -0.0972 
     15 C15        16.7214  -27.7578  -40.6056 C.3       10 UNK         0.0209 
     16 S16        18.3848  -27.0680  -40.3124 S.3       10 UNK        -0.2568 
     17 C17        18.7326  -26.1927  -41.8796 C.3       10 UNK        -0.0983 
     18 CA         19.5894  -27.0393  -42.8619 C.3       3 UNK         0.0876 
     19 N          19.5006  -26.5470  -44.2424 N.am      3 UNK        -0.4424 
     20 C          20.0664  -25.4367  -44.7440 C.2       2 UNK         0.4918 
     21 O          20.7473  -24.6413  -44.0972 O.2       2 UNK        -0.4875 
     22 CA         19.8167  -25.1583  -46.2364 C.3       2 UNK         0.0481 
     23 CB         20.7607  -26.0018  -47.1089 C.3       2 UNK        -0.1831 
     24 N          18.4278  -25.3947  -46.6386 N.am      2 UNK        -0.4498 
     25 C          17.3816  -24.6707  -46.2159 C.2       1 UNK         0.5027 
     26 O          17.4778  -23.7110  -45.4455 O.2       1 UNK        -0.4969 
     27 C          21.0598  -27.2245  -42.4200 C.2       3 UNK         0.5005 
     28 O          21.5638  -26.4800  -41.5747 O.2       3 UNK        -0.5279 
     29 N          21.7403  -28.2026  -43.0355 N.am      4 UNK        -0.4463 
     30 CA         23.1560  -28.5307  -42.8286 C.3       4 UNK         0.0283 
     31 CB         23.6413  -29.3842  -44.0156 C.3       4 UNK        -0.1875 
     32 C          23.4230  -29.2178  -41.4736 C.2       4 UNK         0.4949 
     33 O          23.9659  -30.3221  -41.4383 O.2       4 UNK        -0.5039 
     34 N          23.0157  -28.5703  -40.3753 N.am      5 UNK        -0.4663 
     35 CA         23.0679  -29.0803  -38.9989 C.3       5 UNK         0.0242 
     36 CB         22.3320  -28.0970  -38.0756 C.3       5 UNK        -0.1982 
     37 C          24.4872  -29.3609  -38.4743 C.2       5 UNK         0.5017 
     38 O          24.6477  -30.1785  -37.5685 O.2       5 UNK        -0.5012 
     39 N          25.4871  -28.6922  -39.0616 N.am      6 UNK        -0.4439 
     40 CA         26.9107  -28.9085  -38.8012 C.3       6 UNK         0.0297 
     41 CB         27.6761  -27.6236  -39.1622 C.3       6 UNK        -0.2006 
     42 C          27.4960  -30.1165  -39.5615 C.2       6 UNK         0.4892 
     43 O          28.6536  -30.4598  -39.3158 O.2       6 UNK        -0.5089 
     44 N          26.7265  -30.7190  -40.4786 N.am      7 UNK        -0.4243 
     45 CA         27.1555  -31.8095  -41.3472 C.3       7 UNK         0.0196 
     46 CB         27.6533  -31.2288  -42.6889 C.3       7 UNK        -0.2007 
     47 C          26.0168  -32.8321  -41.4750 C.2       7 UNK         0.5020 
     48 O          25.6950  -33.4953  -40.4885 O.2       7 UNK        -0.5147 
     49 N          25.4416  -32.9588  -42.6789 N.am      8 UNK        -0.4734 
     50 CA         24.4715  -33.9859  -43.0771 C.3       8 UNK         0.0238 
     51 CB         24.1176  -33.7889  -44.5605 C.3       8 UNK        -0.1912 
     52 C          23.1863  -34.0642  -42.2338 C.2       8 UNK         0.5038 
     53 O          22.6309  -35.1571  -42.1092 O.2       8 UNK        -0.5046 
     54 N          22.7405  -32.9308  -41.6804 N.am      9 UNK        -0.4200 
     55 CA         21.5634  -32.8398  -40.8011 C.3       9 UNK         0.0839 
     56 C          21.9313  -32.8584  -39.2895 C.2       9 UNK         0.5513 
     57 N          23.1897  -33.0359  -38.9043 N.am      9 UNK        -0.7519 
     58 O          21.0531  -32.7148  -38.4432 O.2       9 UNK        -0.4960 
     59 C59        20.6537  -31.6334  -41.1615 C.3       10 UNK        -0.0876 
     60 S60        20.1282  -31.6487  -42.9116 S.3       10 UNK        -0.2414 
     61 C61        18.3567  -32.0400  -42.7632 C.3       10 UNK         0.0169 
     62 H62        13.4252  -21.8071  -48.3590 H         1 UNK         0.0903 
     63 H63        13.4473  -22.0111  -46.6065 H         1 UNK         0.0903 
     64 H64        14.6031  -20.9263  -47.3819 H         1 UNK         0.0903 
     65 H65        14.4285  -23.9150  -45.9551 H         1 UNK         0.3096 
     66 H66        16.0990  -25.4637  -47.7464 H         1 UNK         0.1121 
     67 H67        15.6405  -26.1287  -44.7955 H         1 UNK         0.0849 
     68 H68        14.3469  -26.3208  -45.9478 H         1 UNK         0.0849 
     69 H69        14.2107  -28.5927  -44.9975 H         1 UNK         0.0865 
     70 H70        14.9591  -29.9433  -45.7997 H         1 UNK         0.0865 
     71 H71        16.8140  -31.1361  -44.8133 H         1 UNK         0.1346 
     72 H72        18.0188  -30.1389  -40.8192 H         1 UNK         0.1412 
     73 H73        15.3703  -27.5456  -42.9683 H         1 UNK         0.1426 
     74 H74        16.3888  -28.2744  -39.7043 H         1 UNK         0.0716 
     75 H75        16.0189  -26.9388  -40.7680 H         1 UNK         0.0716 
     76 H76        17.7802  -25.9332  -42.3447 H         1 UNK         0.0695 
     77 H77        19.2181  -25.2412  -41.6559 H         1 UNK         0.0695 
     78 H78        19.1589  -28.0401  -42.8939 H         1 UNK         0.0983 
     79 H79        18.9552  -27.1183  -44.8719 H         1 UNK         0.3095 
     80 H80        20.0417  -24.1055  -46.4207 H         1 UNK         0.0454 
     81 H81        20.5682  -27.0703  -47.0046 H         1 UNK         0.0851 
     82 H82        20.6618  -25.7445  -48.1636 H         1 UNK         0.0851 
     83 H83        21.8023  -25.8309  -46.8331 H         1 UNK         0.0851 
     84 H84        18.2575  -26.1777  -47.2545 H         1 UNK         0.2976 
     85 H85        21.2466  -28.7828  -43.6991 H         1 UNK         0.3116 
     86 H86        23.7271  -27.6000  -42.8324 H         1 UNK         0.0646 
     87 H87        24.7053  -29.6071  -43.9288 H         1 UNK         0.0847 
     88 H88        23.4997  -28.8656  -44.9638 H         1 UNK         0.0847 
     89 H89        23.1120  -30.3366  -44.0702 H         1 UNK         0.0847 
     90 H90        22.5485  -27.6768  -40.5209 H         1 UNK         0.3040 
     91 H91        22.5317  -30.0296  -38.9780 H         1 UNK         0.1015 
     92 H92        21.2941  -27.9655  -38.3837 H         1 UNK         0.0786 
     93 H93        22.8075  -27.1154  -38.0714 H         1 UNK         0.0786 
     94 H94        22.3200  -28.4599  -37.0468 H         1 UNK         0.0786 
     95 H95        25.2480  -28.0350  -39.7902 H         1 UNK         0.3172 
     96 H96        27.0496  -29.0972  -37.7345 H         1 UNK         0.0595 
     97 H97        27.3080  -26.7685  -38.5950 H         1 UNK         0.0839 
     98 H98        27.5910  -27.3865  -40.2235 H         1 UNK         0.0839 
     99 H99        28.7387  -27.7243  -38.9364 H         1 UNK         0.0839 
    100 H100       25.7599  -30.4285  -40.5939 H         1 UNK         0.2998 
    101 H101       27.9849  -32.3483  -40.8839 H         1 UNK         0.0822 
    102 H102       28.5206  -30.5865  -42.5344 H         1 UNK         0.0787 
    103 H103       27.9644  -32.0188  -43.3740 H         1 UNK         0.0787 
    104 H104       26.8893  -30.6293  -43.1850 H         1 UNK         0.0787 
    105 H105       25.7614  -32.3428  -43.4119 H         1 UNK         0.3055 
    106 H106       24.9717  -34.9511  -42.9721 H         1 UNK         0.1106 
    107 H107       23.6468  -32.8209  -44.7368 H         1 UNK         0.0828 
    108 H108       25.0018  -33.8553  -45.1946 H         1 UNK         0.0828 
    109 H109       23.4202  -34.5557  -44.9015 H         1 UNK         0.0828 
    110 H110       23.2844  -32.0786  -41.7820 H         1 UNK         0.2931 
    111 H111       20.9496  -33.7306  -40.9453 H         1 UNK         0.0412 
    112 H112       23.9338  -33.1743  -39.5798 H         1 UNK         0.3472 
    113 H113       23.4069  -33.0320  -37.9206 H         1 UNK         0.3472 
    114 H114       21.1585  -30.6912  -40.9640 H         1 UNK         0.0970 
    115 H115       19.7734  -31.6263  -40.5182 H         1 UNK         0.0970 
    116 H116       18.0864  -32.7071  -43.5831 H         1 UNK         0.0612 
    117 H117       18.1569  -32.5977  -41.8473 H         1 UNK         0.0612 
@<TRIPOS>BOND
     1    1    2 1    
     2    1   62 1    
     3    1   63 1    
     4    1   64 1    
     5    2    3 2    
     6    2    4 am   BACKBONE|DICT|INTERRES
     7    4    5 1    
     8    4   65 1    
     9    5    6 1    
    10    5   25 1    
    11    5   66 1    
    12    6    7 1    
    13    6   67 1    
    14    6   68 1    
    15    7    8 1    
    16    8    9 1    
    17    8   69 1    
    18    8   70 1    
    19    9   10 ar   
    20    9   14 ar   
    21   10   11 ar   
    22   10   71 1    
    23   11   12 ar   
    24   11   61 1    
    25   12   13 ar   
    26   12   72 1    
    27   13   14 ar   
    28   13   15 1    
    29   14   73 1    
    30   15   16 1    
    31   15   74 1    
    32   15   75 1    
    33   16   17 1    
    34   17   18 1    
    35   17   76 1    
    36   17   77 1    
    37   18   19 1    
    38   18   27 1    
    39   18   78 1    
    40   19   20 am   BACKBONE|DICT|INTERRES
    41   19   79 1    
    42   20   21 2    
    43   20   22 1    
    44   22   23 1    
    45   22   24 1    
    46   22   80 1    
    47   23   81 1    
    48   23   82 1    
    49   23   83 1    
    50   24   25 am   BACKBONE|DICT|INTERRES
    51   24   84 1    
    52   25   26 2    
    53   27   28 2    
    54   27   29 am   BACKBONE|DICT|INTERRES
    55   29   30 1    
    56   29   85 1    
    57   30   31 1    
    58   30   32 1    
    59   30   86 1    
    60   31   87 1    
    61   31   88 1    
    62   31   89 1    
    63   32   33 2    
    64   32   34 am   BACKBONE|DICT|INTERRES
    65   34   35 1    
    66   34   90 1    
    67   35   36 1    
    68   35   37 1    
    69   35   91 1    
    70   36   92 1    
    71   36   93 1    
    72   36   94 1    
    73   37   38 2    
    74   37   39 am   BACKBONE|DICT|INTERRES
    75   39   40 1    
    76   39   95 1    
    77   40   41 1    
    78   40   42 1    
    79   40   96 1    
    80   41   97 1    
    81   41   98 1    
    82   41   99 1    
    83   42   43 2    
    84   42   44 am   BACKBONE|DICT|INTERRES
    85   44   45 1    
    86   44  100 1    
    87   45   46 1    
    88   45   47 1    
    89   45  101 1    
    90   46  102 1    
    91   46  103 1    
    92   46  104 1    
    93   47   48 2    
    94   47   49 am   BACKBONE|DICT|INTERRES
    95   49   50 1    
    96   49  105 1    
    97   50   51 1    
    98   50   52 1    
    99   50  106 1    
   100   51  107 1    
   101   51  108 1    
   102   51  109 1    
   103   52   53 2    
   104   52   54 am   BACKBONE|DICT|INTERRES
   105   54   55 1    
   106   54  110 1    
   107   55   56 1    
   108   55   59 1    
   109   55  111 1    
   110   56   57 am   BACKBONE|DICT|INTERRES
   111   56   58 2    
   112   57  112 1    
   113   57  113 1    
   114   59   60 1    
   115   59  114 1    
   116   59  115 1    
   117   60   61 1    
   118   61  116 1    
   119   61  117 1    
@<TRIPOS>SUBSTRUCTURE
     1 UNK         1 GROUP             0       ****    0 ROOT    
