@<TRIPOS>MOLECULE
3R8
117   119    1
SMALL
USER_CHARGES


@<TRIPOS>ATOM
      1 CA         14.9573  -23.1778  -41.3221 C.3       0 UNK        -0.2013 
      2 C          15.8794  -23.7603  -42.3828 C.2       0 UNK         0.4866 
      3 O          16.9379  -23.1921  -42.6539 O.2       0 UNK        -0.5176 
      4 N          15.4826  -24.8838  -42.9918 N.am      1 UNK        -0.4884 
      5 CA         16.2760  -25.6315  -43.9716 C.3       1 UNK         0.0853 
      6 C6         15.3853  -26.5829  -44.8119 C.3       10 UNK        -0.0849 
      7 S7         14.4725  -27.8177  -43.8140 S.3       10 UNK        -0.2776 
      8 C8         14.5913  -29.3228  -44.8304 C.3       10 UNK         0.0316 
      9 C9         16.0226  -29.7925  -45.0680 C.ar      10 UNK        -0.0863 
     10 C10        16.7736  -30.3598  -44.0321 C.ar      10 UNK        -0.1009 
     11 C11        18.0441  -30.8912  -44.2851 C.ar      10 UNK        -0.0712 
     12 C12        18.5638  -30.8406  -45.5827 C.ar      10 UNK        -0.0894 
     13 C13        17.8333  -30.2527  -46.6192 C.ar      10 UNK        -0.0745 
     14 C14        16.5667  -29.7276  -46.3538 C.ar      10 UNK        -0.0972 
     15 C15        18.3755  -30.2314  -48.0405 C.3       10 UNK         0.0209 
     16 S16        19.3682  -28.7427  -48.3672 S.3       10 UNK        -0.2568 
     17 C17        20.9979  -29.2423  -47.7202 C.3       10 UNK        -0.0983 
     18 CA         21.5586  -28.2551  -46.6705 C.3       3 UNK         0.0876 
     19 N          20.6579  -28.0662  -45.5212 N.am      3 UNK        -0.4424 
     20 C          20.8461  -27.1464  -44.5659 C.2       2 UNK         0.4918 
     21 O          21.7936  -26.3597  -44.5591 O.2       2 UNK        -0.4875 
     22 CA         19.8051  -27.0883  -43.4447 C.3       2 UNK         0.0481 
     23 CB         20.3624  -26.3960  -42.1805 C.3       2 UNK        -0.1831 
     24 N          18.6058  -26.4150  -43.9342 N.am      2 UNK        -0.4498 
     25 C          17.4386  -26.3766  -43.2796 C.2       1 UNK         0.5027 
     26 O          17.2544  -26.9039  -42.1785 O.2       1 UNK        -0.4969 
     27 C          22.9848  -28.6825  -46.2578 C.2       3 UNK         0.5005 
     28 O          23.9483  -28.2909  -46.9178 O.2       3 UNK        -0.5279 
     29 N          23.0940  -29.4540  -45.1667 N.am      4 UNK        -0.4463 
     30 CA         24.3584  -29.8889  -44.5647 C.3       4 UNK         0.0283 
     31 CB         24.1857  -31.3245  -44.0408 C.3       4 UNK        -0.1875 
     32 C          24.8677  -28.9265  -43.4692 C.2       4 UNK         0.4949 
     33 O          25.8643  -29.2357  -42.8134 O.2       4 UNK        -0.5039 
     34 N          24.2031  -27.7713  -43.3026 N.am      5 UNK        -0.4663 
     35 CA         24.4970  -26.7053  -42.3410 C.3       5 UNK         0.0242 
     36 CB         25.8164  -25.9877  -42.7112 C.3       5 UNK        -0.1982 
     37 C          24.4268  -27.2116  -40.8875 C.2       5 UNK         0.5017 
     38 O          23.3624  -27.6606  -40.4622 O.2       5 UNK        -0.5012 
     39 N          25.5402  -27.1152  -40.1495 N.am      6 UNK        -0.4439 
     40 CA         25.6542  -27.5233  -38.7475 C.3       6 UNK         0.0297 
     41 CB         26.9238  -26.8967  -38.1470 C.3       6 UNK        -0.2006 
     42 C          25.6564  -29.0487  -38.5338 C.2       6 UNK         0.4892 
     43 O          25.4013  -29.4880  -37.4113 O.2       6 UNK        -0.5089 
     44 N          25.9597  -29.8262  -39.5817 N.am      7 UNK        -0.4243 
     45 CA         25.9456  -31.2867  -39.5472 C.3       7 UNK         0.0196 
     46 CB         27.0118  -31.8215  -40.5170 C.3       7 UNK        -0.2007 
     47 C          24.5583  -31.8043  -39.9448 C.2       7 UNK         0.5020 
     48 O          23.9343  -31.2321  -40.8379 O.2       7 UNK        -0.5147 
     49 N          24.1307  -32.9047  -39.3107 N.am      8 UNK        -0.4734 
     50 CA         22.9185  -33.7028  -39.5612 C.3       8 UNK         0.0238 
     51 CB         22.9686  -34.3556  -40.9580 C.3       8 UNK        -0.1912 
     52 C          21.5763  -32.9755  -39.3482 C.2       8 UNK         0.5038 
     53 O          20.7343  -33.4782  -38.6025 O.2       8 UNK        -0.5046 
     54 N          21.3858  -31.8428  -40.0289 N.am      9 UNK        -0.4200 
     55 CA         20.1638  -31.0314  -40.0306 C.3       9 UNK         0.0839 
     56 C          19.9229  -30.2979  -38.6835 C.2       9 UNK         0.5513 
     57 N          18.6732  -29.9847  -38.3688 N.am      9 UNK        -0.7519 
     58 O          20.8489  -29.9813  -37.9395 O.2       9 UNK        -0.4960 
     59 C59        20.1359  -30.0358  -41.2222 C.3       10 UNK        -0.0876 
     60 S60        20.4343  -30.8299  -42.8415 S.3       10 UNK        -0.2414 
     61 C61        18.8207  -31.6040  -43.1856 C.3       10 UNK         0.0169 
     62 H62        15.4712  -23.1333  -40.3623 H         1 UNK         0.0903 
     63 H63        14.6602  -22.1661  -41.5972 H         1 UNK         0.0903 
     64 H64        14.0536  -23.7738  -41.1955 H         1 UNK         0.0903 
     65 H65        14.6268  -25.3375  -42.7035 H         1 UNK         0.3096 
     66 H66        16.7129  -24.9024  -44.6583 H         1 UNK         0.1121 
     67 H67        14.6519  -25.9975  -45.3687 H         1 UNK         0.0849 
     68 H68        15.9900  -27.0812  -45.5702 H         1 UNK         0.0849 
     69 H69        14.0364  -30.1209  -44.3353 H         1 UNK         0.0865 
     70 H70        14.0785  -29.1470  -45.7775 H         1 UNK         0.0865 
     71 H71        16.3501  -30.4192  -43.0386 H         1 UNK         0.1346 
     72 H72        19.5292  -31.2833  -45.7847 H         1 UNK         0.1412 
     73 H73        15.9899  -29.2964  -47.1610 H         1 UNK         0.1426 
     74 H74        17.5470  -30.2544  -48.7502 H         1 UNK         0.0716 
     75 H75        18.9619  -31.1291  -48.2423 H         1 UNK         0.0716 
     76 H76        20.9469  -30.2506  -47.3078 H         1 UNK         0.0695 
     77 H77        21.6739  -29.3064  -48.5754 H         1 UNK         0.0695 
     78 H78        21.6577  -27.2808  -47.1551 H         1 UNK         0.0983 
     79 H79        19.8378  -28.6566  -45.4889 H         1 UNK         0.3095 
     80 H80        19.5347  -28.1129  -43.1943 H         1 UNK         0.0454 
     81 H81        21.3074  -26.8459  -41.8788 H         1 UNK         0.0851 
     82 H82        20.5444  -25.3341  -42.3484 H         1 UNK         0.0851 
     83 H83        19.6873  -26.4899  -41.3307 H         1 UNK         0.0851 
     84 H84        18.6915  -25.9664  -44.8368 H         1 UNK         0.2976 
     85 H85        22.2501  -29.7235  -44.6795 H         1 UNK         0.3116 
     86 H86        25.1358  -29.9155  -45.3310 H         1 UNK         0.0646 
     87 H87        23.3625  -31.3968  -43.3315 H         1 UNK         0.0847 
     88 H88        25.0849  -31.6759  -43.5332 H         1 UNK         0.0847 
     89 H89        23.9828  -32.0199  -44.8550 H         1 UNK         0.0847 
     90 H90        23.3996  -27.5964  -43.8936 H         1 UNK         0.3040 
     91 H91        23.6922  -25.9750  -42.4400 H         1 UNK         0.1015 
     92 H92        25.7704  -25.5953  -43.7273 H         1 UNK         0.0786 
     93 H93        26.6813  -26.6499  -42.6579 H         1 UNK         0.0786 
     94 H94        26.0030  -25.1371  -42.0541 H         1 UNK         0.0786 
     95 H95        26.3726  -26.7491  -40.5888 H         1 UNK         0.3172 
     96 H96        24.7924  -27.1233  -38.2089 H         1 UNK         0.0595 
     97 H97        26.9020  -25.8089  -38.2150 H         1 UNK         0.0839 
     98 H98        27.8254  -27.2487  -38.6500 H         1 UNK         0.0839 
     99 H99        27.0218  -27.1501  -37.0903 H         1 UNK         0.0839 
    100 H100       26.0564  -29.4024  -40.4966 H         1 UNK         0.2998 
    101 H101       26.1890  -31.6365  -38.5414 H         1 UNK         0.0822 
    102 H102       26.8137  -31.5124  -41.5443 H         1 UNK         0.0787 
    103 H103       28.0068  -31.4673  -40.2471 H         1 UNK         0.0787 
    104 H104       27.0401  -32.9118  -40.5046 H         1 UNK         0.0787 
    105 H105       24.7198  -33.2661  -38.5723 H         1 UNK         0.3055 
    106 H106       22.9439  -34.5114  -38.8284 H         1 UNK         0.1106 
    107 H107       23.8621  -34.9682  -41.0774 H         1 UNK         0.0828 
    108 H108       22.1070  -35.0059  -41.1155 H         1 UNK         0.0828 
    109 H109       22.9631  -33.6140  -41.7578 H         1 UNK         0.0828 
    110 H110       22.1763  -31.4804  -40.5583 H         1 UNK         0.2931 
    111 H111       19.3345  -31.7287  -40.1629 H         1 UNK         0.0412 
    112 H112       18.4943  -29.4972  -37.5046 H         1 UNK         0.3472 
    113 H113       17.9034  -30.2323  -38.9711 H         1 UNK         0.3472 
    114 H114       20.9024  -29.2702  -41.0844 H         1 UNK         0.0970 
    115 H115       19.1812  -29.5073  -41.2608 H         1 UNK         0.0970 
    116 H116       18.9965  -32.6343  -43.4976 H         1 UNK         0.0612 
    117 H117       18.2292  -31.6648  -42.2715 H         1 UNK         0.0612 
@<TRIPOS>BOND
     1    1    2 1    
     2    1   62 1    
     3    1   63 1    
     4    1   64 1    
     5    2    3 2    
     6    2    4 am   BACKBONE|DICT|INTERRES
     7    4    5 1    
     8    4   65 1    
     9    5    6 1    
    10    5   25 1    
    11    5   66 1    
    12    6    7 1    
    13    6   67 1    
    14    6   68 1    
    15    7    8 1    
    16    8    9 1    
    17    8   69 1    
    18    8   70 1    
    19    9   10 ar   
    20    9   14 ar   
    21   10   11 ar   
    22   10   71 1    
    23   11   12 ar   
    24   11   61 1    
    25   12   13 ar   
    26   12   72 1    
    27   13   14 ar   
    28   13   15 1    
    29   14   73 1    
    30   15   16 1    
    31   15   74 1    
    32   15   75 1    
    33   16   17 1    
    34   17   18 1    
    35   17   76 1    
    36   17   77 1    
    37   18   19 1    
    38   18   27 1    
    39   18   78 1    
    40   19   20 am   BACKBONE|DICT|INTERRES
    41   19   79 1    
    42   20   21 2    
    43   20   22 1    
    44   22   23 1    
    45   22   24 1    
    46   22   80 1    
    47   23   81 1    
    48   23   82 1    
    49   23   83 1    
    50   24   25 am   BACKBONE|DICT|INTERRES
    51   24   84 1    
    52   25   26 2    
    53   27   28 2    
    54   27   29 am   BACKBONE|DICT|INTERRES
    55   29   30 1    
    56   29   85 1    
    57   30   31 1    
    58   30   32 1    
    59   30   86 1    
    60   31   87 1    
    61   31   88 1    
    62   31   89 1    
    63   32   33 2    
    64   32   34 am   BACKBONE|DICT|INTERRES
    65   34   35 1    
    66   34   90 1    
    67   35   36 1    
    68   35   37 1    
    69   35   91 1    
    70   36   92 1    
    71   36   93 1    
    72   36   94 1    
    73   37   38 2    
    74   37   39 am   BACKBONE|DICT|INTERRES
    75   39   40 1    
    76   39   95 1    
    77   40   41 1    
    78   40   42 1    
    79   40   96 1    
    80   41   97 1    
    81   41   98 1    
    82   41   99 1    
    83   42   43 2    
    84   42   44 am   BACKBONE|DICT|INTERRES
    85   44   45 1    
    86   44  100 1    
    87   45   46 1    
    88   45   47 1    
    89   45  101 1    
    90   46  102 1    
    91   46  103 1    
    92   46  104 1    
    93   47   48 2    
    94   47   49 am   BACKBONE|DICT|INTERRES
    95   49   50 1    
    96   49  105 1    
    97   50   51 1    
    98   50   52 1    
    99   50  106 1    
   100   51  107 1    
   101   51  108 1    
   102   51  109 1    
   103   52   53 2    
   104   52   54 am   BACKBONE|DICT|INTERRES
   105   54   55 1    
   106   54  110 1    
   107   55   56 1    
   108   55   59 1    
   109   55  111 1    
   110   56   57 am   BACKBONE|DICT|INTERRES
   111   56   58 2    
   112   57  112 1    
   113   57  113 1    
   114   59   60 1    
   115   59  114 1    
   116   59  115 1    
   117   60   61 1    
   118   61  116 1    
   119   61  117 1    
@<TRIPOS>SUBSTRUCTURE
     1 UNK         1 GROUP             0       ****    0 ROOT    
