@<TRIPOS>MOLECULE
3R8
117   119    1
SMALL
USER_CHARGES


@<TRIPOS>ATOM
      1 CA         17.2571  -25.3241  -49.7275 C.3       0 UNK        -0.2013 
      2 C          18.3897  -24.9098  -48.7999 C.2       0 UNK         0.4866 
      3 O          18.6541  -23.7162  -48.6503 O.2       0 UNK        -0.5176 
      4 N          19.0665  -25.8858  -48.1832 N.am      1 UNK        -0.4884 
      5 CA         20.1296  -25.6760  -47.1956 C.3       1 UNK         0.0853 
      6 C6         21.0260  -26.9352  -47.0526 C.3       10 UNK        -0.0849 
      7 S7         20.1192  -28.4579  -46.6003 S.3       10 UNK        -0.2776 
      8 C8         20.5934  -28.6135  -44.8538 C.3       10 UNK         0.0316 
      9 C9         19.6344  -29.5135  -44.0942 C.ar      10 UNK        -0.0863 
     10 C10        19.9585  -30.8508  -43.8475 C.ar      10 UNK        -0.1009 
     11 C11        19.1018  -31.6591  -43.0947 C.ar      10 UNK        -0.0712 
     12 C12        17.9187  -31.1184  -42.5824 C.ar      10 UNK        -0.0894 
     13 C13        17.5781  -29.7858  -42.8339 C.ar      10 UNK        -0.0745 
     14 C14        18.4323  -28.9933  -43.6058 C.ar      10 UNK        -0.0972 
     15 C15        16.2877  -29.2105  -42.2682 C.3       10 UNK         0.0209 
     16 S16        16.5555  -28.4371  -40.6385 S.3       10 UNK        -0.2568 
     17 C17        16.9607  -26.7145  -41.0848 C.3       10 UNK        -0.0983 
     18 CA         18.4831  -26.4441  -41.1997 C.3       3 UNK         0.0876 
     19 N          18.7499  -25.3858  -42.1841 N.am      3 UNK        -0.4424 
     20 C          19.9474  -25.1132  -42.7136 C.2       2 UNK         0.4918 
     21 O          20.9817  -25.7060  -42.4060 O.2       2 UNK        -0.4875 
     22 CA         20.0096  -23.9707  -43.7379 C.3       2 UNK         0.0481 
     23 CB         21.0301  -22.9052  -43.3033 C.3       2 UNK        -0.1831 
     24 N          20.3647  -24.4738  -45.0655 N.am      2 UNK        -0.4498 
     25 C          19.5519  -25.2055  -45.8407 C.2       1 UNK         0.5027 
     26 O          18.4024  -25.5175  -45.5151 O.2       1 UNK        -0.4969 
     27 C          19.1488  -26.1857  -39.8286 C.2       3 UNK         0.5005 
     28 O          19.4277  -27.1380  -39.0996 O.2       3 UNK        -0.5279 
     29 N          19.4370  -24.9117  -39.5191 N.am      4 UNK        -0.4463 
     30 CA         20.2205  -24.4960  -38.3522 C.3       4 UNK         0.0283 
     31 CB         20.1096  -22.9728  -38.1780 C.3       4 UNK        -0.1875 
     32 C          21.6991  -24.9216  -38.4372 C.2       4 UNK         0.4949 
     33 O          22.3036  -25.1980  -37.4010 O.2       4 UNK        -0.5039 
     34 N          22.2500  -24.9696  -39.6587 N.am      5 UNK        -0.4663 
     35 CA         23.6003  -25.4639  -39.9358 C.3       5 UNK         0.0242 
     36 CB         24.1782  -24.7248  -41.1544 C.3       5 UNK        -0.1982 
     37 C          23.5984  -26.9822  -40.1727 C.2       5 UNK         0.5017 
     38 O          24.4912  -27.6689  -39.6740 O.2       5 UNK        -0.5012 
     39 N          22.5894  -27.4631  -40.9161 N.am      6 UNK        -0.4439 
     40 CA         22.3712  -28.8430  -41.3621 C.3       6 UNK         0.0297 
     41 CB         22.2012  -29.7933  -40.1567 C.3       6 UNK        -0.2006 
     42 C          23.4438  -29.3136  -42.3670 C.2       6 UNK         0.4892 
     43 O          24.2142  -28.4989  -42.8812 O.2       6 UNK        -0.5089 
     44 N          23.4523  -30.6176  -42.6651 N.am      7 UNK        -0.4243 
     45 CA         24.4017  -31.2578  -43.5773 C.3       7 UNK         0.0196 
     46 CB         23.9259  -31.1159  -45.0382 C.3       7 UNK        -0.2007 
     47 C          24.6155  -32.7146  -43.1471 C.2       7 UNK         0.5020 
     48 O          24.4543  -33.6279  -43.9579 O.2       7 UNK        -0.5147 
     49 N          24.9177  -32.9082  -41.8539 N.am      8 UNK        -0.4734 
     50 CA         25.1085  -34.1759  -41.1236 C.3       8 UNK         0.0238 
     51 CB         26.2634  -35.0081  -41.7156 C.3       8 UNK        -0.1912 
     52 C          23.8322  -35.0260  -40.9710 C.2       8 UNK         0.5038 
     53 O          23.5835  -35.5411  -39.8805 O.2       8 UNK        -0.5046 
     54 N          23.0446  -35.1299  -42.0470 N.am      9 UNK        -0.4200 
     55 CA         21.7204  -35.7674  -42.1278 C.3       9 UNK         0.0839 
     56 C          21.7290  -37.3189  -41.9793 C.2       9 UNK         0.5513 
     57 N          22.8661  -37.9895  -42.1207 N.am      9 UNK        -0.7519 
     58 O          20.6858  -37.9313  -41.7646 O.2       9 UNK        -0.4960 
     59 C59        20.6555  -35.0826  -41.2211 C.3       10 UNK        -0.0876 
     60 S60        20.5825  -33.2675  -41.4190 S.3       10 UNK        -0.2414 
     61 C61        19.4525  -33.1150  -42.8322 C.3       10 UNK         0.0169 
     62 H62        17.4452  -24.9583  -50.7366 H         1 UNK         0.0903 
     63 H63        17.1446  -26.4072  -49.7751 H         1 UNK         0.0903 
     64 H64        16.3149  -24.9004  -49.3810 H         1 UNK         0.0903 
     65 H65        18.7853  -26.8488  -48.3063 H         1 UNK         0.3096 
     66 H66        20.7623  -24.8671  -47.5691 H         1 UNK         0.1121 
     67 H67        21.5246  -27.1260  -48.0044 H         1 UNK         0.0849 
     68 H68        21.8347  -26.7559  -46.3413 H         1 UNK         0.0849 
     69 H69        21.6128  -28.9960  -44.7932 H         1 UNK         0.0865 
     70 H70        20.6088  -27.6312  -44.3808 H         1 UNK         0.0865 
     71 H71        20.8806  -31.2627  -44.2314 H         1 UNK         0.1346 
     72 H72        17.2615  -31.7364  -41.9857 H         1 UNK         0.1412 
     73 H73        18.1737  -27.9624  -43.8095 H         1 UNK         0.1426 
     74 H74        15.5511  -30.0073  -42.1539 H         1 UNK         0.0716 
     75 H75        15.8473  -28.4981  -42.9670 H         1 UNK         0.0716 
     76 H76        16.4979  -26.0463  -40.3558 H         1 UNK         0.0695 
     77 H77        16.4620  -26.4926  -42.0295 H         1 UNK         0.0695 
     78 H78        18.9662  -27.3444  -41.5812 H         1 UNK         0.0983 
     79 H79        17.9492  -24.8595  -42.5044 H         1 UNK         0.3095 
     80 H80        19.0302  -23.4913  -43.8001 H         1 UNK         0.0454 
     81 H81        21.0352  -22.0587  -43.9900 H         1 UNK         0.0851 
     82 H82        22.0439  -23.3051  -43.2594 H         1 UNK         0.0851 
     83 H83        20.7917  -22.5142  -42.3134 H         1 UNK         0.0851 
     84 H84        21.3048  -24.2812  -45.3805 H         1 UNK         0.2976 
     85 H85        19.1486  -24.1868  -40.1598 H         1 UNK         0.3116 
     86 H86        19.7894  -24.9725  -37.4689 H         1 UNK         0.0646 
     87 H87        20.6641  -22.6408  -37.2990 H         1 UNK         0.0847 
     88 H88        19.0738  -22.6621  -38.0402 H         1 UNK         0.0847 
     89 H89        20.5119  -22.4349  -39.0374 H         1 UNK         0.0847 
     90 H90        21.6707  -24.7641  -40.4605 H         1 UNK         0.3040 
     91 H91        24.2471  -25.2585  -39.0794 H         1 UNK         0.1015 
     92 H92        24.2068  -23.6477  -40.9890 H         1 UNK         0.0786 
     93 H93        23.5971  -24.9114  -42.0581 H         1 UNK         0.0786 
     94 H94        25.2000  -25.0498  -41.3549 H         1 UNK         0.0786 
     95 H95        21.9715  -26.7803  -41.3501 H         1 UNK         0.3172 
     96 H96        21.4251  -28.8259  -41.9037 H         1 UNK         0.0595 
     97 H97        23.1460  -29.9784  -39.6447 H         1 UNK         0.0839 
     98 H98        21.7995  -30.7581  -40.4626 H         1 UNK         0.0839 
     99 H99        21.5025  -29.3807  -39.4283 H         1 UNK         0.0839 
    100 H100       22.7895  -31.2325  -42.2112 H         1 UNK         0.2998 
    101 H101       25.3737  -30.7674  -43.4871 H         1 UNK         0.0822 
    102 H102       22.9696  -31.6120  -45.2030 H         1 UNK         0.0787 
    103 H103       23.8175  -30.0696  -45.3236 H         1 UNK         0.0787 
    104 H104       24.6453  -31.5620  -45.7260 H         1 UNK         0.0787 
    105 H105       24.9989  -32.0796  -41.2796 H         1 UNK         0.3055 
    106 H106       25.4035  -33.8894  -40.1124 H         1 UNK         0.1106 
    107 H107       26.0444  -35.3588  -42.7244 H         1 UNK         0.0828 
    108 H108       27.1874  -34.4314  -41.7549 H         1 UNK         0.0828 
    109 H109       26.4589  -35.8899  -41.1038 H         1 UNK         0.0828 
    110 H110       23.3779  -34.6856  -42.8987 H         1 UNK         0.2931 
    111 H111       21.4033  -35.6022  -43.1579 H         1 UNK         0.0412 
    112 H112       23.7261  -37.4995  -42.3083 H         1 UNK         0.3472 
    113 H113       22.8632  -38.9940  -42.0342 H         1 UNK         0.3472 
    114 H114       19.6636  -35.4949  -41.4140 H         1 UNK         0.0970 
    115 H115       20.8644  -35.2964  -40.1717 H         1 UNK         0.0970 
    116 H116       19.9180  -33.5519  -43.7170 H         1 UNK         0.0612 
    117 H117       18.5463  -33.6914  -42.6397 H         1 UNK         0.0612 
@<TRIPOS>BOND
     1    1    2 1    
     2    1   62 1    
     3    1   63 1    
     4    1   64 1    
     5    2    3 2    
     6    2    4 am   BACKBONE|DICT|INTERRES
     7    4    5 1    
     8    4   65 1    
     9    5    6 1    
    10    5   25 1    
    11    5   66 1    
    12    6    7 1    
    13    6   67 1    
    14    6   68 1    
    15    7    8 1    
    16    8    9 1    
    17    8   69 1    
    18    8   70 1    
    19    9   10 ar   
    20    9   14 ar   
    21   10   11 ar   
    22   10   71 1    
    23   11   12 ar   
    24   11   61 1    
    25   12   13 ar   
    26   12   72 1    
    27   13   14 ar   
    28   13   15 1    
    29   14   73 1    
    30   15   16 1    
    31   15   74 1    
    32   15   75 1    
    33   16   17 1    
    34   17   18 1    
    35   17   76 1    
    36   17   77 1    
    37   18   19 1    
    38   18   27 1    
    39   18   78 1    
    40   19   20 am   BACKBONE|DICT|INTERRES
    41   19   79 1    
    42   20   21 2    
    43   20   22 1    
    44   22   23 1    
    45   22   24 1    
    46   22   80 1    
    47   23   81 1    
    48   23   82 1    
    49   23   83 1    
    50   24   25 am   BACKBONE|DICT|INTERRES
    51   24   84 1    
    52   25   26 2    
    53   27   28 2    
    54   27   29 am   BACKBONE|DICT|INTERRES
    55   29   30 1    
    56   29   85 1    
    57   30   31 1    
    58   30   32 1    
    59   30   86 1    
    60   31   87 1    
    61   31   88 1    
    62   31   89 1    
    63   32   33 2    
    64   32   34 am   BACKBONE|DICT|INTERRES
    65   34   35 1    
    66   34   90 1    
    67   35   36 1    
    68   35   37 1    
    69   35   91 1    
    70   36   92 1    
    71   36   93 1    
    72   36   94 1    
    73   37   38 2    
    74   37   39 am   BACKBONE|DICT|INTERRES
    75   39   40 1    
    76   39   95 1    
    77   40   41 1    
    78   40   42 1    
    79   40   96 1    
    80   41   97 1    
    81   41   98 1    
    82   41   99 1    
    83   42   43 2    
    84   42   44 am   BACKBONE|DICT|INTERRES
    85   44   45 1    
    86   44  100 1    
    87   45   46 1    
    88   45   47 1    
    89   45  101 1    
    90   46  102 1    
    91   46  103 1    
    92   46  104 1    
    93   47   48 2    
    94   47   49 am   BACKBONE|DICT|INTERRES
    95   49   50 1    
    96   49  105 1    
    97   50   51 1    
    98   50   52 1    
    99   50  106 1    
   100   51  107 1    
   101   51  108 1    
   102   51  109 1    
   103   52   53 2    
   104   52   54 am   BACKBONE|DICT|INTERRES
   105   54   55 1    
   106   54  110 1    
   107   55   56 1    
   108   55   59 1    
   109   55  111 1    
   110   56   57 am   BACKBONE|DICT|INTERRES
   111   56   58 2    
   112   57  112 1    
   113   57  113 1    
   114   59   60 1    
   115   59  114 1    
   116   59  115 1    
   117   60   61 1    
   118   61  116 1    
   119   61  117 1    
@<TRIPOS>SUBSTRUCTURE
     1 UNK         1 GROUP             0       ****    0 ROOT    
