@<TRIPOS>MOLECULE
3R8
117   119    1
SMALL
USER_CHARGES


@<TRIPOS>ATOM
      1 CA         16.6228  -23.4371  -47.7648 C.3       0 UNK        -0.2013 
      2 C          16.7746  -24.9093  -47.4125 C.2       0 UNK         0.4866 
      3 O          17.2860  -25.6842  -48.2212 O.2       0 UNK        -0.5176 
      4 N          16.3368  -25.3020  -46.2126 N.am      1 UNK        -0.4884 
      5 CA         16.4436  -26.6566  -45.6763 C.3       1 UNK         0.0853 
      6 C6         15.3468  -27.5940  -46.2480 C.3       10 UNK        -0.0849 
      7 S7         15.5843  -29.3753  -45.9160 S.3       10 UNK        -0.2776 
      8 C8         17.1002  -29.7718  -46.8496 C.3       10 UNK         0.0316 
      9 C9         18.3416  -29.7241  -45.9658 C.ar      10 UNK        -0.0863 
     10 C10        18.5063  -30.6616  -44.9418 C.ar      10 UNK        -0.1009 
     11 C11        19.6536  -30.6521  -44.1434 C.ar      10 UNK        -0.0712 
     12 C12        20.6395  -29.6855  -44.3644 C.ar      10 UNK        -0.0894 
     13 C13        20.4808  -28.7347  -45.3769 C.ar      10 UNK        -0.0745 
     14 C14        19.3409  -28.7711  -46.1853 C.ar      10 UNK        -0.0972 
     15 C15        21.5460  -27.6771  -45.6209 C.3       10 UNK         0.0209 
     16 S16        21.1171  -26.0978  -44.8213 S.3       10 UNK        -0.2568 
     17 C17        21.6745  -26.3854  -43.1080 C.3       10 UNK        -0.0983 
     18 CA         20.5866  -26.0696  -42.0534 C.3       3 UNK         0.0876 
     19 N          19.4066  -26.9168  -42.2425 N.am      3 UNK        -0.4424 
     20 C          18.2458  -26.8095  -41.5840 C.2       2 UNK         0.4918 
     21 O          18.0168  -25.9709  -40.7101 O.2       2 UNK        -0.4875 
     22 CA         17.1443  -27.7816  -42.0446 C.3       2 UNK         0.0481 
     23 CB         15.8377  -27.6594  -41.2326 C.3       2 UNK        -0.1831 
     24 N          16.8946  -27.6523  -43.4849 N.am      2 UNK        -0.4498 
     25 C          16.4581  -26.5657  -44.1401 C.2       1 UNK         0.5027 
     26 O          16.0990  -25.5188  -43.5919 O.2       1 UNK        -0.4969 
     27 C          21.1792  -26.1839  -40.6318 C.2       3 UNK         0.5005 
     28 O          20.9898  -27.1973  -39.9552 O.2       3 UNK        -0.5279 
     29 N          21.9307  -25.1535  -40.2189 N.am      4 UNK        -0.4463 
     30 CA         22.6304  -25.0987  -38.9290 C.3       4 UNK         0.0283 
     31 CB         23.1067  -23.6593  -38.6743 C.3       4 UNK        -0.1875 
     32 C          23.8132  -26.0809  -38.8162 C.2       4 UNK         0.4949 
     33 O          24.2162  -26.4105  -37.7004 O.2       4 UNK        -0.5039 
     34 N          24.3421  -26.5356  -39.9566 N.am      5 UNK        -0.4663 
     35 CA         25.4180  -27.5132  -40.0771 C.3       5 UNK         0.0242 
     36 CB         26.7788  -26.8045  -39.9303 C.3       5 UNK        -0.1982 
     37 C          25.2949  -28.2163  -41.4361 C.2       5 UNK         0.5017 
     38 O          24.5461  -27.7452  -42.2958 O.2       5 UNK        -0.5012 
     39 N          26.0724  -29.2950  -41.6008 N.am      6 UNK        -0.4439 
     40 CA         26.1934  -30.1701  -42.7746 C.3       6 UNK         0.0297 
     41 CB         26.4476  -29.3745  -44.0733 C.3       6 UNK        -0.2006 
     42 C          25.0218  -31.1552  -42.9354 C.2       6 UNK         0.4892 
     43 O          23.9198  -30.9297  -42.4269 O.2       6 UNK        -0.5089 
     44 N          25.3137  -32.2528  -43.6500 N.am      7 UNK        -0.4243 
     45 CA         24.4479  -33.4122  -43.8876 C.3       7 UNK         0.0196 
     46 CB         23.2957  -33.0396  -44.8502 C.3       7 UNK        -0.2007 
     47 C          24.0040  -34.0575  -42.5587 C.2       7 UNK         0.5020 
     48 O          24.8467  -34.2773  -41.6869 O.2       7 UNK        -0.5147 
     49 N          22.7055  -34.3421  -42.4154 N.am      8 UNK        -0.4734 
     50 CA         22.0979  -34.8672  -41.1882 C.3       8 UNK         0.0238 
     51 CB         20.8652  -35.7025  -41.5779 C.3       8 UNK        -0.1912 
     52 C          21.7078  -33.7666  -40.1795 C.2       8 UNK         0.5038 
     53 O          21.1823  -34.1003  -39.1160 O.2       8 UNK        -0.5046 
     54 N          21.9222  -32.4943  -40.5361 N.am      9 UNK        -0.4200 
     55 CA         21.4674  -31.3085  -39.7995 C.3       9 UNK         0.0839 
     56 C          22.6541  -30.6092  -39.0747 C.2       9 UNK         0.5513 
     57 N          22.5610  -29.3214  -38.7739 N.am      9 UNK        -0.7519 
     58 O          23.6512  -31.2367  -38.7222 O.2       9 UNK        -0.4960 
     59 C59        20.6305  -30.3706  -40.7162 C.3       10 UNK        -0.0876 
     60 S60        19.1825  -31.1990  -41.4613 S.3       10 UNK        -0.2414 
     61 C61        19.8379  -31.7178  -43.0754 C.3       10 UNK         0.0169 
     62 H62        16.1499  -22.8723  -46.9614 H         1 UNK         0.0903 
     63 H63        17.5996  -22.9958  -47.9605 H         1 UNK         0.0903 
     64 H64        16.0129  -23.3270  -48.6610 H         1 UNK         0.0903 
     65 H65        15.9724  -24.6322  -45.5443 H         1 UNK         0.3096 
     66 H66        17.4223  -27.0254  -45.9701 H         1 UNK         0.1121 
     67 H67        14.3664  -27.3013  -45.8675 H         1 UNK         0.0849 
     68 H68        15.2845  -27.4771  -47.3311 H         1 UNK         0.0849 
     69 H69        17.0031  -30.7777  -47.2610 H         1 UNK         0.0865 
     70 H70        17.1974  -29.1037  -47.7072 H         1 UNK         0.0865 
     71 H71        17.7433  -31.4104  -44.7754 H         1 UNK         0.1346 
     72 H72        21.5371  -29.6826  -43.7608 H         1 UNK         0.1412 
     73 H73        19.2346  -28.0499  -46.9852 H         1 UNK         0.1426 
     74 H74        21.6500  -27.5078  -46.6937 H         1 UNK         0.0716 
     75 H75        22.5230  -28.0187  -45.2741 H         1 UNK         0.0716 
     76 H76        22.5585  -25.7637  -42.9544 H         1 UNK         0.0695 
     77 H77        22.0113  -27.4174  -42.9983 H         1 UNK         0.0695 
     78 H78        20.2592  -25.0365  -42.1886 H         1 UNK         0.0983 
     79 H79        19.4921  -27.6268  -42.9545 H         1 UNK         0.3095 
     80 H80        17.5306  -28.7889  -41.8896 H         1 UNK         0.0454 
     81 H81        16.0198  -27.8599  -40.1762 H         1 UNK         0.0851 
     82 H82        15.4027  -26.6621  -41.3008 H         1 UNK         0.0851 
     83 H83        15.0908  -28.3756  -41.5745 H         1 UNK         0.0851 
     84 H84        17.1297  -28.4663  -44.0395 H         1 UNK         0.2976 
     85 H85        22.0497  -24.3574  -40.8297 H         1 UNK         0.3116 
     86 H86        21.9150  -25.3634  -38.1474 H         1 UNK         0.0646 
     87 H87        23.6023  -23.5784  -37.7057 H         1 UNK         0.0847 
     88 H88        22.2717  -22.9585  -38.6665 H         1 UNK         0.0847 
     89 H89        23.8188  -23.3286  -39.4314 H         1 UNK         0.0847 
     90 H90        23.9186  -26.2821  -40.8403 H         1 UNK         0.3040 
     91 H91        25.3084  -28.2680  -39.2953 H         1 UNK         0.1015 
     92 H92        26.8663  -26.3080  -38.9637 H         1 UNK         0.0786 
     93 H93        26.9236  -26.0517  -40.7063 H         1 UNK         0.0786 
     94 H94        27.6060  -27.5115  -40.0023 H         1 UNK         0.0786 
     95 H95        26.6223  -29.5891  -40.8057 H         1 UNK         0.3172 
     96 H96        27.0849  -30.7691  -42.5813 H         1 UNK         0.0595 
     97 H97        27.2509  -28.6488  -43.9463 H         1 UNK         0.0839 
     98 H98        25.5580  -28.8378  -44.4046 H         1 UNK         0.0839 
     99 H99        26.7387  -30.0379  -44.8884 H         1 UNK         0.0839 
    100 H100       26.2580  -32.3480  -43.9972 H         1 UNK         0.2998 
    101 H101       25.0640  -34.1607  -44.3883 H         1 UNK         0.0822 
    102 H102       23.6895  -32.6517  -45.7898 H         1 UNK         0.0787 
    103 H103       22.6839  -33.9064  -45.1027 H         1 UNK         0.0787 
    104 H104       22.6431  -32.2721  -44.4361 H         1 UNK         0.0787 
    105 H105       22.0807  -34.1381  -43.1820 H         1 UNK         0.3055 
    106 H106       22.8099  -35.5250  -40.6841 H         1 UNK         0.1106 
    107 H107       20.0978  -35.0915  -42.0551 H         1 UNK         0.0828 
    108 H108       21.1305  -36.5074  -42.2635 H         1 UNK         0.0828 
    109 H109       20.4117  -36.1663  -40.7007 H         1 UNK         0.0828 
    110 H110       22.4617  -32.3009  -41.3699 H         1 UNK         0.2931 
    111 H111       20.8043  -31.6260  -38.9931 H         1 UNK         0.0412 
    112 H112       23.3109  -28.8885  -38.2597 H         1 UNK         0.3472 
    113 H113       21.7954  -28.7427  -39.1069 H         1 UNK         0.3472 
    114 H114       21.2551  -29.9165  -41.4861 H         1 UNK         0.0970 
    115 H115       20.2212  -29.5513  -40.1278 H         1 UNK         0.0970 
    116 H116       20.8909  -31.9767  -42.9826 H         1 UNK         0.0612 
    117 H117       19.3286  -32.6344  -43.3765 H         1 UNK         0.0612 
@<TRIPOS>BOND
     1    1    2 1    
     2    1   62 1    
     3    1   63 1    
     4    1   64 1    
     5    2    3 2    
     6    2    4 am   BACKBONE|DICT|INTERRES
     7    4    5 1    
     8    4   65 1    
     9    5    6 1    
    10    5   25 1    
    11    5   66 1    
    12    6    7 1    
    13    6   67 1    
    14    6   68 1    
    15    7    8 1    
    16    8    9 1    
    17    8   69 1    
    18    8   70 1    
    19    9   10 ar   
    20    9   14 ar   
    21   10   11 ar   
    22   10   71 1    
    23   11   12 ar   
    24   11   61 1    
    25   12   13 ar   
    26   12   72 1    
    27   13   14 ar   
    28   13   15 1    
    29   14   73 1    
    30   15   16 1    
    31   15   74 1    
    32   15   75 1    
    33   16   17 1    
    34   17   18 1    
    35   17   76 1    
    36   17   77 1    
    37   18   19 1    
    38   18   27 1    
    39   18   78 1    
    40   19   20 am   BACKBONE|DICT|INTERRES
    41   19   79 1    
    42   20   21 2    
    43   20   22 1    
    44   22   23 1    
    45   22   24 1    
    46   22   80 1    
    47   23   81 1    
    48   23   82 1    
    49   23   83 1    
    50   24   25 am   BACKBONE|DICT|INTERRES
    51   24   84 1    
    52   25   26 2    
    53   27   28 2    
    54   27   29 am   BACKBONE|DICT|INTERRES
    55   29   30 1    
    56   29   85 1    
    57   30   31 1    
    58   30   32 1    
    59   30   86 1    
    60   31   87 1    
    61   31   88 1    
    62   31   89 1    
    63   32   33 2    
    64   32   34 am   BACKBONE|DICT|INTERRES
    65   34   35 1    
    66   34   90 1    
    67   35   36 1    
    68   35   37 1    
    69   35   91 1    
    70   36   92 1    
    71   36   93 1    
    72   36   94 1    
    73   37   38 2    
    74   37   39 am   BACKBONE|DICT|INTERRES
    75   39   40 1    
    76   39   95 1    
    77   40   41 1    
    78   40   42 1    
    79   40   96 1    
    80   41   97 1    
    81   41   98 1    
    82   41   99 1    
    83   42   43 2    
    84   42   44 am   BACKBONE|DICT|INTERRES
    85   44   45 1    
    86   44  100 1    
    87   45   46 1    
    88   45   47 1    
    89   45  101 1    
    90   46  102 1    
    91   46  103 1    
    92   46  104 1    
    93   47   48 2    
    94   47   49 am   BACKBONE|DICT|INTERRES
    95   49   50 1    
    96   49  105 1    
    97   50   51 1    
    98   50   52 1    
    99   50  106 1    
   100   51  107 1    
   101   51  108 1    
   102   51  109 1    
   103   52   53 2    
   104   52   54 am   BACKBONE|DICT|INTERRES
   105   54   55 1    
   106   54  110 1    
   107   55   56 1    
   108   55   59 1    
   109   55  111 1    
   110   56   57 am   BACKBONE|DICT|INTERRES
   111   56   58 2    
   112   57  112 1    
   113   57  113 1    
   114   59   60 1    
   115   59  114 1    
   116   59  115 1    
   117   60   61 1    
   118   61  116 1    
   119   61  117 1    
@<TRIPOS>SUBSTRUCTURE
     1 UNK         1 GROUP             0       ****    0 ROOT    
