@<TRIPOS>MOLECULE
3R8
117   119    1
SMALL
USER_CHARGES


@<TRIPOS>ATOM
      1 CA         15.0917  -22.8024  -45.6090 C.3       0 UNK        -0.2013 
      2 C          15.8576  -24.0907  -45.3499 C.2       0 UNK         0.4866 
      3 O          16.2193  -24.7916  -46.2964 O.2       0 UNK        -0.5176 
      4 N          16.1128  -24.4136  -44.0750 N.am      1 UNK        -0.4884 
      5 CA         16.8656  -25.5940  -43.6436 C.3       1 UNK         0.0853 
      6 C6         16.4660  -26.0180  -42.2046 C.3       10 UNK        -0.0849 
      7 S7         17.0780  -27.6754  -41.7386 S.3       10 UNK        -0.2776 
      8 C8         15.8837  -28.7655  -42.5873 C.3       10 UNK         0.0316 
      9 C9         16.5912  -29.8483  -43.3930 C.ar      10 UNK        -0.0863 
     10 C10        16.3131  -31.2011  -43.1713 C.ar      10 UNK        -0.1009 
     11 C11        16.9642  -32.1961  -43.9105 C.ar      10 UNK        -0.0712 
     12 C12        17.9098  -31.8228  -44.8739 C.ar      10 UNK        -0.0894 
     13 C13        18.2123  -30.4761  -45.0872 C.ar      10 UNK        -0.0745 
     14 C14        17.5278  -29.4957  -44.3675 C.ar      10 UNK        -0.0972 
     15 C15        19.3083  -30.0734  -46.0614 C.3       10 UNK         0.0209 
     16 S16        20.9775  -30.4518  -45.4247 S.3       10 UNK        -0.2568 
     17 C17        20.9898  -29.7491  -43.7371 C.3       10 UNK        -0.0983 
     18 CA         21.6133  -28.3363  -43.6619 C.3       3 UNK         0.0876 
     19 N          20.8265  -27.3440  -44.3962 N.am      3 UNK        -0.4424 
     20 C          21.2703  -26.1409  -44.7830 C.2       2 UNK         0.4918 
     21 O          22.4151  -25.7368  -44.5784 O.2       2 UNK        -0.4875 
     22 CA         20.2509  -25.2176  -45.4778 C.3       2 UNK         0.0481 
     23 CB         20.3651  -25.3542  -47.0038 C.3       2 UNK        -0.1831 
     24 N          18.8548  -25.4398  -45.0756 N.am      2 UNK        -0.4498 
     25 C          18.3798  -25.3501  -43.8244 C.2       1 UNK         0.5027 
     26 O          19.0853  -25.0786  -42.8528 O.2       1 UNK        -0.4969 
     27 C          21.8788  -27.9443  -42.1905 C.2       3 UNK         0.5005 
     28 O          22.7029  -28.6011  -41.5504 O.2       3 UNK        -0.5279 
     29 N          21.2302  -26.8879  -41.6690 N.am      4 UNK        -0.4463 
     30 CA         21.4726  -26.3484  -40.3237 C.3       4 UNK         0.0283 
     31 CB         20.4581  -25.2373  -40.0152 C.3       4 UNK        -0.1875 
     32 C          22.9112  -25.8399  -40.1064 C.2       4 UNK         0.4949 
     33 O          23.3544  -25.7616  -38.9602 O.2       4 UNK        -0.5039 
     34 N          23.6421  -25.5658  -41.1973 N.am      5 UNK        -0.4663 
     35 CA         25.0799  -25.2840  -41.2301 C.3       5 UNK         0.0242 
     36 CB         25.4137  -24.6050  -42.5715 C.3       5 UNK        -0.1982 
     37 C          25.9372  -26.5460  -40.9727 C.2       5 UNK         0.5017 
     38 O          26.8105  -26.8757  -41.7764 O.2       5 UNK        -0.5012 
     39 N          25.6640  -27.2242  -39.8496 N.am      6 UNK        -0.4439 
     40 CA         26.3661  -28.3793  -39.2765 C.3       6 UNK         0.0297 
     41 CB         27.8114  -27.9951  -38.8924 C.3       6 UNK        -0.2006 
     42 C          26.3156  -29.6859  -40.0980 C.2       6 UNK         0.4892 
     43 O          27.0537  -30.6150  -39.7641 O.2       6 UNK        -0.5089 
     44 N          25.4527  -29.7734  -41.1209 N.am      7 UNK        -0.4243 
     45 CA         25.2327  -31.0058  -41.8875 C.3       7 UNK         0.0196 
     46 CB         24.8726  -30.6703  -43.3424 C.3       7 UNK        -0.2007 
     47 C          24.1539  -31.8836  -41.2342 C.2       7 UNK         0.5020 
     48 O          24.3052  -33.1046  -41.2101 O.2       7 UNK        -0.5147 
     49 N          23.0963  -31.2465  -40.7067 N.am      8 UNK        -0.4734 
     50 CA         22.0091  -31.8215  -39.9001 C.3       8 UNK         0.0238 
     51 CB         22.5380  -32.1848  -38.4964 C.3       8 UNK        -0.1912 
     52 C          21.2644  -32.9942  -40.5734 C.2       8 UNK         0.5038 
     53 O          20.8764  -33.9458  -39.8930 O.2       8 UNK        -0.5046 
     54 N          21.0882  -32.9050  -41.8988 N.am      9 UNK        -0.4200 
     55 CA         20.5106  -33.9429  -42.7694 C.3       9 UNK         0.0839 
     56 C          21.4356  -35.1839  -42.9878 C.2       9 UNK         0.5513 
     57 N          22.7039  -35.1552  -42.5936 N.am      9 UNK        -0.7519 
     58 O          21.0132  -36.1887  -43.5531 O.2       9 UNK        -0.4960 
     59 C59        19.0516  -34.3186  -42.3644 C.3       10 UNK        -0.0876 
     60 S60        18.0159  -34.8171  -43.7844 S.3       10 UNK        -0.2414 
     61 C61        16.6070  -33.6616  -43.6702 C.3       10 UNK         0.0169 
     62 H62        14.1701  -23.0168  -46.1494 H         1 UNK         0.0903 
     63 H63        14.8306  -22.2893  -44.6836 H         1 UNK         0.0903 
     64 H64        15.6924  -22.1248  -46.2151 H         1 UNK         0.0903 
     65 H65        15.8207  -23.7861  -43.3383 H         1 UNK         0.3096 
     66 H66        16.5899  -26.4156  -44.3074 H         1 UNK         0.1121 
     67 H67        15.3794  -26.0206  -42.1021 H         1 UNK         0.0849 
     68 H68        16.8272  -25.2945  -41.4711 H         1 UNK         0.0849 
     69 H69        15.2224  -29.2050  -41.8390 H         1 UNK         0.0865 
     70 H70        15.2441  -28.1923  -43.2594 H         1 UNK         0.0865 
     71 H71        15.5818  -31.4815  -42.4253 H         1 UNK         0.1346 
     72 H72        18.4306  -32.5780  -45.4460 H         1 UNK         0.1412 
     73 H73        17.7521  -28.4542  -44.5383 H         1 UNK         0.1426 
     74 H74        19.2488  -29.0103  -46.2980 H         1 UNK         0.0716 
     75 H75        19.1643  -30.6008  -47.0054 H         1 UNK         0.0716 
     76 H76        21.5783  -30.4439  -43.1390 H         1 UNK         0.0695 
     77 H77        19.9967  -29.7606  -43.2897 H         1 UNK         0.0695 
     78 H78        22.5940  -28.3773  -44.1401 H         1 UNK         0.0983 
     79 H79        19.8728  -27.5919  -44.6026 H         1 UNK         0.3095 
     80 H80        20.5066  -24.1912  -45.2073 H         1 UNK         0.0454 
     81 H81        20.0921  -26.3545  -47.3422 H         1 UNK         0.0851 
     82 H82        19.7217  -24.6387  -47.5163 H         1 UNK         0.0851 
     83 H83        21.3863  -25.1648  -47.3378 H         1 UNK         0.0851 
     84 H84        18.1795  -25.5695  -45.8211 H         1 UNK         0.2976 
     85 H85        20.5540  -26.3865  -42.2365 H         1 UNK         0.3116 
     86 H86        21.3091  -27.1617  -39.6137 H         1 UNK         0.0646 
     87 H87        20.5825  -24.8657  -38.9972 H         1 UNK         0.0847 
     88 H88        19.4333  -25.5989  -40.1043 H         1 UNK         0.0847 
     89 H89        20.5745  -24.3873  -40.6885 H         1 UNK         0.0847 
     90 H90        23.1929  -25.6734  -42.0968 H         1 UNK         0.3040 
     91 H91        25.3112  -24.5759  -40.4311 H         1 UNK         0.1015 
     92 H92        24.8385  -23.6888  -42.7066 H         1 UNK         0.0786 
     93 H93        25.2023  -25.2600  -43.4181 H         1 UNK         0.0786 
     94 H94        26.4688  -24.3328  -42.6226 H         1 UNK         0.0786 
     95 H95        24.8920  -26.8629  -39.2938 H         1 UNK         0.3172 
     96 H96        25.8359  -28.6039  -38.3500 H         1 UNK         0.0595 
     97 H97        27.8337  -27.0973  -38.2747 H         1 UNK         0.0839 
     98 H98        28.4284  -27.8127  -39.7728 H         1 UNK         0.0839 
     99 H99        28.2924  -28.7887  -38.3193 H         1 UNK         0.0839 
    100 H100       24.8333  -28.9946  -41.3104 H         1 UNK         0.2998 
    101 H101       26.1567  -31.5880  -41.9118 H         1 UNK         0.0822 
    102 H102       25.6654  -30.0967  -43.8228 H         1 UNK         0.0787 
    103 H103       24.7280  -31.5794  -43.9278 H         1 UNK         0.0787 
    104 H104       23.9552  -30.0921  -43.4107 H         1 UNK         0.0787 
    105 H105       23.0370  -30.2398  -40.8590 H         1 UNK         0.3055 
    106 H106       21.2674  -31.0302  -39.7780 H         1 UNK         0.1106 
    107 H107       21.7265  -32.4950  -37.8368 H         1 UNK         0.0828 
    108 H108       23.2567  -33.0040  -38.5375 H         1 UNK         0.0828 
    109 H109       23.0277  -31.3330  -38.0245 H         1 UNK         0.0828 
    110 H110       21.4725  -32.1037  -42.3745 H         1 UNK         0.2931 
    111 H111       20.4636  -33.4578  -43.7453 H         1 UNK         0.0412 
    112 H112       23.2815  -35.9645  -42.7566 H         1 UNK         0.3472 
    113 H113       23.0955  -34.3530  -42.1104 H         1 UNK         0.3472 
    114 H114       19.0463  -35.1184  -41.6218 H         1 UNK         0.0970 
    115 H115       18.5712  -33.4680  -41.8786 H         1 UNK         0.0970 
    116 H116       16.1402  -33.7867  -42.6918 H         1 UNK         0.0612 
    117 H117       15.8599  -33.9565  -44.4079 H         1 UNK         0.0612 
@<TRIPOS>BOND
     1    1    2 1    
     2    1   62 1    
     3    1   63 1    
     4    1   64 1    
     5    2    3 2    
     6    2    4 am   BACKBONE|DICT|INTERRES
     7    4    5 1    
     8    4   65 1    
     9    5    6 1    
    10    5   25 1    
    11    5   66 1    
    12    6    7 1    
    13    6   67 1    
    14    6   68 1    
    15    7    8 1    
    16    8    9 1    
    17    8   69 1    
    18    8   70 1    
    19    9   10 ar   
    20    9   14 ar   
    21   10   11 ar   
    22   10   71 1    
    23   11   12 ar   
    24   11   61 1    
    25   12   13 ar   
    26   12   72 1    
    27   13   14 ar   
    28   13   15 1    
    29   14   73 1    
    30   15   16 1    
    31   15   74 1    
    32   15   75 1    
    33   16   17 1    
    34   17   18 1    
    35   17   76 1    
    36   17   77 1    
    37   18   19 1    
    38   18   27 1    
    39   18   78 1    
    40   19   20 am   BACKBONE|DICT|INTERRES
    41   19   79 1    
    42   20   21 2    
    43   20   22 1    
    44   22   23 1    
    45   22   24 1    
    46   22   80 1    
    47   23   81 1    
    48   23   82 1    
    49   23   83 1    
    50   24   25 am   BACKBONE|DICT|INTERRES
    51   24   84 1    
    52   25   26 2    
    53   27   28 2    
    54   27   29 am   BACKBONE|DICT|INTERRES
    55   29   30 1    
    56   29   85 1    
    57   30   31 1    
    58   30   32 1    
    59   30   86 1    
    60   31   87 1    
    61   31   88 1    
    62   31   89 1    
    63   32   33 2    
    64   32   34 am   BACKBONE|DICT|INTERRES
    65   34   35 1    
    66   34   90 1    
    67   35   36 1    
    68   35   37 1    
    69   35   91 1    
    70   36   92 1    
    71   36   93 1    
    72   36   94 1    
    73   37   38 2    
    74   37   39 am   BACKBONE|DICT|INTERRES
    75   39   40 1    
    76   39   95 1    
    77   40   41 1    
    78   40   42 1    
    79   40   96 1    
    80   41   97 1    
    81   41   98 1    
    82   41   99 1    
    83   42   43 2    
    84   42   44 am   BACKBONE|DICT|INTERRES
    85   44   45 1    
    86   44  100 1    
    87   45   46 1    
    88   45   47 1    
    89   45  101 1    
    90   46  102 1    
    91   46  103 1    
    92   46  104 1    
    93   47   48 2    
    94   47   49 am   BACKBONE|DICT|INTERRES
    95   49   50 1    
    96   49  105 1    
    97   50   51 1    
    98   50   52 1    
    99   50  106 1    
   100   51  107 1    
   101   51  108 1    
   102   51  109 1    
   103   52   53 2    
   104   52   54 am   BACKBONE|DICT|INTERRES
   105   54   55 1    
   106   54  110 1    
   107   55   56 1    
   108   55   59 1    
   109   55  111 1    
   110   56   57 am   BACKBONE|DICT|INTERRES
   111   56   58 2    
   112   57  112 1    
   113   57  113 1    
   114   59   60 1    
   115   59  114 1    
   116   59  115 1    
   117   60   61 1    
   118   61  116 1    
   119   61  117 1    
@<TRIPOS>SUBSTRUCTURE
     1 UNK         1 GROUP             0       ****    0 ROOT    
