@<TRIPOS>MOLECULE
3R8
117   119    1
SMALL
USER_CHARGES


@<TRIPOS>ATOM
      1 CA         18.1305  -27.5834  -40.6926 C.3       0 UNK        -0.2013 
      2 C          17.4025  -26.4759  -41.4364 C.2       0 UNK         0.4866 
      3 O          17.2127  -25.3930  -40.8829 O.2       0 UNK        -0.5176 
      4 N          16.9860  -26.7407  -42.6827 N.am      1 UNK        -0.4884 
      5 CA         16.2167  -25.8114  -43.5252 C.3       1 UNK         0.0853 
      6 C6         15.6321  -26.4995  -44.7844 C.3       10 UNK        -0.0849 
      7 S7         14.7344  -28.0413  -44.4021 S.3       10 UNK        -0.2776 
      8 C8         15.2482  -29.1175  -45.7798 C.3       10 UNK         0.0316 
      9 C9         16.7281  -29.4842  -45.7382 C.ar      10 UNK        -0.0863 
     10 C10        17.2120  -30.3473  -44.7506 C.ar      10 UNK        -0.1009 
     11 C11        18.5484  -30.7605  -44.7556 C.ar      10 UNK        -0.0712 
     12 C12        19.4061  -30.2976  -45.7606 C.ar      10 UNK        -0.0894 
     13 C13        18.9330  -29.4395  -46.7616 C.ar      10 UNK        -0.0745 
     14 C14        17.5970  -29.0267  -46.7347 C.ar      10 UNK        -0.0972 
     15 C15        19.8251  -29.0408  -47.9345 C.3       10 UNK         0.0209 
     16 S16        20.5082  -27.3567  -47.7896 S.3       10 UNK        -0.2568 
     17 C17        21.8343  -27.6123  -46.5587 C.3       10 UNK        -0.0983 
     18 CA         21.9909  -26.4895  -45.4860 C.3       3 UNK         0.0876 
     19 N          20.7792  -25.6845  -45.2934 N.am      3 UNK        -0.4424 
     20 C          20.7179  -24.5221  -44.6264 C.2       2 UNK         0.4918 
     21 O          21.6725  -24.0023  -44.0497 O.2       2 UNK        -0.4875 
     22 CA         19.3489  -23.8349  -44.5930 C.3       2 UNK         0.0481 
     23 CB         19.0369  -23.1886  -45.9588 C.3       2 UNK        -0.1831 
     24 N          18.3347  -24.8137  -44.2069 N.am      2 UNK        -0.4498 
     25 C          17.0431  -24.5800  -43.9469 C.2       1 UNK         0.5027 
     26 O          16.5037  -23.4754  -44.0250 O.2       1 UNK        -0.4969 
     27 C          22.4657  -27.1110  -44.1602 C.2       3 UNK         0.5005 
     28 O          23.6589  -27.0942  -43.8505 O.2       3 UNK        -0.5279 
     29 N          21.5027  -27.7129  -43.4423 N.am      4 UNK        -0.4463 
     30 CA         21.6398  -28.4402  -42.1747 C.3       4 UNK         0.0283 
     31 CB         22.0538  -27.4719  -41.0484 C.3       4 UNK        -0.1875 
     32 C          22.5764  -29.6640  -42.2361 C.2       4 UNK         0.4949 
     33 O          22.9607  -30.1721  -41.1852 O.2       4 UNK        -0.5039 
     34 N          22.9886  -30.0859  -43.4419 N.am      5 UNK        -0.4663 
     35 CA         24.0679  -31.0486  -43.7166 C.3       5 UNK         0.0242 
     36 CB         23.6340  -32.4748  -43.3178 C.3       5 UNK        -0.1982 
     37 C          25.4187  -30.6450  -43.0779 C.2       5 UNK         0.5017 
     38 O          26.2283  -31.5191  -42.7652 O.2       5 UNK        -0.5012 
     39 N          25.6135  -29.3319  -42.8605 N.am      6 UNK        -0.4439 
     40 CA         26.6956  -28.7041  -42.0904 C.3       6 UNK         0.0297 
     41 CB         28.0560  -28.8914  -42.7956 C.3       6 UNK        -0.2006 
     42 C          26.7332  -29.1198  -40.5999 C.2       6 UNK         0.4892 
     43 O          27.7915  -29.0288  -39.9746 O.2       6 UNK        -0.5089 
     44 N          25.5913  -29.5532  -40.0489 N.am      7 UNK        -0.4243 
     45 CA         25.4250  -29.9936  -38.6669 C.3       7 UNK         0.0196 
     46 CB         25.7818  -31.4921  -38.5530 C.3       7 UNK        -0.2007 
     47 C          23.9954  -29.6430  -38.2287 C.2       7 UNK         0.5020 
     48 O          23.7023  -28.4626  -38.0366 O.2       7 UNK        -0.5147 
     49 N          23.1286  -30.6547  -38.1037 N.am      8 UNK        -0.4734 
     50 CA         21.6974  -30.5177  -37.8214 C.3       8 UNK         0.0238 
     51 CB         21.4634  -30.4845  -36.2976 C.3       8 UNK        -0.1912 
     52 C          20.9017  -31.6262  -38.5354 C.2       8 UNK         0.5038 
     53 O          20.0089  -32.2252  -37.9338 O.2       8 UNK        -0.5046 
     54 N          21.2656  -31.8996  -39.7963 N.am      9 UNK        -0.4200 
     55 CA         20.7054  -32.9444  -40.6757 C.3       9 UNK         0.0839 
     56 C          20.9570  -34.4100  -40.2017 C.2       9 UNK         0.5513 
     57 N          21.8847  -34.6629  -39.2865 N.am      9 UNK        -0.7519 
     58 O          20.3297  -35.3432  -40.6963 O.2       9 UNK        -0.4960 
     59 C59        19.2234  -32.6849  -41.0743 C.3       10 UNK        -0.0876 
     60 S60        19.0004  -31.1454  -42.0302 S.3       10 UNK        -0.2414 
     61 C61        19.0290  -31.7854  -43.7343 C.3       10 UNK         0.0169 
     62 H62        19.1096  -27.2385  -40.3633 H         1 UNK         0.0903 
     63 H63        17.5612  -27.8817  -39.8127 H         1 UNK         0.0903 
     64 H64        18.2690  -28.4622  -41.3185 H         1 UNK         0.0903 
     65 H65        17.1173  -27.6652  -43.0704 H         1 UNK         0.3096 
     66 H66        15.3812  -25.4448  -42.9240 H         1 UNK         0.1121 
     67 H67        14.9410  -25.8267  -45.2961 H         1 UNK         0.0849 
     68 H68        16.4254  -26.7145  -45.5021 H         1 UNK         0.0849 
     69 H69        14.6576  -30.0341  -45.7444 H         1 UNK         0.0865 
     70 H70        14.9928  -28.6334  -46.7238 H         1 UNK         0.0865 
     71 H71        16.5386  -30.7243  -43.9925 H         1 UNK         0.1346 
     72 H72        20.4283  -30.6482  -45.7933 H         1 UNK         0.1412 
     73 H73        17.2249  -28.3824  -47.5200 H         1 UNK         0.1426 
     74 H74        19.2447  -29.0962  -48.8567 H         1 UNK         0.0716 
     75 H75        20.6417  -29.7541  -48.0572 H         1 UNK         0.0716 
     76 H76        22.7746  -27.7252  -47.1011 H         1 UNK         0.0695 
     77 H77        21.6610  -28.5861  -46.0997 H         1 UNK         0.0695 
     78 H78        22.7741  -25.8070  -45.8245 H         1 UNK         0.0983 
     79 H79        19.9717  -25.9963  -45.8148 H         1 UNK         0.3095 
     80 H80        19.3796  -23.0551  -43.8294 H         1 UNK         0.0454 
     81 H81        19.8508  -22.5350  -46.2755 H         1 UNK         0.0851 
     82 H82        18.1375  -22.5748  -45.9191 H         1 UNK         0.0851 
     83 H83        18.8959  -23.9360  -46.7402 H         1 UNK         0.0851 
     84 H84        18.6717  -25.7501  -44.0376 H         1 UNK         0.2976 
     85 H85        20.5702  -27.7010  -43.8299 H         1 UNK         0.3116 
     86 H86        20.6497  -28.8214  -41.9331 H         1 UNK         0.0646 
     87 H87        21.9555  -27.9446  -40.0714 H         1 UNK         0.0847 
     88 H88        23.0914  -27.1515  -41.1496 H         1 UNK         0.0847 
     89 H89        21.4296  -26.5788  -41.0377 H         1 UNK         0.0847 
     90 H90        22.6241  -29.5990  -44.2466 H         1 UNK         0.3040 
     91 H91        24.2283  -31.0379  -44.7959 H         1 UNK         0.1015 
     92 H92        24.3471  -33.2154  -43.6816 H         1 UNK         0.0786 
     93 H93        22.6618  -32.7287  -43.7396 H         1 UNK         0.0786 
     94 H94        23.5758  -32.5897  -42.2352 H         1 UNK         0.0786 
     95 H95        24.8894  -28.6929  -43.1766 H         1 UNK         0.3172 
     96 H96        26.4729  -27.6361  -42.0918 H         1 UNK         0.0595 
     97 H97        28.3876  -29.9297  -42.7678 H         1 UNK         0.0839 
     98 H98        28.8313  -28.2919  -42.3170 H         1 UNK         0.0839 
     99 H99        28.0088  -28.5811  -43.8393 H         1 UNK         0.0839 
    100 H100       24.7482  -29.5984  -40.6147 H         1 UNK         0.2998 
    101 H101       26.0962  -29.4263  -38.0185 H         1 UNK         0.0822 
    102 H102       25.6087  -31.8665  -37.5430 H         1 UNK         0.0787 
    103 H103       26.8363  -31.6566  -38.7754 H         1 UNK         0.0787 
    104 H104       25.2055  -32.1047  -39.2478 H         1 UNK         0.0787 
    105 H105       23.4594  -31.5899  -38.2931 H         1 UNK         0.3055 
    106 H106       21.3384  -29.5757  -38.2421 H         1 UNK         0.1106 
    107 H107       22.0038  -29.6609  -35.8310 H         1 UNK         0.0828 
    108 H108       20.4066  -30.3475  -36.0649 H         1 UNK         0.0828 
    109 H109       21.7874  -31.4108  -35.8220 H         1 UNK         0.0828 
    110 H110       21.9923  -31.3243  -40.2192 H         1 UNK         0.2931 
    111 H111       21.2859  -32.8705  -41.5944 H         1 UNK         0.0412 
    112 H112       22.0450  -35.6158  -38.9992 H         1 UNK         0.3472 
    113 H113       22.4141  -33.9154  -38.8718 H         1 UNK         0.3472 
    114 H114       18.8250  -33.5115  -41.6646 H         1 UNK         0.0970 
    115 H115       18.5933  -32.6351  -40.1854 H         1 UNK         0.0970 
    116 H116       20.0412  -32.1213  -43.9650 H         1 UNK         0.0612 
    117 H117       18.3868  -32.6643  -43.8043 H         1 UNK         0.0612 
@<TRIPOS>BOND
     1    1    2 1    
     2    1   62 1    
     3    1   63 1    
     4    1   64 1    
     5    2    3 2    
     6    2    4 am   BACKBONE|DICT|INTERRES
     7    4    5 1    
     8    4   65 1    
     9    5    6 1    
    10    5   25 1    
    11    5   66 1    
    12    6    7 1    
    13    6   67 1    
    14    6   68 1    
    15    7    8 1    
    16    8    9 1    
    17    8   69 1    
    18    8   70 1    
    19    9   10 ar   
    20    9   14 ar   
    21   10   11 ar   
    22   10   71 1    
    23   11   12 ar   
    24   11   61 1    
    25   12   13 ar   
    26   12   72 1    
    27   13   14 ar   
    28   13   15 1    
    29   14   73 1    
    30   15   16 1    
    31   15   74 1    
    32   15   75 1    
    33   16   17 1    
    34   17   18 1    
    35   17   76 1    
    36   17   77 1    
    37   18   19 1    
    38   18   27 1    
    39   18   78 1    
    40   19   20 am   BACKBONE|DICT|INTERRES
    41   19   79 1    
    42   20   21 2    
    43   20   22 1    
    44   22   23 1    
    45   22   24 1    
    46   22   80 1    
    47   23   81 1    
    48   23   82 1    
    49   23   83 1    
    50   24   25 am   BACKBONE|DICT|INTERRES
    51   24   84 1    
    52   25   26 2    
    53   27   28 2    
    54   27   29 am   BACKBONE|DICT|INTERRES
    55   29   30 1    
    56   29   85 1    
    57   30   31 1    
    58   30   32 1    
    59   30   86 1    
    60   31   87 1    
    61   31   88 1    
    62   31   89 1    
    63   32   33 2    
    64   32   34 am   BACKBONE|DICT|INTERRES
    65   34   35 1    
    66   34   90 1    
    67   35   36 1    
    68   35   37 1    
    69   35   91 1    
    70   36   92 1    
    71   36   93 1    
    72   36   94 1    
    73   37   38 2    
    74   37   39 am   BACKBONE|DICT|INTERRES
    75   39   40 1    
    76   39   95 1    
    77   40   41 1    
    78   40   42 1    
    79   40   96 1    
    80   41   97 1    
    81   41   98 1    
    82   41   99 1    
    83   42   43 2    
    84   42   44 am   BACKBONE|DICT|INTERRES
    85   44   45 1    
    86   44  100 1    
    87   45   46 1    
    88   45   47 1    
    89   45  101 1    
    90   46  102 1    
    91   46  103 1    
    92   46  104 1    
    93   47   48 2    
    94   47   49 am   BACKBONE|DICT|INTERRES
    95   49   50 1    
    96   49  105 1    
    97   50   51 1    
    98   50   52 1    
    99   50  106 1    
   100   51  107 1    
   101   51  108 1    
   102   51  109 1    
   103   52   53 2    
   104   52   54 am   BACKBONE|DICT|INTERRES
   105   54   55 1    
   106   54  110 1    
   107   55   56 1    
   108   55   59 1    
   109   55  111 1    
   110   56   57 am   BACKBONE|DICT|INTERRES
   111   56   58 2    
   112   57  112 1    
   113   57  113 1    
   114   59   60 1    
   115   59  114 1    
   116   59  115 1    
   117   60   61 1    
   118   61  116 1    
   119   61  117 1    
@<TRIPOS>SUBSTRUCTURE
     1 UNK         1 GROUP             0       ****    0 ROOT    
