@<TRIPOS>MOLECULE
3R8
117   119    1
SMALL
USER_CHARGES


@<TRIPOS>ATOM
      1 CA         17.2032  -23.2143  -40.1939 C.3       0 UNK        -0.2013 
      2 C          17.2347  -23.4978  -41.6882 C.2       0 UNK         0.4866 
      3 O          17.3123  -22.5649  -42.4882 O.2       0 UNK        -0.5176 
      4 N          17.1659  -24.7782  -42.0711 N.am      1 UNK        -0.4884 
      5 CA         17.2622  -25.2583  -43.4516 C.3       1 UNK         0.0853 
      6 C6         16.7250  -26.7076  -43.6145 C.3       10 UNK        -0.0849 
      7 S7         17.1520  -27.8634  -42.2579 S.3       10 UNK        -0.2776 
      8 C8         16.4796  -29.4418  -42.8763 C.3       10 UNK         0.0316 
      9 C9         17.4548  -30.1442  -43.8107 C.ar      10 UNK        -0.0863 
     10 C10        18.3127  -31.1375  -43.3276 C.ar      10 UNK        -0.1009 
     11 C11        19.2135  -31.7766  -44.1856 C.ar      10 UNK        -0.0712 
     12 C12        19.2751  -31.3910  -45.5304 C.ar      10 UNK        -0.0894 
     13 C13        18.4191  -30.4017  -46.0282 C.ar      10 UNK        -0.0745 
     14 C14        17.4923  -29.8086  -45.1655 C.ar      10 UNK        -0.0972 
     15 C15        18.4580  -30.0163  -47.5052 C.3       10 UNK         0.0209 
     16 S16        18.3308  -28.2115  -47.7833 S.3       10 UNK        -0.2568 
     17 C17        19.9814  -27.7712  -48.4328 C.3       10 UNK        -0.0983 
     18 CA         20.9290  -27.1059  -47.4012 C.3       3 UNK         0.0876 
     19 N          20.3064  -25.9473  -46.7521 N.am      3 UNK        -0.4424 
     20 C          20.9761  -24.9081  -46.2390 C.2       2 UNK         0.4918 
     21 O          22.2011  -24.7959  -46.2838 O.2       2 UNK        -0.4875 
     22 CA         20.1477  -23.8002  -45.5640 C.3       2 UNK         0.0481 
     23 CB         19.9157  -22.6391  -46.5443 C.3       2 UNK        -0.1831 
     24 N          18.8555  -24.2363  -45.0200 N.am      2 UNK        -0.4498 
     25 C          18.6995  -25.0809  -43.9895 C.2       1 UNK         0.5027 
     26 O          19.6330  -25.6864  -43.4608 O.2       1 UNK        -0.4969 
     27 C          21.5072  -28.1337  -46.4040 C.2       3 UNK         0.5005 
     28 O          22.1979  -29.0572  -46.8409 O.2       3 UNK        -0.5279 
     29 N          21.2190  -27.9834  -45.1031 N.am      4 UNK        -0.4463 
     30 CA         21.6678  -28.8978  -44.0572 C.3       4 UNK         0.0283 
     31 CB         20.8621  -28.6370  -42.7785 C.3       4 UNK        -0.1875 
     32 C          23.1677  -28.7694  -43.7641 C.2       4 UNK         0.4949 
     33 O          23.7264  -27.6721  -43.8340 O.2       4 UNK        -0.5039 
     34 N          23.7759  -29.8885  -43.3565 N.am      5 UNK        -0.4663 
     35 CA         25.1518  -29.9710  -42.8668 C.3       5 UNK         0.0242 
     36 CB         25.6437  -31.4232  -43.0089 C.3       5 UNK        -0.1982 
     37 C          25.2200  -29.4706  -41.4140 C.2       5 UNK         0.5017 
     38 O          25.2964  -30.2796  -40.4886 O.2       5 UNK        -0.5012 
     39 N          25.1006  -28.1458  -41.2386 N.am      6 UNK        -0.4439 
     40 CA         25.0830  -27.4140  -39.9611 C.3       6 UNK         0.0297 
     41 CB         26.4789  -27.4523  -39.3036 C.3       6 UNK        -0.2006 
     42 C          23.9665  -27.8719  -38.9957 C.2       6 UNK         0.4892 
     43 O          24.1362  -27.7867  -37.7787 O.2       6 UNK        -0.5089 
     44 N          22.8605  -28.3753  -39.5668 N.am      7 UNK        -0.4243 
     45 CA         21.7079  -29.0033  -38.9063 C.3       7 UNK         0.0196 
     46 CB         20.9639  -27.9913  -38.0090 C.3       7 UNK        -0.2007 
     47 C          22.0338  -30.3210  -38.1682 C.2       7 UNK         0.5020 
     48 O          21.2068  -30.7834  -37.3814 O.2       7 UNK        -0.5147 
     49 N          23.2046  -30.9226  -38.4312 N.am      8 UNK        -0.4734 
     50 CA         23.6233  -32.1952  -37.8343 C.3       8 UNK         0.0238 
     51 CB         25.1587  -32.2467  -37.7714 C.3       8 UNK        -0.1912 
     52 C          23.0764  -33.4158  -38.5936 C.2       8 UNK         0.5038 
     53 O          22.9879  -34.4941  -38.0043 O.2       8 UNK        -0.5046 
     54 N          22.7394  -33.2371  -39.8778 N.am      9 UNK        -0.4200 
     55 CA         22.1379  -34.2623  -40.7408 C.3       9 UNK         0.0839 
     56 C          20.6735  -34.6163  -40.3542 C.2       9 UNK         0.5513 
     57 N          20.1973  -35.7866  -40.7578 N.am      9 UNK        -0.7519 
     58 O          19.9591  -33.8398  -39.7235 O.2       9 UNK        -0.4960 
     59 C59        22.2883  -33.9035  -42.2435 C.3       10 UNK        -0.0876 
     60 S60        21.5197  -32.3167  -42.7244 S.3       10 UNK        -0.2414 
     61 C61        20.0828  -32.9139  -43.6666 C.3       10 UNK         0.0169 
     62 H62        18.1121  -22.6948  -39.8917 H         1 UNK         0.0903 
     63 H63        16.3509  -22.5807  -39.9499 H         1 UNK         0.0903 
     64 H64        17.1246  -24.1293  -39.6069 H         1 UNK         0.0903 
     65 H65        17.1325  -25.5123  -41.3765 H         1 UNK         0.3096 
     66 H66        16.6118  -24.6193  -44.0538 H         1 UNK         0.1121 
     67 H67        15.6359  -26.6741  -43.6716 H         1 UNK         0.0849 
     68 H68        17.0535  -27.1209  -44.5673 H         1 UNK         0.0849 
     69 H69        16.2582  -30.0839  -42.0224 H         1 UNK         0.0865 
     70 H70        15.5261  -29.2708  -43.3786 H         1 UNK         0.0865 
     71 H71        18.2776  -31.4208  -42.2842 H         1 UNK         0.1346 
     72 H72        19.9772  -31.8768  -46.1942 H         1 UNK         0.1412 
     73 H73        16.8009  -29.0747  -45.5528 H         1 UNK         0.1426 
     74 H74        17.6191  -30.5006  -48.0063 H         1 UNK         0.0716 
     75 H75        19.3601  -30.4070  -47.9774 H         1 UNK         0.0716 
     76 H76        19.8173  -27.0723  -49.2544 H         1 UNK         0.0695 
     77 H77        20.4514  -28.6401  -48.8966 H         1 UNK         0.0695 
     78 H78        21.7915  -26.7409  -47.9640 H         1 UNK         0.0983 
     79 H79        19.2993  -25.9665  -46.6832 H         1 UNK         0.3095 
     80 H80        20.7405  -23.4207  -44.7290 H         1 UNK         0.0454 
     81 H81        20.8615  -22.2695  -46.9436 H         1 UNK         0.0851 
     82 H82        19.4243  -21.7976  -46.0555 H         1 UNK         0.0851 
     83 H83        19.3012  -22.9424  -47.3929 H         1 UNK         0.0851 
     84 H84        18.0389  -23.7697  -45.3893 H         1 UNK         0.2976 
     85 H85        20.6853  -27.1778  -44.8018 H         1 UNK         0.3116 
     86 H86        21.4613  -29.9125  -44.3992 H         1 UNK         0.0646 
     87 H87        21.0931  -27.6662  -42.3385 H         1 UNK         0.0847 
     88 H88        19.7942  -28.6645  -42.9819 H         1 UNK         0.0847 
     89 H89        21.0638  -29.4013  -42.0297 H         1 UNK         0.0847 
     90 H90        23.2259  -30.7360  -43.2922 H         1 UNK         0.3040 
     91 H91        25.7953  -29.3336  -43.4778 H         1 UNK         0.1015 
     92 H92        26.6751  -31.5189  -42.6670 H         1 UNK         0.0786 
     93 H93        25.6148  -31.7523  -44.0478 H         1 UNK         0.0786 
     94 H94        25.0416  -32.1161  -42.4207 H         1 UNK         0.0786 
     95 H95        24.9459  -27.5871  -42.0724 H         1 UNK         0.3172 
     96 H96        24.8608  -26.3748  -40.2078 H         1 UNK         0.0595 
     97 H97        26.7422  -28.4583  -38.9744 H         1 UNK         0.0839 
     98 H98        26.5194  -26.8032  -38.4280 H         1 UNK         0.0839 
     99 H99        27.2522  -27.1113  -39.9918 H         1 UNK         0.0839 
    100 H100       22.8438  -28.3919  -40.5758 H         1 UNK         0.2998 
    101 H101       21.0204  -29.2853  -39.7038 H         1 UNK         0.0822 
    102 H102       20.0209  -28.4052  -37.6498 H         1 UNK         0.0787 
    103 H103       20.7262  -27.0777  -38.5540 H         1 UNK         0.0787 
    104 H104       21.5508  -27.7174  -37.1320 H         1 UNK         0.0787 
    105 H105       23.8539  -30.4952  -39.0854 H         1 UNK         0.3055 
    106 H106       23.2440  -32.2507  -36.8112 H         1 UNK         0.1106 
    107 H107       25.5642  -31.3873  -37.2371 H         1 UNK         0.0828 
    108 H108       25.4961  -33.1427  -37.2488 H         1 UNK         0.0828 
    109 H109       25.6055  -32.2652  -38.7659 H         1 UNK         0.0828 
    110 H110       22.8107  -32.3110  -40.2698 H         1 UNK         0.2931 
    111 H111       22.7209  -35.1718  -40.5802 H         1 UNK         0.0412 
    112 H112       19.2473  -36.0333  -40.5271 H         1 UNK         0.3472 
    113 H113       20.7703  -36.4357  -41.2745 H         1 UNK         0.3472 
    114 H114       23.3482  -33.8462  -42.4931 H         1 UNK         0.0970 
    115 H115       21.8978  -34.7088  -42.8681 H         1 UNK         0.0970 
    116 H116       20.4312  -33.5307  -44.4964 H         1 UNK         0.0612 
    117 H117       19.4819  -33.5653  -43.0301 H         1 UNK         0.0612 
@<TRIPOS>BOND
     1    1    2 1    
     2    1   62 1    
     3    1   63 1    
     4    1   64 1    
     5    2    3 2    
     6    2    4 am   BACKBONE|DICT|INTERRES
     7    4    5 1    
     8    4   65 1    
     9    5    6 1    
    10    5   25 1    
    11    5   66 1    
    12    6    7 1    
    13    6   67 1    
    14    6   68 1    
    15    7    8 1    
    16    8    9 1    
    17    8   69 1    
    18    8   70 1    
    19    9   10 ar   
    20    9   14 ar   
    21   10   11 ar   
    22   10   71 1    
    23   11   12 ar   
    24   11   61 1    
    25   12   13 ar   
    26   12   72 1    
    27   13   14 ar   
    28   13   15 1    
    29   14   73 1    
    30   15   16 1    
    31   15   74 1    
    32   15   75 1    
    33   16   17 1    
    34   17   18 1    
    35   17   76 1    
    36   17   77 1    
    37   18   19 1    
    38   18   27 1    
    39   18   78 1    
    40   19   20 am   BACKBONE|DICT|INTERRES
    41   19   79 1    
    42   20   21 2    
    43   20   22 1    
    44   22   23 1    
    45   22   24 1    
    46   22   80 1    
    47   23   81 1    
    48   23   82 1    
    49   23   83 1    
    50   24   25 am   BACKBONE|DICT|INTERRES
    51   24   84 1    
    52   25   26 2    
    53   27   28 2    
    54   27   29 am   BACKBONE|DICT|INTERRES
    55   29   30 1    
    56   29   85 1    
    57   30   31 1    
    58   30   32 1    
    59   30   86 1    
    60   31   87 1    
    61   31   88 1    
    62   31   89 1    
    63   32   33 2    
    64   32   34 am   BACKBONE|DICT|INTERRES
    65   34   35 1    
    66   34   90 1    
    67   35   36 1    
    68   35   37 1    
    69   35   91 1    
    70   36   92 1    
    71   36   93 1    
    72   36   94 1    
    73   37   38 2    
    74   37   39 am   BACKBONE|DICT|INTERRES
    75   39   40 1    
    76   39   95 1    
    77   40   41 1    
    78   40   42 1    
    79   40   96 1    
    80   41   97 1    
    81   41   98 1    
    82   41   99 1    
    83   42   43 2    
    84   42   44 am   BACKBONE|DICT|INTERRES
    85   44   45 1    
    86   44  100 1    
    87   45   46 1    
    88   45   47 1    
    89   45  101 1    
    90   46  102 1    
    91   46  103 1    
    92   46  104 1    
    93   47   48 2    
    94   47   49 am   BACKBONE|DICT|INTERRES
    95   49   50 1    
    96   49  105 1    
    97   50   51 1    
    98   50   52 1    
    99   50  106 1    
   100   51  107 1    
   101   51  108 1    
   102   51  109 1    
   103   52   53 2    
   104   52   54 am   BACKBONE|DICT|INTERRES
   105   54   55 1    
   106   54  110 1    
   107   55   56 1    
   108   55   59 1    
   109   55  111 1    
   110   56   57 am   BACKBONE|DICT|INTERRES
   111   56   58 2    
   112   57  112 1    
   113   57  113 1    
   114   59   60 1    
   115   59  114 1    
   116   59  115 1    
   117   60   61 1    
   118   61  116 1    
   119   61  117 1    
@<TRIPOS>SUBSTRUCTURE
     1 UNK         1 GROUP             0       ****    0 ROOT    
