@<TRIPOS>MOLECULE
3R8
117   119    1
SMALL
USER_CHARGES


@<TRIPOS>ATOM
      1 CA         16.5588  -23.1410  -46.2381 C.3       0 UNK        -0.2013 
      2 C          16.7660  -24.6312  -46.0114 C.2       0 UNK         0.4866 
      3 O          16.1701  -25.4450  -46.7179 O.2       0 UNK        -0.5176 
      4 N          17.6081  -24.9888  -45.0369 N.am      1 UNK        -0.4884 
      5 CA         17.9752  -26.3628  -44.6949 C.3       1 UNK         0.0853 
      6 C6         17.3918  -26.7998  -43.3279 C.3       10 UNK        -0.0849 
      7 S7         15.5868  -27.0505  -43.3229 S.3       10 UNK        -0.2776 
      8 C8         15.4126  -28.7108  -44.0761 C.3       10 UNK         0.0316 
      9 C9         16.1262  -29.8714  -43.3728 C.ar      10 UNK        -0.0863 
     10 C10        16.3041  -31.0631  -44.0852 C.ar      10 UNK        -0.1009 
     11 C11        16.9411  -32.1648  -43.5054 C.ar      10 UNK        -0.0712 
     12 C12        17.4220  -32.0607  -42.1969 C.ar      10 UNK        -0.0894 
     13 C13        17.2659  -30.8762  -41.4729 C.ar      10 UNK        -0.0745 
     14 C14        16.5909  -29.7983  -42.0517 C.ar      10 UNK        -0.0972 
     15 C15        17.8308  -30.7724  -40.0652 C.3       10 UNK         0.0209 
     16 S16        19.6190  -30.4285  -40.0963 S.3       10 UNK        -0.2568 
     17 C17        19.6690  -28.6058  -40.0405 C.3       10 UNK        -0.0983 
     18 CA         20.9257  -28.0468  -40.7544 C.3       3 UNK         0.0876 
     19 N          20.8265  -28.1624  -42.2124 N.am      3 UNK        -0.4424 
     20 C          21.8127  -27.9102  -43.0869 C.2       2 UNK         0.4918 
     21 O          22.9473  -27.5630  -42.7558 O.2       2 UNK        -0.4875 
     22 CA         21.4481  -28.0021  -44.5817 C.3       2 UNK         0.0481 
     23 CB         21.7205  -29.4176  -45.1085 C.3       2 UNK        -0.1831 
     24 N          20.0473  -27.6514  -44.8482 N.am      2 UNK        -0.4498 
     25 C          19.5052  -26.4481  -44.6107 C.2       1 UNK         0.5027 
     26 O          20.1505  -25.4692  -44.2280 O.2       1 UNK        -0.4969 
     27 C          21.2519  -26.6143  -40.2746 C.2       3 UNK         0.5005 
     28 O          21.7988  -26.4720  -39.1809 O.2       3 UNK        -0.5279 
     29 N          20.9973  -25.5834  -41.0992 N.am      4 UNK        -0.4463 
     30 CA         21.4330  -24.2034  -40.8462 C.3       4 UNK         0.0283 
     31 CB         20.7522  -23.2525  -41.8428 C.3       4 UNK        -0.1875 
     32 C          22.9652  -24.0333  -40.9003 C.2       4 UNK         0.4949 
     33 O          23.4917  -23.1255  -40.2577 O.2       4 UNK        -0.5039 
     34 N          23.6510  -24.9231  -41.6320 N.am      5 UNK        -0.4663 
     35 CA         25.1103  -25.0419  -41.6848 C.3       5 UNK         0.0242 
     36 CB         25.5327  -25.2322  -43.1531 C.3       5 UNK        -0.1982 
     37 C          25.6206  -26.2014  -40.8040 C.2       5 UNK         0.5017 
     38 O          26.7951  -26.5570  -40.9052 O.2       5 UNK        -0.5012 
     39 N          24.7372  -26.7767  -39.9709 N.am      6 UNK        -0.4439 
     40 CA         24.9538  -27.9084  -39.0611 C.3       6 UNK         0.0297 
     41 CB         25.9857  -27.5505  -37.9700 C.3       6 UNK        -0.2006 
     42 C          25.2710  -29.2460  -39.7627 C.2       6 UNK         0.4892 
     43 O          25.8223  -30.1422  -39.1209 O.2       6 UNK        -0.5089 
     44 N          24.9038  -29.3816  -41.0442 N.am      7 UNK        -0.4243 
     45 CA         25.0359  -30.6189  -41.8111 C.3       7 UNK         0.0196 
     46 CB         25.4400  -30.2738  -43.2534 C.3       7 UNK        -0.2007 
     47 C          23.6963  -31.3616  -41.7816 C.2       7 UNK         0.5020 
     48 O          22.6731  -30.7708  -42.1217 O.2       7 UNK        -0.5147 
     49 N          23.7044  -32.6485  -41.4174 N.am      8 UNK        -0.4734 
     50 CA         22.5033  -33.4858  -41.2766 C.3       8 UNK         0.0238 
     51 CB         22.8162  -34.6400  -40.3050 C.3       8 UNK        -0.1912 
     52 C          21.9295  -33.9803  -42.6246 C.2       8 UNK         0.5038 
     53 O          21.6237  -35.1665  -42.7540 O.2       8 UNK        -0.5046 
     54 N          21.8174  -33.0605  -43.5932 N.am      9 UNK        -0.4200 
     55 CA         21.2818  -33.2020  -44.9612 C.3       9 UNK         0.0839 
     56 C          21.8184  -34.3823  -45.8295 C.2       9 UNK         0.5513 
     57 N          22.9853  -34.9397  -45.5314 N.am      9 UNK        -0.7519 
     58 O          21.1997  -34.7662  -46.8191 O.2       9 UNK        -0.4960 
     59 C59        19.7429  -32.9782  -45.0402 C.3       10 UNK        -0.0876 
     60 S60        18.7248  -34.2326  -44.1943 S.3       10 UNK        -0.2414 
     61 C61        17.0711  -33.4685  -44.2905 C.3       10 UNK         0.0169 
     62 H62        17.1431  -22.5372  -45.5441 H         1 UNK         0.0903 
     63 H63        16.8519  -22.8712  -47.2523 H         1 UNK         0.0903 
     64 H64        15.5077  -22.8850  -46.1074 H         1 UNK         0.0903 
     65 H65        18.1319  -24.2825  -44.5363 H         1 UNK         0.3096 
     66 H66        17.6451  -27.0522  -45.4749 H         1 UNK         0.1121 
     67 H67        17.8667  -27.7172  -42.9844 H         1 UNK         0.0849 
     68 H68        17.6215  -26.0541  -42.5638 H         1 UNK         0.0849 
     69 H69        14.3489  -28.9473  -44.1252 H         1 UNK         0.0865 
     70 H70        15.7550  -28.6487  -45.1101 H         1 UNK         0.0865 
     71 H71        15.9309  -31.1377  -45.0979 H         1 UNK         0.1346 
     72 H72        17.9266  -32.9017  -41.7411 H         1 UNK         0.1412 
     73 H73        16.4485  -28.8984  -41.4707 H         1 UNK         0.1426 
     74 H74        17.6656  -31.7141  -39.5396 H         1 UNK         0.0716 
     75 H75        17.3102  -30.0077  -39.4867 H         1 UNK         0.0716 
     76 H76        18.7595  -28.1891  -40.4766 H         1 UNK         0.0695 
     77 H77        19.6582  -28.3257  -38.9850 H         1 UNK         0.0695 
     78 H78        21.7818  -28.6552  -40.4530 H         1 UNK         0.0983 
     79 H79        19.9502  -28.5098  -42.5680 H         1 UNK         0.3095 
     80 H80        22.0834  -27.3003  -45.1257 H         1 UNK         0.0454 
     81 H81        22.7674  -29.6900  -44.9762 H         1 UNK         0.0851 
     82 H82        21.1241  -30.1583  -44.5766 H         1 UNK         0.0851 
     83 H83        21.4981  -29.5005  -46.1723 H         1 UNK         0.0851 
     84 H84        19.4507  -28.4027  -45.1647 H         1 UNK         0.2976 
     85 H85        20.5823  -25.7655  -42.0043 H         1 UNK         0.3116 
     86 H86        21.1063  -23.9296  -39.8406 H         1 UNK         0.0646 
     87 H87        20.9774  -22.2130  -41.6010 H         1 UNK         0.0847 
     88 H88        19.6677  -23.3613  -41.8245 H         1 UNK         0.0847 
     89 H89        21.0926  -23.4256  -42.8641 H         1 UNK         0.0847 
     90 H90        23.1426  -25.6560  -42.1166 H         1 UNK         0.3040 
     91 H91        25.5769  -24.1278  -41.3111 H         1 UNK         0.1015 
     92 H92        25.1508  -26.1670  -43.5656 H         1 UNK         0.0786 
     93 H93        26.6189  -25.2529  -43.2506 H         1 UNK         0.0786 
     94 H94        25.1694  -24.4167  -43.7786 H         1 UNK         0.0786 
     95 H95        23.7998  -26.3923  -39.9485 H         1 UNK         0.3172 
     96 H96        23.9982  -28.0655  -38.5593 H         1 UNK         0.0595 
     97 H97        26.0244  -28.3205  -37.1985 H         1 UNK         0.0839 
     98 H98        26.9916  -27.4529  -38.3792 H         1 UNK         0.0839 
     99 H99        25.7315  -26.6134  -37.4747 H         1 UNK         0.0839 
    100 H100       24.3933  -28.6317  -41.4964 H         1 UNK         0.2998 
    101 H101       25.8128  -31.2563  -41.3833 H         1 UNK         0.0822 
    102 H102       25.4813  -31.1685  -43.8761 H         1 UNK         0.0787 
    103 H103       24.7362  -29.5816  -43.7154 H         1 UNK         0.0787 
    104 H104       26.4259  -29.8098  -43.2835 H         1 UNK         0.0787 
    105 H105       24.5865  -33.0857  -41.1901 H         1 UNK         0.3055 
    106 H106       21.7169  -32.8801  -40.8187 H         1 UNK         0.1106 
    107 H107       23.1625  -34.2657  -39.3415 H         1 UNK         0.0828 
    108 H108       21.9274  -35.2425  -40.1119 H         1 UNK         0.0828 
    109 H109       23.5822  -35.3064  -40.7033 H         1 UNK         0.0828 
    110 H110       22.1022  -32.1211  -43.3316 H         1 UNK         0.2931 
    111 H111       21.7118  -32.3424  -45.4752 H         1 UNK         0.0412 
    112 H112       23.3356  -35.6912  -46.1046 H         1 UNK         0.3472 
    113 H113       23.4970  -34.6441  -44.7157 H         1 UNK         0.3472 
    114 H114       19.4199  -32.9165  -46.0809 H         1 UNK         0.0970 
    115 H115       19.5059  -32.0061  -44.6068 H         1 UNK         0.0970 
    116 H116       16.8238  -33.3136  -45.3419 H         1 UNK         0.0612 
    117 H117       16.3393  -34.1783  -43.9033 H         1 UNK         0.0612 
@<TRIPOS>BOND
     1    1    2 1    
     2    1   62 1    
     3    1   63 1    
     4    1   64 1    
     5    2    3 2    
     6    2    4 am   BACKBONE|DICT|INTERRES
     7    4    5 1    
     8    4   65 1    
     9    5    6 1    
    10    5   25 1    
    11    5   66 1    
    12    6    7 1    
    13    6   67 1    
    14    6   68 1    
    15    7    8 1    
    16    8    9 1    
    17    8   69 1    
    18    8   70 1    
    19    9   10 ar   
    20    9   14 ar   
    21   10   11 ar   
    22   10   71 1    
    23   11   12 ar   
    24   11   61 1    
    25   12   13 ar   
    26   12   72 1    
    27   13   14 ar   
    28   13   15 1    
    29   14   73 1    
    30   15   16 1    
    31   15   74 1    
    32   15   75 1    
    33   16   17 1    
    34   17   18 1    
    35   17   76 1    
    36   17   77 1    
    37   18   19 1    
    38   18   27 1    
    39   18   78 1    
    40   19   20 am   BACKBONE|DICT|INTERRES
    41   19   79 1    
    42   20   21 2    
    43   20   22 1    
    44   22   23 1    
    45   22   24 1    
    46   22   80 1    
    47   23   81 1    
    48   23   82 1    
    49   23   83 1    
    50   24   25 am   BACKBONE|DICT|INTERRES
    51   24   84 1    
    52   25   26 2    
    53   27   28 2    
    54   27   29 am   BACKBONE|DICT|INTERRES
    55   29   30 1    
    56   29   85 1    
    57   30   31 1    
    58   30   32 1    
    59   30   86 1    
    60   31   87 1    
    61   31   88 1    
    62   31   89 1    
    63   32   33 2    
    64   32   34 am   BACKBONE|DICT|INTERRES
    65   34   35 1    
    66   34   90 1    
    67   35   36 1    
    68   35   37 1    
    69   35   91 1    
    70   36   92 1    
    71   36   93 1    
    72   36   94 1    
    73   37   38 2    
    74   37   39 am   BACKBONE|DICT|INTERRES
    75   39   40 1    
    76   39   95 1    
    77   40   41 1    
    78   40   42 1    
    79   40   96 1    
    80   41   97 1    
    81   41   98 1    
    82   41   99 1    
    83   42   43 2    
    84   42   44 am   BACKBONE|DICT|INTERRES
    85   44   45 1    
    86   44  100 1    
    87   45   46 1    
    88   45   47 1    
    89   45  101 1    
    90   46  102 1    
    91   46  103 1    
    92   46  104 1    
    93   47   48 2    
    94   47   49 am   BACKBONE|DICT|INTERRES
    95   49   50 1    
    96   49  105 1    
    97   50   51 1    
    98   50   52 1    
    99   50  106 1    
   100   51  107 1    
   101   51  108 1    
   102   51  109 1    
   103   52   53 2    
   104   52   54 am   BACKBONE|DICT|INTERRES
   105   54   55 1    
   106   54  110 1    
   107   55   56 1    
   108   55   59 1    
   109   55  111 1    
   110   56   57 am   BACKBONE|DICT|INTERRES
   111   56   58 2    
   112   57  112 1    
   113   57  113 1    
   114   59   60 1    
   115   59  114 1    
   116   59  115 1    
   117   60   61 1    
   118   61  116 1    
   119   61  117 1    
@<TRIPOS>SUBSTRUCTURE
     1 UNK         1 GROUP             0       ****    0 ROOT    
