@<TRIPOS>MOLECULE
3R8
117   119    1
SMALL
USER_CHARGES


@<TRIPOS>ATOM
      1 CA         14.2320  -24.7150  -48.7277 C.3       0 UNK        -0.2013 
      2 C          15.1154  -24.6703  -47.4897 C.2       0 UNK         0.4866 
      3 O          15.4470  -23.5825  -47.0180 O.2       0 UNK        -0.5176 
      4 N          15.4920  -25.8443  -46.9633 N.am      1 UNK        -0.4884 
      5 CA         16.3759  -26.0379  -45.8082 C.3       1 UNK         0.0853 
      6 C6         15.7453  -25.5276  -44.4788 C.3       10 UNK        -0.0849 
      7 S7         16.6291  -26.0654  -42.9727 S.3       10 UNK        -0.2776 
      8 C8         16.0154  -27.7627  -42.7208 C.3       10 UNK         0.0316 
      9 C9         17.1745  -28.7453  -42.6224 C.ar      10 UNK        -0.0863 
     10 C10        17.6086  -29.2240  -41.3817 C.ar      10 UNK        -0.1009 
     11 C11        18.6786  -30.1237  -41.2988 C.ar      10 UNK        -0.0712 
     12 C12        19.3214  -30.5318  -42.4743 C.ar      10 UNK        -0.0894 
     13 C13        18.9068  -30.0506  -43.7190 C.ar      10 UNK        -0.0745 
     14 C14        17.8174  -29.1780  -43.7834 C.ar      10 UNK        -0.0972 
     15 C15        19.6115  -30.5024  -44.9928 C.3       10 UNK         0.0209 
     16 S16        19.9488  -29.1288  -46.1478 S.3       10 UNK        -0.2568 
     17 C17        21.6062  -28.5462  -45.6458 C.3       10 UNK        -0.0983 
     18 CA         21.6406  -27.2995  -44.7164 C.3       3 UNK         0.0876 
     19 N          20.6938  -26.2577  -45.1373 N.am      3 UNK        -0.4424 
     20 C          20.8546  -24.9383  -44.9792 C.2       2 UNK         0.4918 
     21 O          21.8680  -24.4368  -44.4939 O.2       2 UNK        -0.4875 
     22 CA         19.6881  -24.0095  -45.3726 C.3       2 UNK         0.0481 
     23 CB         19.9495  -23.3282  -46.7303 C.3       2 UNK        -0.1831 
     24 N          18.3522  -24.6252  -45.3137 N.am      2 UNK        -0.4498 
     25 C          17.8057  -25.5393  -46.1288 C.2       1 UNK         0.5027 
     26 O          18.3954  -26.0249  -47.0949 O.2       1 UNK        -0.4969 
     27 C          21.5492  -27.6545  -43.2119 C.2       3 UNK         0.5005 
     28 O          22.2219  -28.5914  -42.7779 O.2       3 UNK        -0.5279 
     29 N          20.7522  -26.9017  -42.4379 N.am      4 UNK        -0.4463 
     30 CA         20.6293  -27.0159  -40.9835 C.3       4 UNK         0.0283 
     31 CB         19.5027  -26.0953  -40.4898 C.3       4 UNK        -0.1875 
     32 C          21.9355  -26.6975  -40.2373 C.2       4 UNK         0.4949 
     33 O          22.7164  -25.8597  -40.6943 O.2       4 UNK        -0.5039 
     34 N          22.1054  -27.3445  -39.0742 N.am      5 UNK        -0.4663 
     35 CA         23.2444  -27.2343  -38.1520 C.3       5 UNK         0.0242 
     36 CB         23.2943  -25.8326  -37.5061 C.3       5 UNK        -0.1982 
     37 C          24.5780  -27.6502  -38.8041 C.2       5 UNK         0.5017 
     38 O          25.5920  -26.9691  -38.6373 O.2       5 UNK        -0.5012 
     39 N          24.5442  -28.7654  -39.5401 N.am      6 UNK        -0.4439 
     40 CA         25.6735  -29.3565  -40.2488 C.3       6 UNK         0.0297 
     41 CB         25.7385  -28.7755  -41.6742 C.3       6 UNK        -0.2006 
     42 C          25.5024  -30.8798  -40.2727 C.2       6 UNK         0.4892 
     43 O          24.4452  -31.3891  -39.8919 O.2       6 UNK        -0.5089 
     44 N          26.5332  -31.5813  -40.7641 N.am      7 UNK        -0.4243 
     45 CA         26.5882  -33.0442  -40.9030 C.3       7 UNK         0.0196 
     46 CB         27.9971  -33.4455  -41.3715 C.3       7 UNK        -0.2007 
     47 C          25.5167  -33.6544  -41.8311 C.2       7 UNK         0.5020 
     48 O          25.3219  -34.8695  -41.8064 O.2       7 UNK        -0.5147 
     49 N          24.8366  -32.8135  -42.6220 N.am      8 UNK        -0.4734 
     50 CA         23.6751  -33.1731  -43.4358 C.3       8 UNK         0.0238 
     51 CB         23.3769  -32.0218  -44.4085 C.3       8 UNK        -0.1912 
     52 C          22.4215  -33.5108  -42.6044 C.2       8 UNK         0.5038 
     53 O          21.5483  -34.2126  -43.1163 O.2       8 UNK        -0.5046 
     54 N          22.3397  -33.0133  -41.3612 N.am      9 UNK        -0.4200 
     55 CA         21.2696  -33.3402  -40.4084 C.3       9 UNK         0.0839 
     56 C          21.3685  -34.8067  -39.9110 C.2       9 UNK         0.5513 
     57 N          20.2461  -35.5053  -39.8082 N.am      9 UNK        -0.7519 
     58 O          22.4429  -35.2978  -39.5721 O.2       9 UNK        -0.4960 
     59 C59        21.2412  -32.3624  -39.2052 C.3       10 UNK        -0.0876 
     60 S60        20.9242  -30.6366  -39.6997 S.3       10 UNK        -0.2414 
     61 C61        19.1134  -30.6659  -39.9397 C.3       10 UNK         0.0169 
     62 H62        14.0059  -25.7366  -49.0326 H         1 UNK         0.0903 
     63 H63        13.2897  -24.2028  -48.5346 H         1 UNK         0.0903 
     64 H64        14.7273  -24.2148  -49.5596 H         1 UNK         0.0903 
     65 H65        15.2067  -26.6962  -47.4274 H         1 UNK         0.3096 
     66 H66        16.4698  -27.1189  -45.7195 H         1 UNK         0.1121 
     67 H67        14.7127  -25.8726  -44.4045 H         1 UNK         0.0849 
     68 H68        15.6829  -24.4381  -44.4721 H         1 UNK         0.0849 
     69 H69        15.4103  -27.7905  -41.8134 H         1 UNK         0.0865 
     70 H70        15.3533  -28.0595  -43.5355 H         1 UNK         0.0865 
     71 H71        17.1099  -28.8975  -40.4793 H         1 UNK         0.1346 
     72 H72        20.1527  -31.2206  -42.4187 H         1 UNK         0.1412 
     73 H73        17.4793  -28.8270  -44.7457 H         1 UNK         0.1426 
     74 H74        18.9706  -31.2268  -45.4967 H         1 UNK         0.0716 
     75 H75        20.5399  -31.0240  -44.7612 H         1 UNK         0.0716 
     76 H76        22.1212  -28.2887  -46.5724 H         1 UNK         0.0695 
     77 H77        22.1828  -29.3756  -45.2361 H         1 UNK         0.0695 
     78 H78        22.6441  -26.8804  -44.8206 H         1 UNK         0.0983 
     79 H79        19.8571  -26.5876  -45.6026 H         1 UNK         0.3095 
     80 H80        19.6655  -23.2207  -44.6191 H         1 UNK         0.0454 
     81 H81        20.0521  -24.0509  -47.5401 H         1 UNK         0.0851 
     82 H82        20.8727  -22.7483  -46.7007 H         1 UNK         0.0851 
     83 H83        19.1442  -22.6419  -46.9921 H         1 UNK         0.0851 
     84 H84        17.7901  -24.3404  -44.5222 H         1 UNK         0.2976 
     85 H85        20.2515  -26.1444  -42.8753 H         1 UNK         0.3116 
     86 H86        20.3535  -28.0445  -40.7627 H         1 UNK         0.0646 
     87 H87        19.6681  -25.0579  -40.7826 H         1 UNK         0.0847 
     88 H88        19.4223  -26.1181  -39.4021 H         1 UNK         0.0847 
     89 H89        18.5381  -26.4106  -40.8818 H         1 UNK         0.0847 
     90 H90        21.4014  -28.0210  -38.8098 H         1 UNK         0.3040 
     91 H91        23.0652  -27.9552  -37.3525 H         1 UNK         0.1015 
     92 H92        23.5240  -25.0562  -38.2365 H         1 UNK         0.0786 
     93 H93        24.0617  -25.7865  -36.7324 H         1 UNK         0.0786 
     94 H94        22.3450  -25.5790  -37.0344 H         1 UNK         0.0786 
     95 H95        23.6896  -29.3077  -39.5898 H         1 UNK         0.3172 
     96 H96        26.6007  -29.1326  -39.7171 H         1 UNK         0.0595 
     97 H97        24.8474  -29.0272  -42.2508 H         1 UNK         0.0839 
     98 H98        26.6024  -29.1522  -42.2226 H         1 UNK         0.0839 
     99 H99        25.8214  -27.6886  -41.6544 H         1 UNK         0.0839 
    100 H100       27.3565  -31.0769  -41.0612 H         1 UNK         0.2998 
    101 H101       26.4224  -33.4710  -39.9115 H         1 UNK         0.0822 
    102 H102       28.7611  -33.1082  -40.6707 H         1 UNK         0.0787 
    103 H103       28.0904  -34.5298  -41.4494 H         1 UNK         0.0787 
    104 H104       28.2297  -33.0277  -42.3519 H         1 UNK         0.0787 
    105 H105       25.0741  -31.8336  -42.5790 H         1 UNK         0.3055 
    106 H106       23.9301  -34.0621  -44.0171 H         1 UNK         0.1106 
    107 H107       23.0886  -31.1145  -43.8755 H         1 UNK         0.0828 
    108 H108       22.5596  -32.2837  -45.0814 H         1 UNK         0.0828 
    109 H109       24.2414  -31.7884  -45.0300 H         1 UNK         0.0828 
    110 H110       23.1046  -32.4574  -40.9939 H         1 UNK         0.2931 
    111 H111       20.3229  -33.2346  -40.9422 H         1 UNK         0.0412 
    112 H112       20.2884  -36.4542  -39.4696 H         1 UNK         0.3472 
    113 H113       19.3583  -35.1094  -40.0763 H         1 UNK         0.3472 
    114 H114       22.1919  -32.3940  -38.6696 H         1 UNK         0.0970 
    115 H115       20.4808  -32.6581  -38.4796 H         1 UNK         0.0970 
    116 H116       18.7316  -31.6825  -39.8422 H         1 UNK         0.0612 
    117 H117       18.6580  -30.0897  -39.1330 H         1 UNK         0.0612 
@<TRIPOS>BOND
     1    1    2 1    
     2    1   62 1    
     3    1   63 1    
     4    1   64 1    
     5    2    3 2    
     6    2    4 am   BACKBONE|DICT|INTERRES
     7    4    5 1    
     8    4   65 1    
     9    5    6 1    
    10    5   25 1    
    11    5   66 1    
    12    6    7 1    
    13    6   67 1    
    14    6   68 1    
    15    7    8 1    
    16    8    9 1    
    17    8   69 1    
    18    8   70 1    
    19    9   10 ar   
    20    9   14 ar   
    21   10   11 ar   
    22   10   71 1    
    23   11   12 ar   
    24   11   61 1    
    25   12   13 ar   
    26   12   72 1    
    27   13   14 ar   
    28   13   15 1    
    29   14   73 1    
    30   15   16 1    
    31   15   74 1    
    32   15   75 1    
    33   16   17 1    
    34   17   18 1    
    35   17   76 1    
    36   17   77 1    
    37   18   19 1    
    38   18   27 1    
    39   18   78 1    
    40   19   20 am   BACKBONE|DICT|INTERRES
    41   19   79 1    
    42   20   21 2    
    43   20   22 1    
    44   22   23 1    
    45   22   24 1    
    46   22   80 1    
    47   23   81 1    
    48   23   82 1    
    49   23   83 1    
    50   24   25 am   BACKBONE|DICT|INTERRES
    51   24   84 1    
    52   25   26 2    
    53   27   28 2    
    54   27   29 am   BACKBONE|DICT|INTERRES
    55   29   30 1    
    56   29   85 1    
    57   30   31 1    
    58   30   32 1    
    59   30   86 1    
    60   31   87 1    
    61   31   88 1    
    62   31   89 1    
    63   32   33 2    
    64   32   34 am   BACKBONE|DICT|INTERRES
    65   34   35 1    
    66   34   90 1    
    67   35   36 1    
    68   35   37 1    
    69   35   91 1    
    70   36   92 1    
    71   36   93 1    
    72   36   94 1    
    73   37   38 2    
    74   37   39 am   BACKBONE|DICT|INTERRES
    75   39   40 1    
    76   39   95 1    
    77   40   41 1    
    78   40   42 1    
    79   40   96 1    
    80   41   97 1    
    81   41   98 1    
    82   41   99 1    
    83   42   43 2    
    84   42   44 am   BACKBONE|DICT|INTERRES
    85   44   45 1    
    86   44  100 1    
    87   45   46 1    
    88   45   47 1    
    89   45  101 1    
    90   46  102 1    
    91   46  103 1    
    92   46  104 1    
    93   47   48 2    
    94   47   49 am   BACKBONE|DICT|INTERRES
    95   49   50 1    
    96   49  105 1    
    97   50   51 1    
    98   50   52 1    
    99   50  106 1    
   100   51  107 1    
   101   51  108 1    
   102   51  109 1    
   103   52   53 2    
   104   52   54 am   BACKBONE|DICT|INTERRES
   105   54   55 1    
   106   54  110 1    
   107   55   56 1    
   108   55   59 1    
   109   55  111 1    
   110   56   57 am   BACKBONE|DICT|INTERRES
   111   56   58 2    
   112   57  112 1    
   113   57  113 1    
   114   59   60 1    
   115   59  114 1    
   116   59  115 1    
   117   60   61 1    
   118   61  116 1    
   119   61  117 1    
@<TRIPOS>SUBSTRUCTURE
     1 UNK         1 GROUP             0       ****    0 ROOT    
