@<TRIPOS>MOLECULE
3R8
117   119    1
SMALL
USER_CHARGES


@<TRIPOS>ATOM
      1 CA         13.5561  -22.7666  -44.5891 C.3       0 UNK        -0.2013 
      2 C          14.7078  -23.7474  -44.4309 C.2       0 UNK         0.4866 
      3 O          15.0640  -24.0964  -43.3054 O.2       0 UNK        -0.5176 
      4 N          15.3077  -24.1812  -45.5485 N.am      1 UNK        -0.4884 
      5 CA         16.4134  -25.1482  -45.6704 C.3       1 UNK         0.0853 
      6 C6         16.0924  -26.5263  -45.0254 C.3       10 UNK        -0.0849 
      7 S7         16.7942  -27.9164  -45.9720 S.3       10 UNK        -0.2776 
      8 C8         16.4583  -29.3147  -44.8560 C.3       10 UNK         0.0316 
      9 C9         17.5973  -29.5295  -43.8708 C.ar      10 UNK        -0.0863 
     10 C10        18.7141  -30.2790  -44.2536 C.ar      10 UNK        -0.1009 
     11 C11        19.7649  -30.4933  -43.3583 C.ar      10 UNK        -0.0712 
     12 C12        19.6948  -29.9535  -42.0721 C.ar      10 UNK        -0.0894 
     13 C13        18.5867  -29.1986  -41.6785 C.ar      10 UNK        -0.0745 
     14 C14        17.5363  -28.9947  -42.5798 C.ar      10 UNK        -0.0972 
     15 C15        18.5328  -28.5910  -40.2850 C.3       10 UNK         0.0209 
     16 S16        18.7930  -26.7897  -40.3259 S.3       10 UNK        -0.2568 
     17 C17        20.5255  -26.6578  -40.8929 C.3       10 UNK        -0.0983 
     18 CA         20.6584  -26.4803  -42.4334 C.3       3 UNK         0.0876 
     19 N          19.8222  -25.4050  -42.9781 N.am      3 UNK        -0.4424 
     20 C          19.9583  -24.0864  -42.7839 C.2       2 UNK         0.4918 
     21 O          20.8459  -23.5833  -42.0941 O.2       2 UNK        -0.4875 
     22 CA         18.9242  -23.1560  -43.4516 C.3       2 UNK         0.0481 
     23 CB         19.6075  -22.1631  -44.4143 C.3       2 UNK        -0.1831 
     24 N          17.7930  -23.8338  -44.1054 N.am      2 UNK        -0.4498 
     25 C          17.7828  -24.6009  -45.2054 C.2       1 UNK         0.5027 
     26 O          18.7971  -24.8892  -45.8410 O.2       1 UNK        -0.4969 
     27 C          22.1256  -26.3563  -42.9003 C.2       3 UNK         0.5005 
     28 O          23.0477  -26.5157  -42.0991 O.2       3 UNK        -0.5279 
     29 N          22.3185  -26.0606  -44.1960 N.am      4 UNK        -0.4463 
     30 CA         23.6154  -25.7661  -44.8205 C.3       4 UNK         0.0283 
     31 CB         23.3910  -25.3804  -46.2913 C.3       4 UNK        -0.1875 
     32 C          24.6622  -26.8917  -44.7148 C.2       4 UNK         0.4949 
     33 O          25.8565  -26.5978  -44.6668 O.2       4 UNK        -0.5039 
     34 N          24.2011  -28.1480  -44.6590 N.am      5 UNK        -0.4663 
     35 CA         25.0356  -29.3399  -44.4693 C.3       5 UNK         0.0242 
     36 CB         24.5036  -30.4669  -45.3735 C.3       5 UNK        -0.1982 
     37 C          25.1288  -29.7828  -42.9930 C.2       5 UNK         0.5017 
     38 O          25.6425  -30.8728  -42.7380 O.2       5 UNK        -0.5012 
     39 N          24.6445  -28.9407  -42.0637 N.am      6 UNK        -0.4439 
     40 CA         24.5099  -29.1332  -40.6130 C.3       6 UNK         0.0297 
     41 CB         25.8450  -29.5391  -39.9549 C.3       6 UNK        -0.2006 
     42 C          23.3836  -30.1119  -40.2453 C.2       6 UNK         0.4892 
     43 O          23.0013  -30.9671  -41.0448 O.2       6 UNK        -0.5089 
     44 N          22.8843  -30.0016  -39.0074 N.am      7 UNK        -0.4243 
     45 CA         21.8095  -30.8277  -38.4365 C.3       7 UNK         0.0196 
     46 CB         21.2002  -30.0850  -37.2327 C.3       7 UNK        -0.2007 
     47 C          22.2424  -32.2716  -38.0882 C.2       7 UNK         0.5020 
     48 O          21.8220  -32.8152  -37.0659 O.2       7 UNK        -0.5147 
     49 N          23.0743  -32.8671  -38.9460 N.am      8 UNK        -0.4734 
     50 CA         23.5909  -34.2327  -38.8623 C.3       8 UNK         0.0238 
     51 CB         24.9356  -34.2234  -38.1101 C.3       8 UNK        -0.1912 
     52 C          23.7107  -34.8761  -40.2574 C.2       8 UNK         0.5038 
     53 O          24.3643  -35.9132  -40.3840 O.2       8 UNK        -0.5046 
     54 N          23.1034  -34.2549  -41.2793 N.am      9 UNK        -0.4200 
     55 CA         23.0601  -34.7361  -42.6667 C.3       9 UNK         0.0839 
     56 C          22.3018  -36.0835  -42.8435 C.2       9 UNK         0.5513 
     57 N          22.6014  -36.8236  -43.9028 N.am      9 UNK        -0.7519 
     58 O          21.4335  -36.4518  -42.0541 O.2       9 UNK        -0.4960 
     59 C59        22.5344  -33.6348  -43.6269 C.3       10 UNK        -0.0876 
     60 S60        20.8651  -33.0166  -43.2085 S.3       10 UNK        -0.2414 
     61 C61        20.9840  -31.2953  -43.7777 C.3       10 UNK         0.0169 
     62 H62        13.3504  -22.5427  -45.6355 H         1 UNK         0.0903 
     63 H63        12.6500  -23.1791  -44.1466 H         1 UNK         0.0903 
     64 H64        13.7878  -21.8311  -44.0811 H         1 UNK         0.0903 
     65 H65        14.9800  -23.8170  -46.4335 H         1 UNK         0.3096 
     66 H66        16.5101  -25.2959  -46.7479 H         1 UNK         0.1121 
     67 H67        15.0131  -26.6846  -44.9975 H         1 UNK         0.0849 
     68 H68        16.4227  -26.5721  -43.9858 H         1 UNK         0.0849 
     69 H69        15.5142  -29.1603  -44.3311 H         1 UNK         0.0865 
     70 H70        16.3230  -30.2161  -45.4557 H         1 UNK         0.0865 
     71 H71        18.7652  -30.6945  -45.2510 H         1 UNK         0.1346 
     72 H72        20.5116  -30.1156  -41.3838 H         1 UNK         0.1412 
     73 H73        16.6782  -28.4106  -42.2761 H         1 UNK         0.1426 
     74 H74        19.2728  -29.0495  -39.6274 H         1 UNK         0.0716 
     75 H75        17.5586  -28.7972  -39.8397 H         1 UNK         0.0716 
     76 H76        20.9774  -25.8099  -40.3751 H         1 UNK         0.0695 
     77 H77        21.0738  -27.5408  -40.5592 H         1 UNK         0.0695 
     78 H78        20.2925  -27.3923  -42.9033 H         1 UNK         0.0983 
     79 H79        19.0649  -25.7034  -43.5745 H         1 UNK         0.3095 
     80 H80        18.4816  -22.5736  -42.6422 H         1 UNK         0.0454 
     81 H81        20.3472  -21.5574  -43.8893 H         1 UNK         0.0851 
     82 H82        18.8853  -21.4769  -44.8565 H         1 UNK         0.0851 
     83 H83        20.1282  -22.6729  -45.2254 H         1 UNK         0.0851 
     84 H84        16.8938  -23.7285  -43.6400 H         1 UNK         0.2976 
     85 H85        21.5021  -25.9378  -44.7796 H         1 UNK         0.3116 
     86 H86        24.0281  -24.8976  -44.3028 H         1 UNK         0.0646 
     87 H87        22.7388  -24.5113  -46.3805 H         1 UNK         0.0847 
     88 H88        22.9437  -26.1969  -46.8596 H         1 UNK         0.0847 
     89 H89        24.3342  -25.1250  -46.7766 H         1 UNK         0.0847 
     90 H90        23.2026  -28.2926  -44.7042 H         1 UNK         0.3040 
     91 H91        26.0587  -29.1245  -44.7857 H         1 UNK         0.1015 
     92 H92        25.1157  -31.3659  -45.2887 H         1 UNK         0.0786 
     93 H93        24.5178  -30.1695  -46.4222 H         1 UNK         0.0786 
     94 H94        23.4821  -30.7429  -45.1201 H         1 UNK         0.0786 
     95 H95        24.2271  -28.0749  -42.3930 H         1 UNK         0.3172 
     96 H96        24.2276  -28.1563  -40.2176 H         1 UNK         0.0595 
     97 H97        25.7750  -29.4942  -38.8676 H         1 UNK         0.0839 
     98 H98        26.6541  -28.8724  -40.2531 H         1 UNK         0.0839 
     99 H99        26.1364  -30.5579  -40.2124 H         1 UNK         0.0839 
    100 H100       23.2799  -29.3053  -38.3917 H         1 UNK         0.2998 
    101 H101       21.0248  -30.9243  -39.1890 H         1 UNK         0.0822 
    102 H102       20.8571  -29.0884  -37.5118 H         1 UNK         0.0787 
    103 H103       20.3364  -30.6202  -36.8359 H         1 UNK         0.0787 
    104 H104       21.9201  -29.9783  -36.4203 H         1 UNK         0.0787 
    105 H105       23.3413  -32.3309  -39.7681 H         1 UNK         0.3055 
    106 H106       22.8839  -34.8510  -38.3045 H         1 UNK         0.1106 
    107 H107       24.8279  -33.8012  -37.1109 H         1 UNK         0.0828 
    108 H108       25.3287  -35.2338  -37.9903 H         1 UNK         0.0828 
    109 H109       25.6876  -33.6394  -38.6419 H         1 UNK         0.0828 
    110 H110       22.5574  -33.4250  -41.0979 H         1 UNK         0.2931 
    111 H111       24.0979  -34.9300  -42.9459 H         1 UNK         0.0412 
    112 H112       23.3095  -36.5341  -44.5598 H         1 UNK         0.3472 
    113 H113       22.1153  -37.6958  -44.0440 H         1 UNK         0.3472 
    114 H114       23.2339  -32.7972  -43.6072 H         1 UNK         0.0970 
    115 H115       22.5293  -33.9878  -44.6596 H         1 UNK         0.0970 
    116 H116       21.8797  -30.8290  -43.3679 H         1 UNK         0.0612 
    117 H117       21.0942  -31.2840  -44.8630 H         1 UNK         0.0612 
@<TRIPOS>BOND
     1    1    2 1    
     2    1   62 1    
     3    1   63 1    
     4    1   64 1    
     5    2    3 2    
     6    2    4 am   BACKBONE|DICT|INTERRES
     7    4    5 1    
     8    4   65 1    
     9    5    6 1    
    10    5   25 1    
    11    5   66 1    
    12    6    7 1    
    13    6   67 1    
    14    6   68 1    
    15    7    8 1    
    16    8    9 1    
    17    8   69 1    
    18    8   70 1    
    19    9   10 ar   
    20    9   14 ar   
    21   10   11 ar   
    22   10   71 1    
    23   11   12 ar   
    24   11   61 1    
    25   12   13 ar   
    26   12   72 1    
    27   13   14 ar   
    28   13   15 1    
    29   14   73 1    
    30   15   16 1    
    31   15   74 1    
    32   15   75 1    
    33   16   17 1    
    34   17   18 1    
    35   17   76 1    
    36   17   77 1    
    37   18   19 1    
    38   18   27 1    
    39   18   78 1    
    40   19   20 am   BACKBONE|DICT|INTERRES
    41   19   79 1    
    42   20   21 2    
    43   20   22 1    
    44   22   23 1    
    45   22   24 1    
    46   22   80 1    
    47   23   81 1    
    48   23   82 1    
    49   23   83 1    
    50   24   25 am   BACKBONE|DICT|INTERRES
    51   24   84 1    
    52   25   26 2    
    53   27   28 2    
    54   27   29 am   BACKBONE|DICT|INTERRES
    55   29   30 1    
    56   29   85 1    
    57   30   31 1    
    58   30   32 1    
    59   30   86 1    
    60   31   87 1    
    61   31   88 1    
    62   31   89 1    
    63   32   33 2    
    64   32   34 am   BACKBONE|DICT|INTERRES
    65   34   35 1    
    66   34   90 1    
    67   35   36 1    
    68   35   37 1    
    69   35   91 1    
    70   36   92 1    
    71   36   93 1    
    72   36   94 1    
    73   37   38 2    
    74   37   39 am   BACKBONE|DICT|INTERRES
    75   39   40 1    
    76   39   95 1    
    77   40   41 1    
    78   40   42 1    
    79   40   96 1    
    80   41   97 1    
    81   41   98 1    
    82   41   99 1    
    83   42   43 2    
    84   42   44 am   BACKBONE|DICT|INTERRES
    85   44   45 1    
    86   44  100 1    
    87   45   46 1    
    88   45   47 1    
    89   45  101 1    
    90   46  102 1    
    91   46  103 1    
    92   46  104 1    
    93   47   48 2    
    94   47   49 am   BACKBONE|DICT|INTERRES
    95   49   50 1    
    96   49  105 1    
    97   50   51 1    
    98   50   52 1    
    99   50  106 1    
   100   51  107 1    
   101   51  108 1    
   102   51  109 1    
   103   52   53 2    
   104   52   54 am   BACKBONE|DICT|INTERRES
   105   54   55 1    
   106   54  110 1    
   107   55   56 1    
   108   55   59 1    
   109   55  111 1    
   110   56   57 am   BACKBONE|DICT|INTERRES
   111   56   58 2    
   112   57  112 1    
   113   57  113 1    
   114   59   60 1    
   115   59  114 1    
   116   59  115 1    
   117   60   61 1    
   118   61  116 1    
   119   61  117 1    
@<TRIPOS>SUBSTRUCTURE
     1 UNK         1 GROUP             0       ****    0 ROOT    
