@<TRIPOS>MOLECULE
3R8
117   119    1
SMALL
USER_CHARGES


@<TRIPOS>ATOM
      1 CA         13.2499  -23.4291  -41.4333 C.3       0 UNK        -0.2013 
      2 C          13.9723  -23.7630  -42.7300 C.2       0 UNK         0.4866 
      3 O          13.6356  -23.2112  -43.7784 O.2       0 UNK        -0.5176 
      4 N          14.9560  -24.6689  -42.6696 N.am      1 UNK        -0.4884 
      5 CA         15.7886  -25.0781  -43.8058 C.3       1 UNK         0.0853 
      6 C6         16.5878  -26.3657  -43.4958 C.3       10 UNK        -0.0849 
      7 S7         15.5120  -27.8121  -43.2018 S.3       10 UNK        -0.2776 
      8 C8         15.8956  -28.8808  -44.6329 C.3       10 UNK         0.0316 
      9 C9         17.3745  -29.2427  -44.7067 C.ar      10 UNK        -0.0863 
     10 C10        17.9789  -29.9532  -43.6671 C.ar      10 UNK        -0.1009 
     11 C11        19.3456  -30.2427  -43.7015 C.ar      10 UNK        -0.0712 
     12 C12        20.1054  -29.8338  -44.8041 C.ar      10 UNK        -0.0894 
     13 C13        19.5165  -29.1191  -45.8534 C.ar      10 UNK        -0.0745 
     14 C14        18.1449  -28.8428  -45.8024 C.ar      10 UNK        -0.0972 
     15 C15        20.3589  -28.6779  -47.0495 C.3       10 UNK         0.0209 
     16 S16        20.0084  -26.9679  -47.5970 S.3       10 UNK        -0.2568 
     17 C17        21.3567  -25.9760  -46.8543 C.3       10 UNK        -0.0983 
     18 CA         21.0094  -25.2476  -45.5219 C.3       3 UNK         0.0876 
     19 N          19.7086  -24.5870  -45.5558 N.am      3 UNK        -0.4424 
     20 C          19.4500  -23.3946  -46.1001 C.2       2 UNK         0.4918 
     21 O          20.3197  -22.6721  -46.5893 O.2       2 UNK        -0.4875 
     22 CA         17.9806  -22.9248  -46.1350 C.3       2 UNK         0.0481 
     23 CB         17.5360  -22.6549  -47.5831 C.3       2 UNK        -0.1831 
     24 N          17.0451  -23.8802  -45.5310 N.am      2 UNK        -0.4498 
     25 C          16.7544  -23.9504  -44.2254 C.2       1 UNK         0.5027 
     26 O          17.2465  -23.2079  -43.3717 O.2       1 UNK        -0.4969 
     27 C          21.0729  -26.1824  -44.3042 C.2       3 UNK         0.5005 
     28 O          20.0492  -26.4393  -43.6649 O.2       3 UNK        -0.5279 
     29 N          22.2822  -26.6765  -44.0217 N.am      4 UNK        -0.4463 
     30 CA         22.5757  -27.7458  -43.0777 C.3       4 UNK         0.0283 
     31 CB         22.9570  -27.1682  -41.7049 C.3       4 UNK        -0.1875 
     32 C          23.7271  -28.5492  -43.6885 C.2       4 UNK         0.4949 
     33 O          24.6872  -27.9437  -44.1703 O.2       4 UNK        -0.5039 
     34 N          23.6095  -29.8820  -43.6879 N.am      5 UNK        -0.4663 
     35 CA         24.6110  -30.7835  -44.2692 C.3       5 UNK         0.0242 
     36 CB         23.9422  -32.1236  -44.6162 C.3       5 UNK        -0.1982 
     37 C          25.8132  -31.0089  -43.3377 C.2       5 UNK         0.5017 
     38 O          26.9254  -31.2226  -43.8202 O.2       5 UNK        -0.5012 
     39 N          25.5533  -30.9551  -42.0284 N.am      6 UNK        -0.4439 
     40 CA         26.4533  -31.1685  -40.9008 C.3       6 UNK         0.0297 
     41 CB         27.0588  -32.5898  -40.9341 C.3       6 UNK        -0.2006 
     42 C          25.6172  -30.9456  -39.6306 C.2       6 UNK         0.4892 
     43 O          24.4235  -30.6349  -39.7326 O.2       6 UNK        -0.5089 
     44 N          26.2385  -31.1283  -38.4572 N.am      7 UNK        -0.4243 
     45 CA         25.5709  -31.1199  -37.1519 C.3       7 UNK         0.0196 
     46 CB         26.6114  -31.3322  -36.0404 C.3       7 UNK        -0.2007 
     47 C          24.4738  -32.1969  -37.0900 C.2       7 UNK         0.5020 
     48 O          24.7606  -33.3683  -37.3470 O.2       7 UNK        -0.5147 
     49 N          23.2332  -31.7646  -36.8225 N.am      8 UNK        -0.4734 
     50 CA         21.9966  -32.5624  -36.8559 C.3       8 UNK         0.0238 
     51 CB         21.9805  -33.5871  -35.7009 C.3       8 UNK        -0.1912 
     52 C          21.7136  -33.2138  -38.2293 C.2       8 UNK         0.5038 
     53 O          21.0552  -34.2540  -38.2847 O.2       8 UNK        -0.5046 
     54 N          22.2187  -32.5963  -39.3085 N.am      9 UNK        -0.4200 
     55 CA         22.1976  -33.1013  -40.6908 C.3       9 UNK         0.0839 
     56 C          23.1440  -34.3150  -40.9468 C.2       9 UNK         0.5513 
     57 N          24.0367  -34.6719  -40.0295 N.am      9 UNK        -0.7519 
     58 O          23.0901  -34.9312  -42.0072 O.2       9 UNK        -0.4960 
     59 C59        20.7499  -33.3146  -41.2323 C.3       10 UNK        -0.0876 
     60 S60        20.4984  -32.6515  -42.9151 S.3       10 UNK        -0.2414 
     61 C61        19.9931  -30.9505  -42.5185 C.3       10 UNK         0.0169 
     62 H62        13.6390  -24.0003  -40.5906 H         1 UNK         0.0903 
     63 H63        13.3608  -22.3695  -41.2046 H         1 UNK         0.0903 
     64 H64        12.1867  -23.6480  -41.5288 H         1 UNK         0.0903 
     65 H65        15.1962  -25.0870  -41.7821 H         1 UNK         0.3096 
     66 H66        15.1217  -25.2806  -44.6474 H         1 UNK         0.1121 
     67 H67        17.2748  -26.5904  -44.3124 H         1 UNK         0.0849 
     68 H68        17.2195  -26.2255  -42.6160 H         1 UNK         0.0849 
     69 H69        15.3081  -29.7970  -44.5592 H         1 UNK         0.0865 
     70 H70        15.5691  -28.3805  -45.5460 H         1 UNK         0.0865 
     71 H71        17.3845  -30.2536  -42.8149 H         1 UNK         0.1346 
     72 H72        21.1583  -30.0679  -44.8442 H         1 UNK         0.1412 
     73 H73        17.6797  -28.2982  -46.6125 H         1 UNK         0.1426 
     74 H74        20.1441  -29.3523  -47.8792 H         1 UNK         0.0716 
     75 H75        21.4237  -28.7858  -46.8382 H         1 UNK         0.0716 
     76 H76        22.2554  -26.5875  -46.7596 H         1 UNK         0.0695 
     77 H77        21.6165  -25.2185  -47.5952 H         1 UNK         0.0695 
     78 H78        21.7676  -24.4811  -45.3445 H         1 UNK         0.0983 
     79 H79        18.9710  -25.1107  -45.1062 H         1 UNK         0.3095 
     80 H80        17.9299  -21.9813  -45.5877 H         1 UNK         0.0454 
     81 H81        18.1675  -21.9004  -48.0540 H         1 UNK         0.0851 
     82 H82        17.5925  -23.5546  -48.1973 H         1 UNK         0.0851 
     83 H83        16.5118  -22.2835  -47.6222 H         1 UNK         0.0851 
     84 H84        16.6110  -24.5359  -46.1658 H         1 UNK         0.2976 
     85 H85        23.0739  -26.4224  -44.6006 H         1 UNK         0.3116 
     86 H86        21.6999  -28.3848  -42.9658 H         1 UNK         0.0646 
     87 H87        23.1905  -27.9655  -40.9977 H         1 UNK         0.0847 
     88 H88        22.1385  -26.5865  -41.2806 H         1 UNK         0.0847 
     89 H89        23.8316  -26.5196  -41.7679 H         1 UNK         0.0847 
     90 H90        22.7943  -30.3110  -43.2764 H         1 UNK         0.3040 
     91 H91        24.9897  -30.3438  -45.1953 H         1 UNK         0.1015 
     92 H92        23.1145  -31.9878  -45.3127 H         1 UNK         0.0786 
     93 H93        23.5552  -32.6270  -43.7297 H         1 UNK         0.0786 
     94 H94        24.6535  -32.8025  -45.0886 H         1 UNK         0.0786 
     95 H95        24.6153  -30.7210  -41.7245 H         1 UNK         0.3172 
     96 H96        27.2466  -30.4198  -40.9326 H         1 UNK         0.0595 
     97 H97        27.6847  -32.7420  -41.8129 H         1 UNK         0.0839 
     98 H98        26.2837  -33.3554  -40.9450 H         1 UNK         0.0839 
     99 H99        27.6931  -32.7802  -40.0682 H         1 UNK         0.0839 
    100 H100       27.2118  -31.3961  -38.4613 H         1 UNK         0.2998 
    101 H101       25.1180  -30.1354  -37.0164 H         1 UNK         0.0822 
    102 H102       27.3692  -30.5485  -36.0496 H         1 UNK         0.0787 
    103 H103       26.1395  -31.3144  -35.0570 H         1 UNK         0.0787 
    104 H104       27.1190  -32.2927  -36.1404 H         1 UNK         0.0787 
    105 H105       23.1038  -30.7760  -36.6513 H         1 UNK         0.3055 
    106 H106       21.1749  -31.8644  -36.6872 H         1 UNK         0.1106 
    107 H107       22.7312  -34.3657  -35.8395 H         1 UNK         0.0828 
    108 H108       22.1685  -33.1068  -34.7408 H         1 UNK         0.0828 
    109 H109       21.0110  -34.0816  -35.6279 H         1 UNK         0.0828 
    110 H110       22.7910  -31.7707  -39.1683 H         1 UNK         0.2931 
    111 H111       22.6503  -32.2879  -41.2585 H         1 UNK         0.0412 
    112 H112       24.6389  -35.4578  -40.2155 H         1 UNK         0.3472 
    113 H113       24.1142  -34.1792  -39.1472 H         1 UNK         0.3472 
    114 H114       20.0158  -32.8482  -40.5743 H         1 UNK         0.0970 
    115 H115       20.4820  -34.3729  -41.2308 H         1 UNK         0.0970 
    116 H116       20.8626  -30.3907  -42.1761 H         1 UNK         0.0612 
    117 H117       19.2987  -30.9681  -41.6772 H         1 UNK         0.0612 
@<TRIPOS>BOND
     1    1    2 1    
     2    1   62 1    
     3    1   63 1    
     4    1   64 1    
     5    2    3 2    
     6    2    4 am   BACKBONE|DICT|INTERRES
     7    4    5 1    
     8    4   65 1    
     9    5    6 1    
    10    5   25 1    
    11    5   66 1    
    12    6    7 1    
    13    6   67 1    
    14    6   68 1    
    15    7    8 1    
    16    8    9 1    
    17    8   69 1    
    18    8   70 1    
    19    9   10 ar   
    20    9   14 ar   
    21   10   11 ar   
    22   10   71 1    
    23   11   12 ar   
    24   11   61 1    
    25   12   13 ar   
    26   12   72 1    
    27   13   14 ar   
    28   13   15 1    
    29   14   73 1    
    30   15   16 1    
    31   15   74 1    
    32   15   75 1    
    33   16   17 1    
    34   17   18 1    
    35   17   76 1    
    36   17   77 1    
    37   18   19 1    
    38   18   27 1    
    39   18   78 1    
    40   19   20 am   BACKBONE|DICT|INTERRES
    41   19   79 1    
    42   20   21 2    
    43   20   22 1    
    44   22   23 1    
    45   22   24 1    
    46   22   80 1    
    47   23   81 1    
    48   23   82 1    
    49   23   83 1    
    50   24   25 am   BACKBONE|DICT|INTERRES
    51   24   84 1    
    52   25   26 2    
    53   27   28 2    
    54   27   29 am   BACKBONE|DICT|INTERRES
    55   29   30 1    
    56   29   85 1    
    57   30   31 1    
    58   30   32 1    
    59   30   86 1    
    60   31   87 1    
    61   31   88 1    
    62   31   89 1    
    63   32   33 2    
    64   32   34 am   BACKBONE|DICT|INTERRES
    65   34   35 1    
    66   34   90 1    
    67   35   36 1    
    68   35   37 1    
    69   35   91 1    
    70   36   92 1    
    71   36   93 1    
    72   36   94 1    
    73   37   38 2    
    74   37   39 am   BACKBONE|DICT|INTERRES
    75   39   40 1    
    76   39   95 1    
    77   40   41 1    
    78   40   42 1    
    79   40   96 1    
    80   41   97 1    
    81   41   98 1    
    82   41   99 1    
    83   42   43 2    
    84   42   44 am   BACKBONE|DICT|INTERRES
    85   44   45 1    
    86   44  100 1    
    87   45   46 1    
    88   45   47 1    
    89   45  101 1    
    90   46  102 1    
    91   46  103 1    
    92   46  104 1    
    93   47   48 2    
    94   47   49 am   BACKBONE|DICT|INTERRES
    95   49   50 1    
    96   49  105 1    
    97   50   51 1    
    98   50   52 1    
    99   50  106 1    
   100   51  107 1    
   101   51  108 1    
   102   51  109 1    
   103   52   53 2    
   104   52   54 am   BACKBONE|DICT|INTERRES
   105   54   55 1    
   106   54  110 1    
   107   55   56 1    
   108   55   59 1    
   109   55  111 1    
   110   56   57 am   BACKBONE|DICT|INTERRES
   111   56   58 2    
   112   57  112 1    
   113   57  113 1    
   114   59   60 1    
   115   59  114 1    
   116   59  115 1    
   117   60   61 1    
   118   61  116 1    
   119   61  117 1    
@<TRIPOS>SUBSTRUCTURE
     1 UNK         1 GROUP             0       ****    0 ROOT    
