@<TRIPOS>MOLECULE
3R8
117   119    1
SMALL
USER_CHARGES


@<TRIPOS>ATOM
      1 CA         19.2471  -25.1913  -50.0103 C.3       0 UNK        -0.2013 
      2 C          19.8395  -26.0289  -48.8868 C.2       0 UNK         0.4866 
      3 O          20.8305  -26.7275  -49.1005 O.2       0 UNK        -0.5176 
      4 N          19.2442  -25.9606  -47.6936 N.am      1 UNK        -0.4884 
      5 CA         19.6613  -26.6812  -46.4918 C.3       1 UNK         0.0853 
      6 C6         19.2349  -28.1776  -46.5012 C.3       10 UNK        -0.0849 
      7 S7         17.4399  -28.4547  -46.7124 S.3       10 UNK        -0.2776 
      8 C8         17.3073  -30.2484  -46.4210 C.3       10 UNK         0.0316 
      9 C9         17.3426  -30.6177  -44.9417 C.ar      10 UNK        -0.0863 
     10 C10        18.3493  -31.4527  -44.4469 C.ar      10 UNK        -0.1009 
     11 C11        18.3573  -31.8410  -43.1025 C.ar      10 UNK        -0.0712 
     12 C12        17.3433  -31.3914  -42.2520 C.ar      10 UNK        -0.0894 
     13 C13        16.3263  -30.5640  -42.7341 C.ar      10 UNK        -0.0745 
     14 C14        16.3328  -30.1783  -44.0787 C.ar      10 UNK        -0.0972 
     15 C15        15.1953  -30.1234  -41.8163 C.3       10 UNK         0.0209 
     16 S16        15.4494  -28.4389  -41.1815 S.3       10 UNK        -0.2568 
     17 C17        16.6249  -28.6977  -39.8033 C.3       10 UNK        -0.0983 
     18 CA         18.1160  -28.4708  -40.1773 C.3       3 UNK         0.0876 
     19 N          18.2890  -27.2614  -40.9909 N.am      3 UNK        -0.4424 
     20 C          19.2781  -27.0800  -41.8682 C.2       2 UNK         0.4918 
     21 O          20.2530  -27.8243  -41.9651 O.2       2 UNK        -0.4875 
     22 CA         19.1525  -25.8610  -42.7854 C.3       2 UNK         0.0481 
     23 CB         19.9019  -24.6439  -42.2205 C.3       2 UNK        -0.1831 
     24 N          19.6884  -26.2312  -44.0906 N.am      2 UNK        -0.4498 
     25 C          19.1191  -25.9341  -45.2616 C.2       1 UNK         0.5027 
     26 O          18.1854  -25.1350  -45.3917 O.2       1 UNK        -0.4969 
     27 C          19.0009  -28.4860  -38.9078 C.2       3 UNK         0.5005 
     28 O          18.9649  -29.4662  -38.1622 O.2       3 UNK        -0.5279 
     29 N          19.7320  -27.3904  -38.6516 N.am      4 UNK        -0.4463 
     30 CA         20.4751  -27.1175  -37.4181 C.3       4 UNK         0.0283 
     31 CB         20.9824  -25.6663  -37.4523 C.3       4 UNK        -0.1875 
     32 C          21.6409  -28.0769  -37.1206 C.2       4 UNK         0.4949 
     33 O          21.9442  -28.2927  -35.9464 O.2       4 UNK        -0.5039 
     34 N          22.2838  -28.6194  -38.1604 N.am      5 UNK        -0.4663 
     35 CA         23.4271  -29.5237  -38.0512 C.3       5 UNK         0.0242 
     36 CB         24.7114  -28.7194  -37.7681 C.3       5 UNK        -0.1982 
     37 C          23.5711  -30.3114  -39.3539 C.2       5 UNK         0.5017 
     38 O          23.1702  -29.8128  -40.4064 O.2       5 UNK        -0.5012 
     39 N          24.2018  -31.4917  -39.2735 N.am      6 UNK        -0.4439 
     40 CA         24.4624  -32.3925  -40.4050 C.3       6 UNK         0.0297 
     41 CB         25.1246  -33.6808  -39.8912 C.3       6 UNK        -0.2006 
     42 C          25.3074  -31.7681  -41.5311 C.2       6 UNK         0.4892 
     43 O          25.1256  -32.1278  -42.6935 O.2       6 UNK        -0.5089 
     44 N          26.1881  -30.8228  -41.1755 N.am      7 UNK        -0.4243 
     45 CA         26.9839  -30.0312  -42.1163 C.3       7 UNK         0.0196 
     46 CB         28.0942  -29.3017  -41.3428 C.3       7 UNK        -0.2007 
     47 C          26.1480  -29.0243  -42.9292 C.2       7 UNK         0.5020 
     48 O          26.5686  -28.6436  -44.0216 O.2       7 UNK        -0.5147 
     49 N          24.9917  -28.6075  -42.3947 N.am      8 UNK        -0.4734 
     50 CA         24.0754  -27.6570  -43.0286 C.3       8 UNK         0.0238 
     51 CB         23.4898  -26.7374  -41.9461 C.3       8 UNK        -0.1912 
     52 C          22.9577  -28.3509  -43.8281 C.2       8 UNK         0.5038 
     53 O          22.2176  -27.6616  -44.5316 O.2       8 UNK        -0.5046 
     54 N          22.8551  -29.6833  -43.7286 N.am      9 UNK        -0.4200 
     55 CA         21.9051  -30.5148  -44.4838 C.3       9 UNK         0.0839 
     56 C          22.1808  -30.5945  -46.0142 C.2       9 UNK         0.5513 
     57 N          23.3387  -30.1757  -46.5111 N.am      9 UNK        -0.7519 
     58 O          21.3200  -31.0456  -46.7645 O.2       9 UNK        -0.4960 
     59 C59        21.7846  -31.9361  -43.8777 C.3       10 UNK        -0.0876 
     60 S60        20.9978  -31.9300  -42.2314 S.3       10 UNK        -0.2414 
     61 C61        19.4272  -32.7847  -42.5705 C.3       10 UNK         0.0169 
     62 H62        19.9880  -24.4841  -50.3825 H         1 UNK         0.0903 
     63 H63        18.9433  -25.8336  -50.8364 H         1 UNK         0.0903 
     64 H64        18.3745  -24.6271  -49.6815 H         1 UNK         0.0903 
     65 H65        18.4499  -25.3508  -47.5379 H         1 UNK         0.3096 
     66 H66        20.7511  -26.6305  -46.4372 H         1 UNK         0.1121 
     67 H67        19.7566  -28.6997  -47.3046 H         1 UNK         0.0849 
     68 H68        19.5530  -28.6646  -45.5792 H         1 UNK         0.0849 
     69 H69        16.3652  -30.6002  -46.8435 H         1 UNK         0.0865 
     70 H70        18.0966  -30.7612  -46.9738 H         1 UNK         0.0865 
     71 H71        19.1177  -31.8144  -45.1150 H         1 UNK         0.1346 
     72 H72        17.3366  -31.6988  -41.2151 H         1 UNK         0.1412 
     73 H73        15.5428  -29.5445  -44.4585 H         1 UNK         0.1426 
     74 H74        15.0707  -30.8204  -40.9863 H         1 UNK         0.0716 
     75 H75        14.2553  -30.1464  -42.3697 H         1 UNK         0.0716 
     76 H76        16.4842  -29.7002  -39.3951 H         1 UNK         0.0695 
     77 H77        16.3285  -28.0099  -39.0087 H         1 UNK         0.0695 
     78 H78        18.4411  -29.3221  -40.7786 H         1 UNK         0.0983 
     79 H79        17.5172  -26.6099  -40.9752 H         1 UNK         0.3095 
     80 H80        18.0927  -25.6122  -42.8766 H         1 UNK         0.0454 
     81 H81        20.9586  -24.8521  -42.0638 H         1 UNK         0.0851 
     82 H82        19.4844  -24.3397  -41.2601 H         1 UNK         0.0851 
     83 H83        19.8261  -23.7881  -42.8913 H         1 UNK         0.0851 
     84 H84        20.4616  -26.8944  -44.0651 H         1 UNK         0.2976 
     85 H85        19.7010  -26.6476  -39.3338 H         1 UNK         0.3116 
     86 H86        19.7683  -27.2080  -36.5905 H         1 UNK         0.0646 
     87 H87        20.1595  -24.9573  -37.5448 H         1 UNK         0.0847 
     88 H88        21.5175  -25.4179  -36.5344 H         1 UNK         0.0847 
     89 H89        21.6687  -25.4981  -38.2834 H         1 UNK         0.0847 
     90 H90        21.9590  -28.4522  -39.1055 H         1 UNK         0.3040 
     91 H91        23.2455  -30.2304  -37.2380 H         1 UNK         0.1015 
     92 H92        24.9127  -27.9944  -38.5581 H         1 UNK         0.0786 
     93 H93        25.5805  -29.3743  -37.6948 H         1 UNK         0.0786 
     94 H94        24.6426  -28.1747  -36.8264 H         1 UNK         0.0786 
     95 H95        24.5135  -31.8111  -38.3669 H         1 UNK         0.3172 
     96 H96        23.4967  -32.6599  -40.8363 H         1 UNK         0.0595 
     97 H97        26.0854  -33.4810  -39.4150 H         1 UNK         0.0839 
     98 H98        25.3066  -34.3785  -40.7102 H         1 UNK         0.0839 
     99 H99        24.4899  -34.1942  -39.1687 H         1 UNK         0.0839 
    100 H100       26.2791  -30.5977  -40.1958 H         1 UNK         0.2998 
    101 H101       27.4526  -30.7164  -42.8263 H         1 UNK         0.0822 
    102 H102       28.7252  -28.7230  -42.0191 H         1 UNK         0.0787 
    103 H103       27.6854  -28.6087  -40.6060 H         1 UNK         0.0787 
    104 H104       28.7430  -30.0051  -40.8205 H         1 UNK         0.0787 
    105 H105       24.6677  -29.0157  -41.5239 H         1 UNK         0.3055 
    106 H106       24.6270  -27.0309  -43.7336 H         1 UNK         0.1106 
    107 H107       24.2741  -26.2527  -41.3649 H         1 UNK         0.0828 
    108 H108       22.8930  -25.9494  -42.4026 H         1 UNK         0.0828 
    109 H109       22.8444  -27.2810  -41.2556 H         1 UNK         0.0828 
    110 H110       23.4805  -30.1715  -43.1044 H         1 UNK         0.2931 
    111 H111       20.9297  -30.0376  -44.3834 H         1 UNK         0.0412 
    112 H112       23.4975  -30.2312  -47.5049 H         1 UNK         0.3472 
    113 H113       24.0534  -29.8062  -45.9048 H         1 UNK         0.3472 
    114 H114       21.2208  -32.5981  -44.5362 H         1 UNK         0.0970 
    115 H115       22.7692  -32.3962  -43.7908 H         1 UNK         0.0970 
    116 H116       19.0879  -33.2461  -41.6419 H         1 UNK         0.0612 
    117 H117       19.5844  -33.6085  -43.2680 H         1 UNK         0.0612 
@<TRIPOS>BOND
     1    1    2 1    
     2    1   62 1    
     3    1   63 1    
     4    1   64 1    
     5    2    3 2    
     6    2    4 am   BACKBONE|DICT|INTERRES
     7    4    5 1    
     8    4   65 1    
     9    5    6 1    
    10    5   25 1    
    11    5   66 1    
    12    6    7 1    
    13    6   67 1    
    14    6   68 1    
    15    7    8 1    
    16    8    9 1    
    17    8   69 1    
    18    8   70 1    
    19    9   10 ar   
    20    9   14 ar   
    21   10   11 ar   
    22   10   71 1    
    23   11   12 ar   
    24   11   61 1    
    25   12   13 ar   
    26   12   72 1    
    27   13   14 ar   
    28   13   15 1    
    29   14   73 1    
    30   15   16 1    
    31   15   74 1    
    32   15   75 1    
    33   16   17 1    
    34   17   18 1    
    35   17   76 1    
    36   17   77 1    
    37   18   19 1    
    38   18   27 1    
    39   18   78 1    
    40   19   20 am   BACKBONE|DICT|INTERRES
    41   19   79 1    
    42   20   21 2    
    43   20   22 1    
    44   22   23 1    
    45   22   24 1    
    46   22   80 1    
    47   23   81 1    
    48   23   82 1    
    49   23   83 1    
    50   24   25 am   BACKBONE|DICT|INTERRES
    51   24   84 1    
    52   25   26 2    
    53   27   28 2    
    54   27   29 am   BACKBONE|DICT|INTERRES
    55   29   30 1    
    56   29   85 1    
    57   30   31 1    
    58   30   32 1    
    59   30   86 1    
    60   31   87 1    
    61   31   88 1    
    62   31   89 1    
    63   32   33 2    
    64   32   34 am   BACKBONE|DICT|INTERRES
    65   34   35 1    
    66   34   90 1    
    67   35   36 1    
    68   35   37 1    
    69   35   91 1    
    70   36   92 1    
    71   36   93 1    
    72   36   94 1    
    73   37   38 2    
    74   37   39 am   BACKBONE|DICT|INTERRES
    75   39   40 1    
    76   39   95 1    
    77   40   41 1    
    78   40   42 1    
    79   40   96 1    
    80   41   97 1    
    81   41   98 1    
    82   41   99 1    
    83   42   43 2    
    84   42   44 am   BACKBONE|DICT|INTERRES
    85   44   45 1    
    86   44  100 1    
    87   45   46 1    
    88   45   47 1    
    89   45  101 1    
    90   46  102 1    
    91   46  103 1    
    92   46  104 1    
    93   47   48 2    
    94   47   49 am   BACKBONE|DICT|INTERRES
    95   49   50 1    
    96   49  105 1    
    97   50   51 1    
    98   50   52 1    
    99   50  106 1    
   100   51  107 1    
   101   51  108 1    
   102   51  109 1    
   103   52   53 2    
   104   52   54 am   BACKBONE|DICT|INTERRES
   105   54   55 1    
   106   54  110 1    
   107   55   56 1    
   108   55   59 1    
   109   55  111 1    
   110   56   57 am   BACKBONE|DICT|INTERRES
   111   56   58 2    
   112   57  112 1    
   113   57  113 1    
   114   59   60 1    
   115   59  114 1    
   116   59  115 1    
   117   60   61 1    
   118   61  116 1    
   119   61  117 1    
@<TRIPOS>SUBSTRUCTURE
     1 UNK         1 GROUP             0       ****    0 ROOT    
