@<TRIPOS>MOLECULE
3R8
117   119    1
SMALL
USER_CHARGES


@<TRIPOS>ATOM
      1 CA         18.5025  -21.8434  -48.0153 C.3       0 UNK        -0.2013 
      2 C          19.0709  -22.5938  -46.8204 C.2       0 UNK         0.4866 
      3 O          19.5625  -21.9675  -45.8814 O.2       0 UNK        -0.5176 
      4 N          19.0104  -23.9313  -46.8495 N.am      1 UNK        -0.4884 
      5 CA         19.4763  -24.8212  -45.7780 C.3       1 UNK         0.0853 
      6 C6         19.6344  -26.2886  -46.2628 C.3       10 UNK        -0.0849 
      7 S7         18.1696  -26.9378  -47.1447 S.3       10 UNK        -0.2776 
      8 C8         18.6631  -28.6625  -47.4647 C.3       10 UNK         0.0316 
      9 C9         18.3234  -29.5648  -46.2886 C.ar      10 UNK        -0.0863 
     10 C10        19.3254  -30.0456  -45.4403 C.ar      10 UNK        -0.1009 
     11 C11        18.9999  -30.8593  -44.3495 C.ar      10 UNK        -0.0712 
     12 C12        17.6628  -31.1913  -44.1086 C.ar      10 UNK        -0.0894 
     13 C13        16.6504  -30.6741  -44.9240 C.ar      10 UNK        -0.0745 
     14 C14        16.9896  -29.8940  -46.0328 C.ar      10 UNK        -0.0972 
     15 C15        15.1888  -30.8407  -44.5373 C.3       10 UNK         0.0209 
     16 S16        14.4923  -29.2630  -43.9250 S.3       10 UNK        -0.2568 
     17 C17        15.4912  -28.9456  -42.4260 C.3       10 UNK        -0.0983 
     18 CA         16.7945  -28.1458  -42.7149 C.3       3 UNK         0.0876 
     19 N          16.5826  -26.8391  -43.3385 N.am      3 UNK        -0.4424 
     20 C          16.1578  -25.7107  -42.7588 C.2       2 UNK         0.4918 
     21 O          15.7368  -25.6461  -41.6031 O.2       2 UNK        -0.4875 
     22 CA         16.2591  -24.4320  -43.6235 C.3       2 UNK         0.0481 
     23 CB         16.4530  -23.1639  -42.7666 C.3       2 UNK        -0.1831 
     24 N          17.2925  -24.5010  -44.6736 N.am      2 UNK        -0.4498 
     25 C          18.6058  -24.7417  -44.5074 C.2       1 UNK         0.5027 
     26 O          19.1320  -24.9319  -43.4115 O.2       1 UNK        -0.4969 
     27 C          17.7960  -28.1258  -41.5370 C.2       3 UNK         0.5005 
     28 O          17.6323  -28.8779  -40.5739 O.2       3 UNK        -0.5279 
     29 N          18.8397  -27.2953  -41.6535 N.am      4 UNK        -0.4463 
     30 CA         20.0111  -27.2703  -40.7820 C.3       4 UNK         0.0283 
     31 CB         20.1158  -25.8791  -40.1346 C.3       4 UNK        -0.1875 
     32 C          21.2646  -27.5763  -41.6164 C.2       4 UNK         0.4949 
     33 O          21.2361  -27.4688  -42.8451 O.2       4 UNK        -0.5039 
     34 N          22.3518  -27.9342  -40.9285 N.am      5 UNK        -0.4663 
     35 CA         23.6753  -28.1802  -41.4961 C.3       5 UNK         0.0242 
     36 CB         23.7647  -29.6238  -42.0244 C.3       5 UNK        -0.1982 
     37 C          24.7263  -27.9300  -40.4085 C.2       5 UNK         0.5017 
     38 O          24.3909  -27.9551  -39.2207 O.2       5 UNK        -0.5012 
     39 N          25.9795  -27.7125  -40.8292 N.am      6 UNK        -0.4439 
     40 CA         27.1291  -27.5198  -39.9373 C.3       6 UNK         0.0297 
     41 CB         28.3109  -26.9529  -40.7410 C.3       6 UNK        -0.2006 
     42 C          27.5481  -28.8059  -39.2006 C.2       6 UNK         0.4892 
     43 O          28.0486  -28.7228  -38.0784 O.2       6 UNK        -0.5089 
     44 N          27.3292  -29.9615  -39.8372 N.am      7 UNK        -0.4243 
     45 CA         27.5691  -31.2993  -39.3093 C.3       7 UNK         0.0196 
     46 CB         29.0675  -31.6475  -39.3914 C.3       7 UNK        -0.2007 
     47 C          26.7298  -32.2855  -40.1284 C.2       7 UNK         0.5020 
     48 O          26.4216  -31.9976  -41.2888 O.2       7 UNK        -0.5147 
     49 N          26.3989  -33.4309  -39.5156 N.am      8 UNK        -0.4734 
     50 CA         25.5787  -34.5200  -40.0669 C.3       8 UNK         0.0238 
     51 CB         26.3397  -35.2445  -41.2020 C.3       8 UNK        -0.1912 
     52 C          24.1634  -34.0439  -40.4634 C.2       8 UNK         0.5038 
     53 O          23.6144  -33.1682  -39.7905 O.2       8 UNK        -0.5046 
     54 N          23.5895  -34.6370  -41.5195 N.am      9 UNK        -0.4200 
     55 CA         22.2966  -34.3029  -42.1468 C.3       9 UNK         0.0839 
     56 C          21.0257  -34.6082  -41.2958 C.2       9 UNK         0.5513 
     57 N          21.0855  -34.5651  -39.9724 N.am      9 UNK        -0.7519 
     58 O          19.9758  -34.9265  -41.8472 O.2       9 UNK        -0.4960 
     59 C59        22.2976  -32.8539  -42.7070 C.3       10 UNK        -0.0876 
     60 S60        21.1443  -32.5969  -44.0962 S.3       10 UNK        -0.2414 
     61 C61        20.0835  -31.3066  -43.3828 C.3       10 UNK         0.0169 
     62 H62        18.1064  -22.5206  -48.7719 H         1 UNK         0.0903 
     63 H63        17.6964  -21.1839  -47.6951 H         1 UNK         0.0903 
     64 H64        19.2778  -21.2339  -48.4788 H         1 UNK         0.0903 
     65 H65        18.6008  -24.4000  -47.6467 H         1 UNK         0.3096 
     66 H66        20.4677  -24.4729  -45.4781 H         1 UNK         0.1121 
     67 H67        20.4842  -26.3476  -46.9446 H         1 UNK         0.0849 
     68 H68        19.8814  -26.9521  -45.4305 H         1 UNK         0.0849 
     69 H69        18.1364  -29.0200  -48.3508 H         1 UNK         0.0865 
     70 H70        19.7265  -28.7099  -47.7050 H         1 UNK         0.0865 
     71 H71        20.3581  -29.7753  -45.6147 H         1 UNK         0.1346 
     72 H72        17.4047  -31.7845  -43.2417 H         1 UNK         0.1412 
     73 H73        16.2078  -29.4852  -46.6590 H         1 UNK         0.1426 
     74 H74        15.0684  -31.6128  -43.7757 H         1 UNK         0.0716 
     75 H75        14.6181  -31.1706  -45.4066 H         1 UNK         0.0716 
     76 H76        14.8735  -28.4066  -41.7061 H         1 UNK         0.0695 
     77 H77        15.7171  -29.9102  -41.9682 H         1 UNK         0.0695 
     78 H78        17.3526  -28.6771  -43.4760 H         1 UNK         0.0983 
     79 H79        16.8748  -26.7760  -44.3032 H         1 UNK         0.3095 
     80 H80        15.3037  -24.3401  -44.1417 H         1 UNK         0.0454 
     81 H81        17.3627  -23.2173  -42.1676 H         1 UNK         0.0851 
     82 H82        16.5129  -22.2703  -43.3876 H         1 UNK         0.0851 
     83 H83        15.6188  -23.0227  -42.0785 H         1 UNK         0.0851 
     84 H84        16.9653  -24.3764  -45.6219 H         1 UNK         0.2976 
     85 H85        18.9171  -26.6983  -42.4723 H         1 UNK         0.3116 
     86 H86        19.9288  -28.0255  -39.9976 H         1 UNK         0.0646 
     87 H87        20.9630  -25.8244  -39.4500 H         1 UNK         0.0847 
     88 H88        19.2198  -25.6428  -39.5604 H         1 UNK         0.0847 
     89 H89        20.2485  -25.0955  -40.8818 H         1 UNK         0.0847 
     90 H90        22.3304  -27.9561  -39.9154 H         1 UNK         0.3040 
     91 H91        23.8511  -27.4766  -42.3134 H         1 UNK         0.1015 
     92 H92        23.0263  -29.8083  -42.8041 H         1 UNK         0.0786 
     93 H93        23.6069  -30.3521  -41.2276 H         1 UNK         0.0786 
     94 H94        24.7442  -29.8276  -42.4586 H         1 UNK         0.0786 
     95 H95        26.1676  -27.7033  -41.8220 H         1 UNK         0.3172 
     96 H96        26.8509  -26.7830  -39.1803 H         1 UNK         0.0595 
     97 H97        28.0560  -26.0002  -41.2055 H         1 UNK         0.0839 
     98 H98        28.6322  -27.6368  -41.5276 H         1 UNK         0.0839 
     99 H99        29.1713  -26.7750  -40.0942 H         1 UNK         0.0839 
    100 H100       26.8855  -29.9567  -40.7474 H         1 UNK         0.2998 
    101 H101       27.2365  -31.3342  -38.2695 H         1 UNK         0.0822 
    102 H102       29.6702  -30.9636  -38.7937 H         1 UNK         0.0787 
    103 H103       29.2573  -32.6545  -39.0179 H         1 UNK         0.0787 
    104 H104       29.4328  -31.6052  -40.4183 H         1 UNK         0.0787 
    105 H105       26.6841  -33.5518  -38.5531 H         1 UNK         0.3055 
    106 H106       25.4344  -35.2353  -39.2555 H         1 UNK         0.1106 
    107 H107       26.4269  -34.6248  -42.0955 H         1 UNK         0.0828 
    108 H108       27.3491  -35.5115  -40.8885 H         1 UNK         0.0828 
    109 H109       25.8459  -36.1740  -41.4871 H         1 UNK         0.0828 
    110 H110       24.1028  -35.3768  -41.9758 H         1 UNK         0.2931 
    111 H111       22.2451  -34.9799  -43.0009 H         1 UNK         0.0412 
    112 H112       20.2678  -34.7781  -39.4232 H         1 UNK         0.3472 
    113 H113       21.9306  -34.2231  -39.5312 H         1 UNK         0.3472 
    114 H114       23.2908  -32.6018  -43.0826 H         1 UNK         0.0970 
    115 H115       22.1005  -32.1391  -41.9064 H         1 UNK         0.0970 
    116 H116       20.6933  -30.4443  -43.1095 H         1 UNK         0.0612 
    117 H117       19.6428  -31.6792  -42.4565 H         1 UNK         0.0612 
@<TRIPOS>BOND
     1    1    2 1    
     2    1   62 1    
     3    1   63 1    
     4    1   64 1    
     5    2    3 2    
     6    2    4 am   BACKBONE|DICT|INTERRES
     7    4    5 1    
     8    4   65 1    
     9    5    6 1    
    10    5   25 1    
    11    5   66 1    
    12    6    7 1    
    13    6   67 1    
    14    6   68 1    
    15    7    8 1    
    16    8    9 1    
    17    8   69 1    
    18    8   70 1    
    19    9   10 ar   
    20    9   14 ar   
    21   10   11 ar   
    22   10   71 1    
    23   11   12 ar   
    24   11   61 1    
    25   12   13 ar   
    26   12   72 1    
    27   13   14 ar   
    28   13   15 1    
    29   14   73 1    
    30   15   16 1    
    31   15   74 1    
    32   15   75 1    
    33   16   17 1    
    34   17   18 1    
    35   17   76 1    
    36   17   77 1    
    37   18   19 1    
    38   18   27 1    
    39   18   78 1    
    40   19   20 am   BACKBONE|DICT|INTERRES
    41   19   79 1    
    42   20   21 2    
    43   20   22 1    
    44   22   23 1    
    45   22   24 1    
    46   22   80 1    
    47   23   81 1    
    48   23   82 1    
    49   23   83 1    
    50   24   25 am   BACKBONE|DICT|INTERRES
    51   24   84 1    
    52   25   26 2    
    53   27   28 2    
    54   27   29 am   BACKBONE|DICT|INTERRES
    55   29   30 1    
    56   29   85 1    
    57   30   31 1    
    58   30   32 1    
    59   30   86 1    
    60   31   87 1    
    61   31   88 1    
    62   31   89 1    
    63   32   33 2    
    64   32   34 am   BACKBONE|DICT|INTERRES
    65   34   35 1    
    66   34   90 1    
    67   35   36 1    
    68   35   37 1    
    69   35   91 1    
    70   36   92 1    
    71   36   93 1    
    72   36   94 1    
    73   37   38 2    
    74   37   39 am   BACKBONE|DICT|INTERRES
    75   39   40 1    
    76   39   95 1    
    77   40   41 1    
    78   40   42 1    
    79   40   96 1    
    80   41   97 1    
    81   41   98 1    
    82   41   99 1    
    83   42   43 2    
    84   42   44 am   BACKBONE|DICT|INTERRES
    85   44   45 1    
    86   44  100 1    
    87   45   46 1    
    88   45   47 1    
    89   45  101 1    
    90   46  102 1    
    91   46  103 1    
    92   46  104 1    
    93   47   48 2    
    94   47   49 am   BACKBONE|DICT|INTERRES
    95   49   50 1    
    96   49  105 1    
    97   50   51 1    
    98   50   52 1    
    99   50  106 1    
   100   51  107 1    
   101   51  108 1    
   102   51  109 1    
   103   52   53 2    
   104   52   54 am   BACKBONE|DICT|INTERRES
   105   54   55 1    
   106   54  110 1    
   107   55   56 1    
   108   55   59 1    
   109   55  111 1    
   110   56   57 am   BACKBONE|DICT|INTERRES
   111   56   58 2    
   112   57  112 1    
   113   57  113 1    
   114   59   60 1    
   115   59  114 1    
   116   59  115 1    
   117   60   61 1    
   118   61  116 1    
   119   61  117 1    
@<TRIPOS>SUBSTRUCTURE
     1 UNK         1 GROUP             0       ****    0 ROOT    
