@<TRIPOS>MOLECULE
3R8
117   119    1
SMALL
USER_CHARGES


@<TRIPOS>ATOM
      1 CA         15.1653  -29.4874  -41.4691 C.3       0 UNK        -0.2013 
      2 C          15.2436  -28.2620  -42.3668 C.2       0 UNK         0.4866 
      3 O          14.7803  -27.1891  -41.9806 O.2       0 UNK        -0.5176 
      4 N          15.8206  -28.4147  -43.5654 N.am      1 UNK        -0.4884 
      5 CA         15.8970  -27.3691  -44.5967 C.3       1 UNK         0.0853 
      6 C6         15.9014  -27.9519  -46.0360 C.3       10 UNK        -0.0849 
      7 S7         14.6048  -29.2300  -46.2882 S.3       10 UNK        -0.2776 
      8 C8         15.4729  -30.8084  -46.6388 C.3       10 UNK         0.0316 
      9 C9         16.9037  -30.8675  -46.1222 C.ar      10 UNK        -0.0863 
     10 C10        17.1723  -31.0980  -44.7691 C.ar      10 UNK        -0.1009 
     11 C11        18.4878  -31.0510  -44.2933 C.ar      10 UNK        -0.0712 
     12 C12        19.5368  -30.8201  -45.1884 C.ar      10 UNK        -0.0894 
     13 C13        19.2784  -30.6062  -46.5433 C.ar      10 UNK        -0.0745 
     14 C14        17.9623  -30.6430  -47.0064 C.ar      10 UNK        -0.0972 
     15 C15        20.4067  -30.2891  -47.5082 C.3       10 UNK         0.0209 
     16 S16        20.6529  -28.4907  -47.6395 S.3       10 UNK        -0.2568 
     17 C17        21.9443  -28.2035  -46.3884 C.3       10 UNK        -0.0983 
     18 CA         21.7676  -26.8504  -45.6555 C.3       3 UNK         0.0876 
     19 N          20.6603  -26.8620  -44.6893 N.am      3 UNK        -0.4424 
     20 C          20.2027  -25.7693  -44.0595 C.2       2 UNK         0.4918 
     21 O          20.5923  -24.6256  -44.3028 O.2       2 UNK        -0.4875 
     22 CA         19.1473  -26.0047  -42.9648 C.3       2 UNK         0.0481 
     23 CB         18.7047  -24.7079  -42.2551 C.3       2 UNK        -0.1831 
     24 N          17.9855  -26.7629  -43.4374 N.am      2 UNK        -0.4498 
     25 C          17.0895  -26.4110  -44.3741 C.2       1 UNK         0.5027 
     26 O          17.1585  -25.3768  -45.0394 O.2       1 UNK        -0.4969 
     27 C          23.0985  -26.4312  -44.9974 C.2       3 UNK         0.5005 
     28 O          23.8048  -25.5847  -45.5482 O.2       3 UNK        -0.5279 
     29 N          23.4126  -27.0246  -43.8387 N.am      4 UNK        -0.4463 
     30 CA         24.6279  -26.7972  -43.0621 C.3       4 UNK         0.0283 
     31 CB         25.8611  -27.3521  -43.8075 C.3       4 UNK        -0.1875 
     32 C          24.4823  -27.5029  -41.7123 C.2       4 UNK         0.4949 
     33 O          23.6854  -28.4375  -41.5907 O.2       4 UNK        -0.5039 
     34 N          25.3127  -27.1034  -40.7404 N.am      5 UNK        -0.4663 
     35 CA         25.4472  -27.7715  -39.4385 C.3       5 UNK         0.0242 
     36 CB         26.3488  -26.9303  -38.5218 C.3       5 UNK        -0.1982 
     37 C          25.9834  -29.2114  -39.5521 C.2       5 UNK         0.5017 
     38 O          25.6580  -30.0476  -38.7106 O.2       5 UNK        -0.5012 
     39 N          26.7420  -29.4900  -40.6230 N.am      6 UNK        -0.4439 
     40 CA         27.2052  -30.8236  -41.0177 C.3       6 UNK         0.0297 
     41 CB         28.2006  -30.6860  -42.1810 C.3       6 UNK        -0.2006 
     42 C          26.0654  -31.7898  -41.3993 C.2       6 UNK         0.4892 
     43 O          26.2560  -33.0020  -41.3019 O.2       6 UNK        -0.5089 
     44 N          24.9039  -31.2481  -41.7967 N.am      7 UNK        -0.4243 
     45 CA         23.6729  -31.9988  -42.0567 C.3       7 UNK         0.0196 
     46 CB         22.9354  -31.3552  -43.2446 C.3       7 UNK        -0.2007 
     47 C          22.7645  -32.0688  -40.8130 C.2       7 UNK         0.5020 
     48 O          21.6155  -32.4914  -40.9355 O.2       7 UNK        -0.5147 
     49 N          23.2654  -31.6253  -39.6492 N.am      8 UNK        -0.4734 
     50 CA         22.6271  -31.5379  -38.3278 C.3       8 UNK         0.0238 
     51 CB         22.1157  -32.9094  -37.8445 C.3       8 UNK        -0.1912 
     52 C          21.5338  -30.4621  -38.2117 C.2       8 UNK         0.5038 
     53 O          21.4226  -29.8454  -37.1512 O.2       8 UNK        -0.5046 
     54 N          20.7533  -30.2503  -39.2770 N.am      9 UNK        -0.4200 
     55 CA         19.6843  -29.2465  -39.3449 C.3       9 UNK         0.0839 
     56 C          20.1665  -27.7687  -39.4237 C.2       9 UNK         0.5513 
     57 N          21.4004  -27.4885  -39.8257 N.am      9 UNK        -0.7519 
     58 O          19.4044  -26.8609  -39.1033 O.2       9 UNK        -0.4960 
     59 C59        18.6475  -29.5866  -40.4440 C.3       10 UNK        -0.0876 
     60 S60        19.3348  -29.5912  -42.1362 S.3       10 UNK        -0.2414 
     61 C61        18.7803  -31.1900  -42.8078 C.3       10 UNK         0.0169 
     62 H62        14.1537  -29.8923  -41.4805 H         1 UNK         0.0903 
     63 H63        15.8497  -30.2715  -41.7891 H         1 UNK         0.0903 
     64 H64        15.4099  -29.2216  -40.4412 H         1 UNK         0.0903 
     65 H65        16.1781  -29.3162  -43.8483 H         1 UNK         0.3096 
     66 H66        14.9990  -26.7526  -44.5104 H         1 UNK         0.1121 
     67 H67        15.7073  -27.1503  -46.7511 H         1 UNK         0.0849 
     68 H68        16.8897  -28.3226  -46.2993 H         1 UNK         0.0849 
     69 H69        14.8970  -31.6284  -46.2072 H         1 UNK         0.0865 
     70 H70        15.4582  -30.9753  -47.7170 H         1 UNK         0.0865 
     71 H71        16.3542  -31.2819  -44.0863 H         1 UNK         0.1346 
     72 H72        20.5510  -30.7702  -44.8212 H         1 UNK         0.1412 
     73 H73        17.7598  -30.4519  -48.0518 H         1 UNK         0.1426 
     74 H74        21.3311  -30.7822  -47.2033 H         1 UNK         0.0716 
     75 H75        20.1669  -30.6828  -48.4972 H         1 UNK         0.0716 
     76 H76        21.9702  -29.0252  -45.6712 H         1 UNK         0.0695 
     77 H77        22.8976  -28.2387  -46.9205 H         1 UNK         0.0695 
     78 H78        21.5393  -26.0867  -46.4028 H         1 UNK         0.0983 
     79 H79        20.2609  -27.7609  -44.4620 H         1 UNK         0.3095 
     80 H80        19.6322  -26.6260  -42.2120 H         1 UNK         0.0454 
     81 H81        18.2286  -24.0077  -42.9419 H         1 UNK         0.0851 
     82 H82        18.0025  -24.9198  -41.4488 H         1 UNK         0.0851 
     83 H83        19.5595  -24.1969  -41.8106 H         1 UNK         0.0851 
     84 H84        17.8346  -27.6515  -42.9795 H         1 UNK         0.2976 
     85 H85        22.7776  -27.6929  -43.4186 H         1 UNK         0.3116 
     86 H86        24.7430  -25.7251  -42.8902 H         1 UNK         0.0646 
     87 H87        25.7607  -28.4191  -44.0116 H         1 UNK         0.0847 
     88 H88        26.0204  -26.8468  -44.7597 H         1 UNK         0.0847 
     89 H89        26.7732  -27.2139  -43.2261 H         1 UNK         0.0847 
     90 H90        25.9304  -26.3228  -40.9155 H         1 UNK         0.3040 
     91 H91        24.4543  -27.8311  -38.9860 H         1 UNK         0.1015 
     92 H92        27.3539  -26.8204  -38.9311 H         1 UNK         0.0786 
     93 H93        26.4460  -27.3940  -37.5389 H         1 UNK         0.0786 
     94 H94        25.9369  -25.9328  -38.3671 H         1 UNK         0.0786 
     95 H95        26.9705  -28.7284  -41.2441 H         1 UNK         0.3172 
     96 H96        27.7310  -31.2585  -40.1651 H         1 UNK         0.0595 
     97 H97        28.5894  -31.6611  -42.4785 H         1 UNK         0.0839 
     98 H98        29.0568  -30.0713  -41.9024 H         1 UNK         0.0839 
     99 H99        27.7364  -30.2395  -43.0614 H         1 UNK         0.0839 
    100 H100       24.8093  -30.2393  -41.8119 H         1 UNK         0.2998 
    101 H101       23.9202  -33.0260  -42.3325 H         1 UNK         0.0822 
    102 H102       22.0943  -31.9769  -43.5523 H         1 UNK         0.0787 
    103 H103       22.5380  -30.3716  -42.9927 H         1 UNK         0.0787 
    104 H104       23.5886  -31.2448  -44.1102 H         1 UNK         0.0787 
    105 H105       24.2102  -31.2582  -39.6648 H         1 UNK         0.3055 
    106 H106       23.4219  -31.2323  -37.6450 H         1 UNK         0.1106 
    107 H107       22.9055  -33.6599  -37.8728 H         1 UNK         0.0828 
    108 H108       21.7629  -32.8493  -36.8141 H         1 UNK         0.0828 
    109 H109       21.2834  -33.2736  -38.4473 H         1 UNK         0.0828 
    110 H110       20.8988  -30.8243  -40.1005 H         1 UNK         0.2931 
    111 H111       19.1449  -29.3161  -38.3979 H         1 UNK         0.0412 
    112 H112       21.6945  -26.5265  -39.8541 H         1 UNK         0.3472 
    113 H113       22.0193  -28.2136  -40.1612 H         1 UNK         0.3472 
    114 H114       18.2002  -30.5568  -40.2245 H         1 UNK         0.0970 
    115 H115       17.8261  -28.8697  -40.4123 H         1 UNK         0.0970 
    116 H116       19.5561  -31.9398  -42.6490 H         1 UNK         0.0612 
    117 H117       17.8937  -31.5408  -42.2790 H         1 UNK         0.0612 
@<TRIPOS>BOND
     1    1    2 1    
     2    1   62 1    
     3    1   63 1    
     4    1   64 1    
     5    2    3 2    
     6    2    4 am   BACKBONE|DICT|INTERRES
     7    4    5 1    
     8    4   65 1    
     9    5    6 1    
    10    5   25 1    
    11    5   66 1    
    12    6    7 1    
    13    6   67 1    
    14    6   68 1    
    15    7    8 1    
    16    8    9 1    
    17    8   69 1    
    18    8   70 1    
    19    9   10 ar   
    20    9   14 ar   
    21   10   11 ar   
    22   10   71 1    
    23   11   12 ar   
    24   11   61 1    
    25   12   13 ar   
    26   12   72 1    
    27   13   14 ar   
    28   13   15 1    
    29   14   73 1    
    30   15   16 1    
    31   15   74 1    
    32   15   75 1    
    33   16   17 1    
    34   17   18 1    
    35   17   76 1    
    36   17   77 1    
    37   18   19 1    
    38   18   27 1    
    39   18   78 1    
    40   19   20 am   BACKBONE|DICT|INTERRES
    41   19   79 1    
    42   20   21 2    
    43   20   22 1    
    44   22   23 1    
    45   22   24 1    
    46   22   80 1    
    47   23   81 1    
    48   23   82 1    
    49   23   83 1    
    50   24   25 am   BACKBONE|DICT|INTERRES
    51   24   84 1    
    52   25   26 2    
    53   27   28 2    
    54   27   29 am   BACKBONE|DICT|INTERRES
    55   29   30 1    
    56   29   85 1    
    57   30   31 1    
    58   30   32 1    
    59   30   86 1    
    60   31   87 1    
    61   31   88 1    
    62   31   89 1    
    63   32   33 2    
    64   32   34 am   BACKBONE|DICT|INTERRES
    65   34   35 1    
    66   34   90 1    
    67   35   36 1    
    68   35   37 1    
    69   35   91 1    
    70   36   92 1    
    71   36   93 1    
    72   36   94 1    
    73   37   38 2    
    74   37   39 am   BACKBONE|DICT|INTERRES
    75   39   40 1    
    76   39   95 1    
    77   40   41 1    
    78   40   42 1    
    79   40   96 1    
    80   41   97 1    
    81   41   98 1    
    82   41   99 1    
    83   42   43 2    
    84   42   44 am   BACKBONE|DICT|INTERRES
    85   44   45 1    
    86   44  100 1    
    87   45   46 1    
    88   45   47 1    
    89   45  101 1    
    90   46  102 1    
    91   46  103 1    
    92   46  104 1    
    93   47   48 2    
    94   47   49 am   BACKBONE|DICT|INTERRES
    95   49   50 1    
    96   49  105 1    
    97   50   51 1    
    98   50   52 1    
    99   50  106 1    
   100   51  107 1    
   101   51  108 1    
   102   51  109 1    
   103   52   53 2    
   104   52   54 am   BACKBONE|DICT|INTERRES
   105   54   55 1    
   106   54  110 1    
   107   55   56 1    
   108   55   59 1    
   109   55  111 1    
   110   56   57 am   BACKBONE|DICT|INTERRES
   111   56   58 2    
   112   57  112 1    
   113   57  113 1    
   114   59   60 1    
   115   59  114 1    
   116   59  115 1    
   117   60   61 1    
   118   61  116 1    
   119   61  117 1    
@<TRIPOS>SUBSTRUCTURE
     1 UNK         1 GROUP             0       ****    0 ROOT    
