@<TRIPOS>MOLECULE
3R8
117   119    1
SMALL
USER_CHARGES


@<TRIPOS>ATOM
      1 CA         15.7119  -26.0430  -49.7720 C.3       0 UNK        -0.2013 
      2 C          14.8633  -25.5371  -48.6075 C.2       0 UNK         0.4866 
      3 O          14.0527  -24.6332  -48.8018 O.2       0 UNK        -0.5176 
      4 N          14.9925  -26.0858  -47.3910 N.am      1 UNK        -0.4884 
      5 CA         15.9653  -27.1031  -46.9754 C.3       1 UNK         0.0853 
      6 C6         15.5467  -27.7438  -45.6277 C.3       10 UNK        -0.0849 
      7 S7         16.3085  -29.3808  -45.3581 S.3       10 UNK        -0.2776 
      8 C8         15.7142  -29.7826  -43.6845 C.3       10 UNK         0.0316 
      9 C9         16.6484  -29.2602  -42.6009 C.ar      10 UNK        -0.0863 
     10 C10        17.6455  -30.0900  -42.0759 C.ar      10 UNK        -0.1009 
     11 C11        18.4751  -29.6373  -41.0456 C.ar      10 UNK        -0.0712 
     12 C12        18.3083  -28.3441  -40.5456 C.ar      10 UNK        -0.0894 
     13 C13        17.3347  -27.4955  -41.0795 C.ar      10 UNK        -0.0745 
     14 C14        16.4990  -27.9632  -42.0985 C.ar      10 UNK        -0.0972 
     15 C15        17.1913  -26.0741  -40.5540 C.3       10 UNK         0.0209 
     16 S16        18.7152  -25.1013  -40.7870 S.3       10 UNK        -0.2568 
     17 C17        18.8618  -25.0520  -42.6059 C.3       10 UNK        -0.0983 
     18 CA         19.8271  -26.1177  -43.1877 C.3       3 UNK         0.0876 
     19 N          19.6665  -26.2025  -44.6383 N.am      3 UNK        -0.4424 
     20 C          20.1641  -27.1553  -45.4342 C.2       2 UNK         0.4918 
     21 O          20.8119  -28.1252  -45.0375 O.2       2 UNK        -0.4875 
     22 CA         19.8137  -27.0184  -46.9277 C.3       2 UNK         0.0481 
     23 CB         20.6695  -27.9282  -47.8271 C.3       2 UNK        -0.1831 
     24 N          18.4003  -27.3311  -47.1399 N.am      2 UNK        -0.4498 
     25 C          17.3826  -26.5027  -46.8755 C.2       1 UNK         0.5027 
     26 O          17.5316  -25.3294  -46.5217 O.2       1 UNK        -0.4969 
     27 C          21.2983  -25.8471  -42.8066 C.2       3 UNK         0.5005 
     28 O          21.9677  -25.0481  -43.4684 O.2       3 UNK        -0.5279 
     29 N          21.7587  -26.5000  -41.7359 N.am      4 UNK        -0.4463 
     30 CA         23.0973  -26.4130  -41.1602 C.3       4 UNK         0.0283 
     31 CB         24.1182  -27.1267  -42.0755 C.3       4 UNK        -0.1875 
     32 C          23.0389  -27.0385  -39.7558 C.2       4 UNK         0.4949 
     33 O          21.9456  -27.2245  -39.2132 O.2       4 UNK        -0.5039 
     34 N          24.2065  -27.3913  -39.2011 N.am      5 UNK        -0.4663 
     35 CA         24.3200  -28.3332  -38.0829 C.3       5 UNK         0.0242 
     36 CB         25.7591  -28.3078  -37.5441 C.3       5 UNK        -0.1982 
     37 C          23.9506  -29.7478  -38.5631 C.2       5 UNK         0.5017 
     38 O          24.2461  -30.0750  -39.7129 O.2       5 UNK        -0.5012 
     39 N          23.3346  -30.5539  -37.6866 N.am      6 UNK        -0.4439 
     40 CA         22.6700  -31.8318  -37.9949 C.3       6 UNK         0.0297 
     41 CB         22.2173  -32.4949  -36.6838 C.3       6 UNK        -0.2006 
     42 C          23.4605  -32.8399  -38.8530 C.2       6 UNK         0.4892 
     43 O          22.8562  -33.5427  -39.6635 O.2       6 UNK        -0.5089 
     44 N          24.7859  -32.8888  -38.6707 N.am      7 UNK        -0.4243 
     45 CA         25.6951  -33.7525  -39.4284 C.3       7 UNK         0.0196 
     46 CB         26.9831  -33.9468  -38.6106 C.3       7 UNK        -0.2007 
     47 C          26.0335  -33.2245  -40.8371 C.2       7 UNK         0.5020 
     48 O          26.5474  -33.9948  -41.6490 O.2       7 UNK        -0.5147 
     49 N          25.7834  -31.9355  -41.0999 N.am      8 UNK        -0.4734 
     50 CA         26.1790  -31.2287  -42.3209 C.3       8 UNK         0.0238 
     51 CB         26.9771  -29.9766  -41.9132 C.3       8 UNK        -0.1912 
     52 C          24.9887  -30.8360  -43.2136 C.2       8 UNK         0.5038 
     53 O          25.2279  -30.3076  -44.3007 O.2       8 UNK        -0.5046 
     54 N          23.7487  -31.0650  -42.7563 N.am      9 UNK        -0.4200 
     55 CA         22.5073  -30.7353  -43.4793 C.3       9 UNK         0.0839 
     56 C          22.3919  -31.4226  -44.8667 C.2       9 UNK         0.5513 
     57 N          21.7799  -30.7493  -45.8291 N.am      9 UNK        -0.7519 
     58 O          22.7999  -32.5667  -45.0586 O.2       9 UNK        -0.4960 
     59 C59        21.2405  -31.0392  -42.6405 C.3       10 UNK        -0.0876 
     60 S60        21.1951  -30.1029  -41.0840 S.3       10 UNK        -0.2414 
     61 C61        19.5479  -30.5372  -40.4544 C.3       10 UNK         0.0169 
     62 H62        16.7609  -25.7845  -49.6323 H         1 UNK         0.0903 
     63 H63        15.6237  -27.1223  -49.8892 H         1 UNK         0.0903 
     64 H64        15.3833  -25.5873  -50.7060 H         1 UNK         0.0903 
     65 H65        14.4317  -25.7040  -46.6428 H         1 UNK         0.3096 
     66 H66        15.9700  -27.8867  -47.7356 H         1 UNK         0.1121 
     67 H67        15.7751  -27.0818  -44.7909 H         1 UNK         0.0849 
     68 H68        14.4655  -27.8923  -45.6072 H         1 UNK         0.0849 
     69 H69        14.7064  -29.3904  -43.5392 H         1 UNK         0.0865 
     70 H70        15.6247  -30.8669  -43.6006 H         1 UNK         0.0865 
     71 H71        17.7683  -31.0929  -42.4616 H         1 UNK         0.1346 
     72 H72        18.9539  -27.9893  -39.7528 H         1 UNK         0.1412 
     73 H73        15.7284  -27.3183  -42.4967 H         1 UNK         0.1426 
     74 H74        16.3596  -25.5574  -41.0356 H         1 UNK         0.0716 
     75 H75        16.9559  -26.1117  -39.4896 H         1 UNK         0.0716 
     76 H76        19.1782  -24.0487  -42.8979 H         1 UNK         0.0695 
     77 H77        17.8646  -25.1814  -43.0305 H         1 UNK         0.0695 
     78 H78        19.5489  -27.0971  -42.7932 H         1 UNK         0.0983 
     79 H79        19.1158  -25.4726  -45.0731 H         1 UNK         0.3095 
     80 H80        20.0066  -25.9849  -47.2239 H         1 UNK         0.0454 
     81 H81        20.4795  -27.7303  -48.8820 H         1 UNK         0.0851 
     82 H82        20.4687  -28.9841  -47.6462 H         1 UNK         0.0851 
     83 H83        21.7335  -27.7615  -47.6539 H         1 UNK         0.0851 
     84 H84        18.1898  -28.2947  -47.3603 H         1 UNK         0.2976 
     85 H85        21.1305  -27.0833  -41.1937 H         1 UNK         0.3116 
     86 H86        23.3677  -25.3609  -41.0536 H         1 UNK         0.0646 
     87 H87        24.0698  -26.7636  -43.1019 H         1 UNK         0.0847 
     88 H88        25.1418  -26.9673  -41.7368 H         1 UNK         0.0847 
     89 H89        23.9417  -28.2025  -42.0979 H         1 UNK         0.0847 
     90 H90        25.0524  -27.2206  -39.7239 H         1 UNK         0.3040 
     91 H91        23.6318  -28.0274  -37.2917 H         1 UNK         0.1015 
     92 H92        26.4800  -28.6213  -38.3008 H         1 UNK         0.0786 
     93 H93        25.8694  -28.9792  -36.6915 H         1 UNK         0.0786 
     94 H94        26.0389  -27.3095  -37.2070 H         1 UNK         0.0786 
     95 H95        23.1783  -30.1974  -36.7546 H         1 UNK         0.3172 
     96 H96        21.7723  -31.5808  -38.5613 H         1 UNK         0.0595 
     97 H97        23.0627  -32.7178  -36.0316 H         1 UNK         0.0839 
     98 H98        21.7000  -33.4356  -36.8788 H         1 UNK         0.0839 
     99 H99        21.5247  -31.8584  -36.1328 H         1 UNK         0.0839 
    100 H100       25.2006  -32.2631  -37.9953 H         1 UNK         0.2998 
    101 H101       25.2231  -34.7296  -39.5543 H         1 UNK         0.0822 
    102 H102       26.7722  -34.3866  -37.6356 H         1 UNK         0.0787 
    103 H103       27.6748  -34.6172  -39.1229 H         1 UNK         0.0787 
    104 H104       27.5047  -33.0024  -38.4490 H         1 UNK         0.0787 
    105 H105       25.2987  -31.3679  -40.4054 H         1 UNK         0.3055 
    106 H106       26.8292  -31.8596  -42.9309 H         1 UNK         0.1106 
    107 H107       27.8610  -30.2425  -41.3336 H         1 UNK         0.0828 
    108 H108       27.3203  -29.4241  -42.7889 H         1 UNK         0.0828 
    109 H109       26.3755  -29.2943  -41.3117 H         1 UNK         0.0828 
    110 H110       23.6385  -31.4679  -41.8373 H         1 UNK         0.2931 
    111 H111       22.5406  -29.6574  -43.6502 H         1 UNK         0.0412 
    112 H112       21.4283  -29.8134  -45.6439 H         1 UNK         0.3472 
    113 H113       21.6695  -31.1684  -46.7383 H         1 UNK         0.3472 
    114 H114       20.3424  -30.7838  -43.2069 H         1 UNK         0.0970 
    115 H115       21.1750  -32.1050  -42.4132 H         1 UNK         0.0970 
    116 H116       19.3365  -31.5885  -40.6556 H         1 UNK         0.0612 
    117 H117       19.5513  -30.4285  -39.3689 H         1 UNK         0.0612 
@<TRIPOS>BOND
     1    1    2 1    
     2    1   62 1    
     3    1   63 1    
     4    1   64 1    
     5    2    3 2    
     6    2    4 am   BACKBONE|DICT|INTERRES
     7    4    5 1    
     8    4   65 1    
     9    5    6 1    
    10    5   25 1    
    11    5   66 1    
    12    6    7 1    
    13    6   67 1    
    14    6   68 1    
    15    7    8 1    
    16    8    9 1    
    17    8   69 1    
    18    8   70 1    
    19    9   10 ar   
    20    9   14 ar   
    21   10   11 ar   
    22   10   71 1    
    23   11   12 ar   
    24   11   61 1    
    25   12   13 ar   
    26   12   72 1    
    27   13   14 ar   
    28   13   15 1    
    29   14   73 1    
    30   15   16 1    
    31   15   74 1    
    32   15   75 1    
    33   16   17 1    
    34   17   18 1    
    35   17   76 1    
    36   17   77 1    
    37   18   19 1    
    38   18   27 1    
    39   18   78 1    
    40   19   20 am   BACKBONE|DICT|INTERRES
    41   19   79 1    
    42   20   21 2    
    43   20   22 1    
    44   22   23 1    
    45   22   24 1    
    46   22   80 1    
    47   23   81 1    
    48   23   82 1    
    49   23   83 1    
    50   24   25 am   BACKBONE|DICT|INTERRES
    51   24   84 1    
    52   25   26 2    
    53   27   28 2    
    54   27   29 am   BACKBONE|DICT|INTERRES
    55   29   30 1    
    56   29   85 1    
    57   30   31 1    
    58   30   32 1    
    59   30   86 1    
    60   31   87 1    
    61   31   88 1    
    62   31   89 1    
    63   32   33 2    
    64   32   34 am   BACKBONE|DICT|INTERRES
    65   34   35 1    
    66   34   90 1    
    67   35   36 1    
    68   35   37 1    
    69   35   91 1    
    70   36   92 1    
    71   36   93 1    
    72   36   94 1    
    73   37   38 2    
    74   37   39 am   BACKBONE|DICT|INTERRES
    75   39   40 1    
    76   39   95 1    
    77   40   41 1    
    78   40   42 1    
    79   40   96 1    
    80   41   97 1    
    81   41   98 1    
    82   41   99 1    
    83   42   43 2    
    84   42   44 am   BACKBONE|DICT|INTERRES
    85   44   45 1    
    86   44  100 1    
    87   45   46 1    
    88   45   47 1    
    89   45  101 1    
    90   46  102 1    
    91   46  103 1    
    92   46  104 1    
    93   47   48 2    
    94   47   49 am   BACKBONE|DICT|INTERRES
    95   49   50 1    
    96   49  105 1    
    97   50   51 1    
    98   50   52 1    
    99   50  106 1    
   100   51  107 1    
   101   51  108 1    
   102   51  109 1    
   103   52   53 2    
   104   52   54 am   BACKBONE|DICT|INTERRES
   105   54   55 1    
   106   54  110 1    
   107   55   56 1    
   108   55   59 1    
   109   55  111 1    
   110   56   57 am   BACKBONE|DICT|INTERRES
   111   56   58 2    
   112   57  112 1    
   113   57  113 1    
   114   59   60 1    
   115   59  114 1    
   116   59  115 1    
   117   60   61 1    
   118   61  116 1    
   119   61  117 1    
@<TRIPOS>SUBSTRUCTURE
     1 UNK         1 GROUP             0       ****    0 ROOT    
