@<TRIPOS>MOLECULE
3R8
117   119    1
SMALL
USER_CHARGES


@<TRIPOS>ATOM
      1 CA         19.3501  -28.2137  -41.6038 C.3       0 UNK        -0.2013 
      2 C          18.2682  -27.2713  -42.0963 C.2       0 UNK         0.4866 
      3 O          17.9576  -26.2927  -41.4170 O.2       0 UNK        -0.5176 
      4 N          17.7155  -27.5174  -43.2926 N.am      1 UNK        -0.4884 
      5 CA         16.6974  -26.6751  -43.9409 C.3       1 UNK         0.0853 
      6 C6         15.7507  -27.5033  -44.8537 C.3       10 UNK        -0.0849 
      7 S7         16.5182  -28.2616  -46.3314 S.3       10 UNK        -0.2776 
      8 C8         16.5649  -30.0343  -45.9093 C.3       10 UNK         0.0316 
      9 C9         17.7659  -30.3847  -45.0432 C.ar      10 UNK        -0.0863 
     10 C10        17.5950  -31.0222  -43.8107 C.ar      10 UNK        -0.1009 
     11 C11        18.7048  -31.3701  -43.0335 C.ar      10 UNK        -0.0712 
     12 C12        19.9905  -31.0604  -43.4883 C.ar      10 UNK        -0.0894 
     13 C13        20.1695  -30.3957  -44.7050 C.ar      10 UNK        -0.0745 
     14 C14        19.0567  -30.0865  -45.4887 C.ar      10 UNK        -0.0972 
     15 C15        21.5601  -29.9829  -45.1577 C.3       10 UNK         0.0209 
     16 S16        21.8742  -28.2363  -44.7535 S.3       10 UNK        -0.2568 
     17 C17        21.4961  -27.3981  -46.3381 C.3       10 UNK        -0.0983 
     18 CA         21.5399  -25.8455  -46.2845 C.3       3 UNK         0.0876 
     19 N          20.5214  -25.3003  -45.3811 N.am      3 UNK        -0.4424 
     20 C          20.1109  -24.0232  -45.3682 C.2       2 UNK         0.4918 
     21 O          20.5249  -23.1688  -46.1533 O.2       2 UNK        -0.4875 
     22 CA         19.0788  -23.6331  -44.2887 C.3       2 UNK         0.0481 
     23 CB         18.2441  -22.3929  -44.6734 C.3       2 UNK        -0.1831 
     24 N          18.2209  -24.7505  -43.8765 N.am      2 UNK        -0.4498 
     25 C          17.3213  -25.4230  -44.6116 C.2       1 UNK         0.5027 
     26 O          17.0077  -25.1022  -45.7588 O.2       1 UNK        -0.4969 
     27 C          22.9517  -25.3156  -45.9497 C.2       3 UNK         0.5005 
     28 O          23.7137  -24.9735  -46.8555 O.2       3 UNK        -0.5279 
     29 N          23.2499  -25.2659  -44.6470 N.am      4 UNK        -0.4463 
     30 CA         24.5124  -24.9679  -43.9800 C.3       4 UNK         0.0283 
     31 CB         25.6488  -25.8749  -44.5096 C.3       4 UNK        -0.1875 
     32 C          24.2699  -25.2242  -42.4820 C.2       4 UNK         0.4949 
     33 O          23.1546  -25.5848  -42.0922 O.2       4 UNK        -0.5039 
     34 N          25.3205  -25.0786  -41.6642 N.am      5 UNK        -0.4663 
     35 CA         25.3117  -25.4495  -40.2423 C.3       5 UNK         0.0242 
     36 CB         26.5388  -24.8295  -39.5541 C.3       5 UNK        -0.1982 
     37 C          25.2742  -26.9742  -40.0050 C.2       5 UNK         0.5017 
     38 O          24.9291  -27.4066  -38.9042 O.2       5 UNK        -0.5012 
     39 N          25.6315  -27.7603  -41.0306 N.am      6 UNK        -0.4439 
     40 CA         25.6393  -29.2232  -41.0430 C.3       6 UNK         0.0297 
     41 CB         26.5526  -29.7026  -42.1869 C.3       6 UNK        -0.2006 
     42 C          24.2177  -29.8090  -41.1467 C.2       6 UNK         0.4892 
     43 O          23.8617  -30.4023  -42.1673 O.2       6 UNK        -0.5089 
     44 N          23.4301  -29.6502  -40.0762 N.am      7 UNK        -0.4243 
     45 CA         22.0787  -30.1939  -39.9120 C.3       7 UNK         0.0196 
     46 CB         21.3630  -29.4060  -38.7991 C.3       7 UNK        -0.2007 
     47 C          22.1013  -31.7121  -39.6375 C.2       7 UNK         0.5020 
     48 O          21.6476  -32.1629  -38.5843 O.2       7 UNK        -0.5147 
     49 N          22.6560  -32.4784  -40.5830 N.am      8 UNK        -0.4734 
     50 CA         22.8910  -33.9226  -40.5067 C.3       8 UNK         0.0238 
     51 CB         24.0108  -34.2843  -41.5012 C.3       8 UNK        -0.1912 
     52 C          21.6123  -34.7584  -40.7216 C.2       8 UNK         0.5038 
     53 O          21.5656  -35.5850  -41.6350 O.2       8 UNK        -0.5046 
     54 N          20.6070  -34.5307  -39.8720 N.am      9 UNK        -0.4200 
     55 CA         19.3440  -35.2767  -39.8072 C.3       9 UNK         0.0839 
     56 C          19.1636  -35.8850  -38.3940 C.2       9 UNK         0.5513 
     57 N          18.5184  -37.0389  -38.2947 N.am      9 UNK        -0.7519 
     58 O          19.5703  -35.3092  -37.3864 O.2       9 UNK        -0.4960 
     59 C59        18.1281  -34.3884  -40.1770 C.3       10 UNK        -0.0876 
     60 S60        18.1760  -33.8319  -41.9132 S.3       10 UNK        -0.2414 
     61 C61        18.5120  -32.0609  -41.6938 C.3       10 UNK         0.0169 
     62 H62        20.0027  -27.6998  -40.8992 H         1 UNK         0.0903 
     63 H63        18.9093  -29.0736  -41.1015 H         1 UNK         0.0903 
     64 H64        19.9697  -28.5594  -42.4280 H         1 UNK         0.0903 
     65 H65        18.0119  -28.3251  -43.8273 H         1 UNK         0.3096 
     66 H66        16.0581  -26.2722  -43.1515 H         1 UNK         0.1121 
     67 H67        15.2704  -28.2824  -44.2601 H         1 UNK         0.0849 
     68 H68        14.9333  -26.8687  -45.2009 H         1 UNK         0.0849 
     69 H69        15.6280  -30.3286  -45.4338 H         1 UNK         0.0865 
     70 H70        16.6285  -30.6096  -46.8340 H         1 UNK         0.0865 
     71 H71        16.6010  -31.2619  -43.4578 H         1 UNK         0.1346 
     72 H72        20.8517  -31.3129  -42.8852 H         1 UNK         0.1412 
     73 H73        19.1912  -29.5918  -46.4405 H         1 UNK         0.1426 
     74 H74        21.6813  -30.1551  -46.2281 H         1 UNK         0.0716 
     75 H75        22.3147  -30.5954  -44.6612 H         1 UNK         0.0716 
     76 H76        20.5075  -27.7144  -46.6714 H         1 UNK         0.0695 
     77 H77        22.1941  -27.7641  -47.0934 H         1 UNK         0.0695 
     78 H78        21.3034  -25.4832  -47.2878 H         1 UNK         0.0983 
     79 H79        20.1302  -25.9434  -44.7096 H         1 UNK         0.3095 
     80 H80        19.6616  -23.3690  -43.4053 H         1 UNK         0.0454 
     81 H81        18.8833  -21.5207  -44.8150 H         1 UNK         0.0851 
     82 H82        17.5243  -22.1409  -43.8949 H         1 UNK         0.0851 
     83 H83        17.6951  -22.5437  -45.6032 H         1 UNK         0.0851 
     84 H84        18.3617  -25.0895  -42.9285 H         1 UNK         0.2976 
     85 H85        22.5441  -25.5713  -43.9844 H         1 UNK         0.3116 
     86 H86        24.7590  -23.9155  -44.1291 H         1 UNK         0.0646 
     87 H87        25.8503  -25.6967  -45.5653 H         1 UNK         0.0847 
     88 H88        25.4052  -26.9320  -44.3939 H         1 UNK         0.0847 
     89 H89        26.5887  -25.6938  -43.9880 H         1 UNK         0.0847 
     90 H90        26.1977  -24.7495  -42.0431 H         1 UNK         0.3040 
     91 H91        24.4129  -25.0313  -39.7828 H         1 UNK         0.1015 
     92 H92        26.5463  -25.0599  -38.4876 H         1 UNK         0.0786 
     93 H93        26.5403  -23.7433  -39.6479 H         1 UNK         0.0786 
     94 H94        27.4722  -25.2058  -39.9748 H         1 UNK         0.0786 
     95 H95        25.8742  -27.3050  -41.8970 H         1 UNK         0.3172 
     96 H96        26.0711  -29.5763  -40.1041 H         1 UNK         0.0595 
     97 H97        26.6025  -30.7921  -42.2147 H         1 UNK         0.0839 
     98 H98        27.5721  -29.3371  -42.0627 H         1 UNK         0.0839 
     99 H99        26.1917  -29.3695  -43.1611 H         1 UNK         0.0839 
    100 H100       23.8050  -29.1148  -39.3005 H         1 UNK         0.2998 
    101 H101       21.5294  -30.0380  -40.8421 H         1 UNK         0.0822 
    102 H102       21.3512  -28.3370  -39.0111 H         1 UNK         0.0787 
    103 H103       20.3262  -29.7294  -38.6964 H         1 UNK         0.0787 
    104 H104       21.8468  -29.5453  -37.8314 H         1 UNK         0.0787 
    105 H105       23.0234  -32.0006  -41.4015 H         1 UNK         0.3055 
    106 H106       23.2535  -34.1585  -39.5034 H         1 UNK         0.1106 
    107 H107       24.9259  -33.7316  -41.2875 H         1 UNK         0.0828 
    108 H108       24.2566  -35.3458  -41.4470 H         1 UNK         0.0828 
    109 H109       23.7213  -34.0674  -42.5303 H         1 UNK         0.0828 
    110 H110       20.7509  -33.8423  -39.1388 H         1 UNK         0.2931 
    111 H111       19.3782  -36.1107  -40.5114 H         1 UNK         0.0412 
    112 H112       18.1726  -37.5157  -39.1136 H         1 UNK         0.3472 
    113 H113       18.3787  -37.4459  -37.3825 H         1 UNK         0.3472 
    114 H114       17.1980  -34.9444  -40.0443 H         1 UNK         0.0970 
    115 H115       18.0605  -33.5285  -39.5077 H         1 UNK         0.0970 
    116 H116       19.3977  -31.9369  -41.0694 H         1 UNK         0.0612 
    117 H117       17.6836  -31.5976  -41.1558 H         1 UNK         0.0612 
@<TRIPOS>BOND
     1    1    2 1    
     2    1   62 1    
     3    1   63 1    
     4    1   64 1    
     5    2    3 2    
     6    2    4 am   BACKBONE|DICT|INTERRES
     7    4    5 1    
     8    4   65 1    
     9    5    6 1    
    10    5   25 1    
    11    5   66 1    
    12    6    7 1    
    13    6   67 1    
    14    6   68 1    
    15    7    8 1    
    16    8    9 1    
    17    8   69 1    
    18    8   70 1    
    19    9   10 ar   
    20    9   14 ar   
    21   10   11 ar   
    22   10   71 1    
    23   11   12 ar   
    24   11   61 1    
    25   12   13 ar   
    26   12   72 1    
    27   13   14 ar   
    28   13   15 1    
    29   14   73 1    
    30   15   16 1    
    31   15   74 1    
    32   15   75 1    
    33   16   17 1    
    34   17   18 1    
    35   17   76 1    
    36   17   77 1    
    37   18   19 1    
    38   18   27 1    
    39   18   78 1    
    40   19   20 am   BACKBONE|DICT|INTERRES
    41   19   79 1    
    42   20   21 2    
    43   20   22 1    
    44   22   23 1    
    45   22   24 1    
    46   22   80 1    
    47   23   81 1    
    48   23   82 1    
    49   23   83 1    
    50   24   25 am   BACKBONE|DICT|INTERRES
    51   24   84 1    
    52   25   26 2    
    53   27   28 2    
    54   27   29 am   BACKBONE|DICT|INTERRES
    55   29   30 1    
    56   29   85 1    
    57   30   31 1    
    58   30   32 1    
    59   30   86 1    
    60   31   87 1    
    61   31   88 1    
    62   31   89 1    
    63   32   33 2    
    64   32   34 am   BACKBONE|DICT|INTERRES
    65   34   35 1    
    66   34   90 1    
    67   35   36 1    
    68   35   37 1    
    69   35   91 1    
    70   36   92 1    
    71   36   93 1    
    72   36   94 1    
    73   37   38 2    
    74   37   39 am   BACKBONE|DICT|INTERRES
    75   39   40 1    
    76   39   95 1    
    77   40   41 1    
    78   40   42 1    
    79   40   96 1    
    80   41   97 1    
    81   41   98 1    
    82   41   99 1    
    83   42   43 2    
    84   42   44 am   BACKBONE|DICT|INTERRES
    85   44   45 1    
    86   44  100 1    
    87   45   46 1    
    88   45   47 1    
    89   45  101 1    
    90   46  102 1    
    91   46  103 1    
    92   46  104 1    
    93   47   48 2    
    94   47   49 am   BACKBONE|DICT|INTERRES
    95   49   50 1    
    96   49  105 1    
    97   50   51 1    
    98   50   52 1    
    99   50  106 1    
   100   51  107 1    
   101   51  108 1    
   102   51  109 1    
   103   52   53 2    
   104   52   54 am   BACKBONE|DICT|INTERRES
   105   54   55 1    
   106   54  110 1    
   107   55   56 1    
   108   55   59 1    
   109   55  111 1    
   110   56   57 am   BACKBONE|DICT|INTERRES
   111   56   58 2    
   112   57  112 1    
   113   57  113 1    
   114   59   60 1    
   115   59  114 1    
   116   59  115 1    
   117   60   61 1    
   118   61  116 1    
   119   61  117 1    
@<TRIPOS>SUBSTRUCTURE
     1 UNK         1 GROUP             0       ****    0 ROOT    
