@<TRIPOS>MOLECULE
3R8
117   119    1
SMALL
USER_CHARGES


@<TRIPOS>ATOM
      1 CA         18.2935  -23.5612  -40.5514 C.3       0 UNK        -0.2013 
      2 C          18.3852  -24.5343  -41.7167 C.2       0 UNK         0.4866 
      3 O          17.9696  -24.2045  -42.8286 O.2       0 UNK        -0.5176 
      4 N          18.9268  -25.7345  -41.4748 N.am      1 UNK        -0.4884 
      5 CA         19.1225  -26.7961  -42.4673 C.3       1 UNK         0.0853 
      6 C6         19.2835  -28.1834  -41.7972 C.3       10 UNK        -0.0849 
      7 S7         17.8708  -28.6977  -40.7570 S.3       10 UNK        -0.2776 
      8 C8         16.5175  -28.9298  -41.9591 C.3       10 UNK         0.0316 
      9 C9         16.8563  -29.9514  -43.0355 C.ar      10 UNK        -0.0863 
     10 C10        16.6635  -31.3180  -42.8067 C.ar      10 UNK        -0.1009 
     11 C11        16.9702  -32.2523  -43.8021 C.ar      10 UNK        -0.0712 
     12 C12        17.4867  -31.8115  -45.0250 C.ar      10 UNK        -0.0894 
     13 C13        17.7012  -30.4498  -45.2550 C.ar      10 UNK        -0.0745 
     14 C14        17.3602  -29.5252  -44.2674 C.ar      10 UNK        -0.0972 
     15 C15        18.3588  -29.9766  -46.5403 C.3       10 UNK         0.0209 
     16 S16        20.1510  -30.2295  -46.4102 S.3       10 UNK        -0.2568 
     17 C17        20.8404  -29.1526  -47.7183 C.3       10 UNK        -0.0983 
     18 CA         21.8923  -28.1263  -47.2095 C.3       3 UNK         0.0876 
     19 N          21.2743  -27.0372  -46.4400 N.am      3 UNK        -0.4424 
     20 C          21.9084  -25.9172  -46.0606 C.2       2 UNK         0.4918 
     21 O          23.0811  -25.6686  -46.3409 O.2       2 UNK        -0.4875 
     22 CA         21.1304  -24.9184  -45.1843 C.3       2 UNK         0.0481 
     23 CB         20.4742  -23.8408  -46.0609 C.3       2 UNK        -0.1831 
     24 N          20.1160  -25.5056  -44.3013 N.am      2 UNK        -0.4498 
     25 C          20.3170  -26.4673  -43.3903 C.2       1 UNK         0.5027 
     26 O          21.3941  -27.0520  -43.2471 O.2       1 UNK        -0.4969 
     27 C          23.0524  -28.8205  -46.4531 C.2       3 UNK         0.5005 
     28 O          23.9733  -29.3339  -47.0908 O.2       3 UNK        -0.5279 
     29 N          22.9709  -28.8268  -45.1154 N.am      4 UNK        -0.4463 
     30 CA         23.8866  -29.4993  -44.1970 C.3       4 UNK         0.0283 
     31 CB         23.0697  -30.4958  -43.3543 C.3       4 UNK        -0.1875 
     32 C          24.6315  -28.4891  -43.3082 C.2       4 UNK         0.4949 
     33 O          25.1639  -28.8819  -42.2711 O.2       4 UNK        -0.5039 
     34 N          24.6396  -27.2052  -43.7032 N.am      5 UNK        -0.4663 
     35 CA         25.2468  -26.0685  -42.9957 C.3       5 UNK         0.0242 
     36 CB         26.7868  -26.1618  -43.0448 C.3       5 UNK        -0.1982 
     37 C          24.7013  -25.8847  -41.5632 C.2       5 UNK         0.5017 
     38 O          25.4633  -25.5726  -40.6468 O.2       5 UNK        -0.5012 
     39 N          23.3866  -26.0970  -41.4087 N.am      6 UNK        -0.4439 
     40 CA         22.6000  -26.0237  -40.1734 C.3       6 UNK         0.0297 
     41 CB         22.6946  -24.6339  -39.5080 C.3       6 UNK        -0.2006 
     42 C          22.8344  -27.1840  -39.1854 C.2       6 UNK         0.4892 
     43 O          22.3603  -27.0985  -38.0509 O.2       6 UNK        -0.5089 
     44 N          23.4925  -28.2691  -39.6228 N.am      7 UNK        -0.4243 
     45 CA         23.4749  -29.5580  -38.9225 C.3       7 UNK         0.0196 
     46 CB         24.6319  -30.4357  -39.4234 C.3       7 UNK        -0.2007 
     47 C          22.1245  -30.2581  -39.1538 C.2       7 UNK         0.5020 
     48 O          21.4758  -30.0057  -40.1695 O.2       7 UNK        -0.5147 
     49 N          21.7174  -31.1238  -38.2181 N.am      8 UNK        -0.4734 
     50 CA         20.4249  -31.8199  -38.2224 C.3       8 UNK         0.0238 
     51 CB         20.1683  -32.3954  -36.8165 C.3       8 UNK        -0.1912 
     52 C          20.3205  -32.8959  -39.3240 C.2       8 UNK         0.5038 
     53 O          20.3839  -34.0900  -39.0230 O.2       8 UNK        -0.5046 
     54 N          20.1622  -32.4448  -40.5746 N.am      9 UNK        -0.4200 
     55 CA         20.1126  -33.2555  -41.7999 C.3       9 UNK         0.0839 
     56 C          21.4856  -33.9188  -42.1374 C.2       9 UNK         0.5513 
     57 N          21.5187  -34.8735  -43.0561 N.am      9 UNK        -0.7519 
     58 O          22.5332  -33.5529  -41.6078 O.2       9 UNK        -0.4960 
     59 C59        18.8993  -34.2360  -41.7945 C.3       10 UNK        -0.0876 
     60 S60        18.2920  -34.6737  -43.4610 S.3       10 UNK        -0.2414 
     61 C61        16.7338  -33.7376  -43.5705 C.3       10 UNK         0.0169 
     62 H62        18.8399  -22.6473  -40.7830 H         1 UNK         0.0903 
     63 H63        17.2528  -23.2983  -40.3638 H         1 UNK         0.0903 
     64 H64        18.7084  -23.9810  -39.6352 H         1 UNK         0.0903 
     65 H65        19.2264  -25.9605  -40.5373 H         1 UNK         0.3096 
     66 H66        18.2359  -26.8277  -43.1005 H         1 UNK         0.1121 
     67 H67        19.4795  -28.9629  -42.5357 H         1 UNK         0.0849 
     68 H68        20.1615  -28.1639  -41.1530 H         1 UNK         0.0849 
     69 H69        15.6257  -29.2527  -41.4199 H         1 UNK         0.0865 
     70 H70        16.2582  -27.9701  -42.4079 H         1 UNK         0.0865 
     71 H71        16.2722  -31.6515  -41.8553 H         1 UNK         0.1346 
     72 H72        17.7496  -32.5324  -45.7874 H         1 UNK         0.1412 
     73 H73        17.5139  -28.4731  -44.4544 H         1 UNK         0.1426 
     74 H74        18.1416  -28.9221  -46.7170 H         1 UNK         0.0716 
     75 H75        17.9687  -30.5294  -47.3962 H         1 UNK         0.0716 
     76 H76        21.2961  -29.8012  -48.4687 H         1 UNK         0.0695 
     77 H77        20.0320  -28.6342  -48.2360 H         1 UNK         0.0695 
     78 H78        22.3411  -27.6630  -48.0912 H         1 UNK         0.0983 
     79 H79        20.3141  -27.1701  -46.1610 H         1 UNK         0.3095 
     80 H80        21.8608  -24.4270  -44.5383 H         1 UNK         0.0454 
     81 H81        21.2094  -23.3605  -46.7083 H         1 UNK         0.0851 
     82 H82        19.6984  -24.2598  -46.7029 H         1 UNK         0.0851 
     83 H83        20.0205  -23.0569  -45.4540 H         1 UNK         0.0851 
     84 H84        19.2213  -25.0277  -44.2662 H         1 UNK         0.2976 
     85 H85        22.1974  -28.3386  -44.6759 H         1 UNK         0.3116 
     86 H86        24.6441  -30.0569  -44.7510 H         1 UNK         0.0646 
     87 H87        23.7142  -31.0889  -42.7051 H         1 UNK         0.0847 
     88 H88        22.5223  -31.1961  -43.9855 H         1 UNK         0.0847 
     89 H89        22.3453  -29.9846  -42.7189 H         1 UNK         0.0847 
     90 H90        24.1683  -26.9823  -44.5706 H         1 UNK         0.3040 
     91 H91        24.9535  -25.1722  -43.5451 H         1 UNK         0.1015 
     92 H92        27.1593  -27.0107  -42.4702 H         1 UNK         0.0786 
     93 H93        27.2474  -25.2631  -42.6325 H         1 UNK         0.0786 
     94 H94        27.1453  -26.2667  -44.0687 H         1 UNK         0.0786 
     95 H95        22.8603  -26.4077  -42.2228 H         1 UNK         0.3172 
     96 H96        21.5669  -26.1423  -40.4972 H         1 UNK         0.0595 
     97 H97        21.9632  -24.5343  -38.7051 H         1 UNK         0.0839 
     98 H98        23.6770  -24.4582  -39.0696 H         1 UNK         0.0839 
     99 H99        22.4961  -23.8360  -40.2235 H         1 UNK         0.0839 
    100 H100       23.8511  -28.2782  -40.5699 H         1 UNK         0.2998 
    101 H101       23.6075  -29.3818  -37.8528 H         1 UNK         0.0822 
    102 H102       24.7059  -31.3542  -38.8402 H         1 UNK         0.0787 
    103 H103       24.4952  -30.7264  -40.4649 H         1 UNK         0.0787 
    104 H104       25.5887  -29.9195  -39.3425 H         1 UNK         0.0787 
    105 H105       22.3243  -31.3098  -37.4324 H         1 UNK         0.3055 
    106 H106       19.6429  -31.0826  -38.4217 H         1 UNK         0.1106 
    107 H107       20.1423  -31.6079  -36.0632 H         1 UNK         0.0828 
    108 H108       19.2077  -32.9109  -36.7755 H         1 UNK         0.0828 
    109 H109       20.9358  -33.1139  -36.5258 H         1 UNK         0.0828 
    110 H110       20.2736  -31.4445  -40.7114 H         1 UNK         0.2931 
    111 H111       19.9468  -32.5224  -42.5905 H         1 UNK         0.0412 
    112 H112       22.3985  -35.3018  -43.2976 H         1 UNK         0.3472 
    113 H113       20.6658  -35.1663  -43.5109 H         1 UNK         0.3472 
    114 H114       19.1492  -35.1538  -41.2591 H         1 UNK         0.0970 
    115 H115       18.0696  -33.7962  -41.2393 H         1 UNK         0.0970 
    116 H116       16.1378  -33.9083  -42.6728 H         1 UNK         0.0612 
    117 H117       16.1494  -34.1340  -44.4020 H         1 UNK         0.0612 
@<TRIPOS>BOND
     1    1    2 1    
     2    1   62 1    
     3    1   63 1    
     4    1   64 1    
     5    2    3 2    
     6    2    4 am   BACKBONE|DICT|INTERRES
     7    4    5 1    
     8    4   65 1    
     9    5    6 1    
    10    5   25 1    
    11    5   66 1    
    12    6    7 1    
    13    6   67 1    
    14    6   68 1    
    15    7    8 1    
    16    8    9 1    
    17    8   69 1    
    18    8   70 1    
    19    9   10 ar   
    20    9   14 ar   
    21   10   11 ar   
    22   10   71 1    
    23   11   12 ar   
    24   11   61 1    
    25   12   13 ar   
    26   12   72 1    
    27   13   14 ar   
    28   13   15 1    
    29   14   73 1    
    30   15   16 1    
    31   15   74 1    
    32   15   75 1    
    33   16   17 1    
    34   17   18 1    
    35   17   76 1    
    36   17   77 1    
    37   18   19 1    
    38   18   27 1    
    39   18   78 1    
    40   19   20 am   BACKBONE|DICT|INTERRES
    41   19   79 1    
    42   20   21 2    
    43   20   22 1    
    44   22   23 1    
    45   22   24 1    
    46   22   80 1    
    47   23   81 1    
    48   23   82 1    
    49   23   83 1    
    50   24   25 am   BACKBONE|DICT|INTERRES
    51   24   84 1    
    52   25   26 2    
    53   27   28 2    
    54   27   29 am   BACKBONE|DICT|INTERRES
    55   29   30 1    
    56   29   85 1    
    57   30   31 1    
    58   30   32 1    
    59   30   86 1    
    60   31   87 1    
    61   31   88 1    
    62   31   89 1    
    63   32   33 2    
    64   32   34 am   BACKBONE|DICT|INTERRES
    65   34   35 1    
    66   34   90 1    
    67   35   36 1    
    68   35   37 1    
    69   35   91 1    
    70   36   92 1    
    71   36   93 1    
    72   36   94 1    
    73   37   38 2    
    74   37   39 am   BACKBONE|DICT|INTERRES
    75   39   40 1    
    76   39   95 1    
    77   40   41 1    
    78   40   42 1    
    79   40   96 1    
    80   41   97 1    
    81   41   98 1    
    82   41   99 1    
    83   42   43 2    
    84   42   44 am   BACKBONE|DICT|INTERRES
    85   44   45 1    
    86   44  100 1    
    87   45   46 1    
    88   45   47 1    
    89   45  101 1    
    90   46  102 1    
    91   46  103 1    
    92   46  104 1    
    93   47   48 2    
    94   47   49 am   BACKBONE|DICT|INTERRES
    95   49   50 1    
    96   49  105 1    
    97   50   51 1    
    98   50   52 1    
    99   50  106 1    
   100   51  107 1    
   101   51  108 1    
   102   51  109 1    
   103   52   53 2    
   104   52   54 am   BACKBONE|DICT|INTERRES
   105   54   55 1    
   106   54  110 1    
   107   55   56 1    
   108   55   59 1    
   109   55  111 1    
   110   56   57 am   BACKBONE|DICT|INTERRES
   111   56   58 2    
   112   57  112 1    
   113   57  113 1    
   114   59   60 1    
   115   59  114 1    
   116   59  115 1    
   117   60   61 1    
   118   61  116 1    
   119   61  117 1    
@<TRIPOS>SUBSTRUCTURE
     1 UNK         1 GROUP             0       ****    0 ROOT    
