@<TRIPOS>MOLECULE
3R8
117   119    1
SMALL
USER_CHARGES


@<TRIPOS>ATOM
      1 CA         18.7907  -25.5224  -39.8799 C.3       0 UNK        -0.2013 
      2 C          18.6875  -25.6106  -41.3951 C.2       0 UNK         0.4866 
      3 O          19.6916  -25.8621  -42.0606 O.2       0 UNK        -0.5176 
      4 N          17.4805  -25.4013  -41.9398 N.am      1 UNK        -0.4884 
      5 CA         17.1545  -25.4414  -43.3722 C.3       1 UNK         0.0853 
      6 C6         17.2451  -26.8707  -43.9752 C.3       10 UNK        -0.0849 
      7 S7         16.0370  -28.0259  -43.2444 S.3       10 UNK        -0.2776 
      8 C8         16.0249  -29.3540  -44.4946 C.3       10 UNK         0.0316 
      9 C9         17.3188  -30.1549  -44.4676 C.ar      10 UNK        -0.0863 
     10 C10        17.4105  -31.3226  -43.7064 C.ar      10 UNK        -0.1009 
     11 C11        18.6059  -32.0461  -43.6423 C.ar      10 UNK        -0.0712 
     12 C12        19.7270  -31.5722  -44.3410 C.ar      10 UNK        -0.0894 
     13 C13        19.6475  -30.3999  -45.0990 C.ar      10 UNK        -0.0745 
     14 C14        18.4343  -29.7152  -45.1829 C.ar      10 UNK        -0.0972 
     15 C15        20.8707  -29.8391  -45.8049 C.3       10 UNK         0.0209 
     16 S16        21.6224  -28.4967  -44.8267 S.3       10 UNK        -0.2568 
     17 C17        22.5711  -27.6215  -46.1219 C.3       10 UNK        -0.0983 
     18 CA         22.8282  -26.1153  -45.8416 C.3       3 UNK         0.0876 
     19 N          21.6102  -25.3624  -45.5451 N.am      3 UNK        -0.4424 
     20 C          20.8373  -24.7745  -46.4633 C.2       2 UNK         0.4918 
     21 O          21.0246  -24.8755  -47.6771 O.2       2 UNK        -0.4875 
     22 CA         19.6517  -23.9543  -45.9333 C.3       2 UNK         0.0481 
     23 CB         18.8150  -23.3040  -47.0555 C.3       2 UNK        -0.1831 
     24 N          18.8093  -24.8066  -45.0989 N.am      2 UNK        -0.4498 
     25 C          17.9685  -24.3781  -44.1479 C.2       1 UNK         0.5027 
     26 O          17.8091  -23.1878  -43.8668 O.2       1 UNK        -0.4969 
     27 C          23.8391  -25.8851  -44.7085 C.2       3 UNK         0.5005 
     28 O          23.4382  -25.6295  -43.5693 O.2       3 UNK        -0.5279 
     29 N          25.1351  -26.0034  -45.0346 N.am      4 UNK        -0.4463 
     30 CA         26.2661  -25.7943  -44.1194 C.3       4 UNK         0.0283 
     31 CB         27.5789  -25.8440  -44.9182 C.3       4 UNK        -0.1875 
     32 C          26.3206  -26.7809  -42.9380 C.2       4 UNK         0.4949 
     33 O          26.9461  -26.4736  -41.9235 O.2       4 UNK        -0.5039 
     34 N          25.6504  -27.9323  -43.0791 N.am      5 UNK        -0.4663 
     35 CA         25.4501  -28.9224  -42.0205 C.3       5 UNK         0.0242 
     36 CB         24.9381  -30.2261  -42.6558 C.3       5 UNK        -0.1982 
     37 C          24.4841  -28.4551  -40.9141 C.2       5 UNK         0.5017 
     38 O          24.5091  -29.0404  -39.8312 O.2       5 UNK        -0.5012 
     39 N          23.6579  -27.4327  -41.2018 N.am      6 UNK        -0.4439 
     40 CA         22.5742  -26.9048  -40.3640 C.3       6 UNK         0.0297 
     41 CB         23.1316  -26.2179  -39.0992 C.3       6 UNK        -0.2006 
     42 C          21.5246  -27.9901  -40.0579 C.2       6 UNK         0.4892 
     43 O          21.2090  -28.2372  -38.8920 O.2       6 UNK        -0.5089 
     44 N          21.0411  -28.6362  -41.1296 N.am      7 UNK        -0.4243 
     45 CA         20.2176  -29.8460  -41.1413 C.3       7 UNK         0.0196 
     46 CB         18.8196  -29.5947  -40.5311 C.3       7 UNK        -0.2007 
     47 C          21.0008  -31.0230  -40.5295 C.2       7 UNK         0.5020 
     48 O          22.0094  -31.4234  -41.1107 O.2       7 UNK        -0.5147 
     49 N          20.5480  -31.5293  -39.3720 N.am      8 UNK        -0.4734 
     50 CA         21.2321  -32.5027  -38.5062 C.3       8 UNK         0.0238 
     51 CB         22.4851  -31.8573  -37.8740 C.3       8 UNK        -0.1912 
     52 C          21.5386  -33.8550  -39.1840 C.2       8 UNK         0.5038 
     53 O          22.6161  -34.4179  -38.9772 O.2       8 UNK        -0.5046 
     54 N          20.5777  -34.3595  -39.9686 N.am      9 UNK        -0.4200 
     55 CA         20.6605  -35.6574  -40.6630 C.3       9 UNK         0.0839 
     56 C          20.5102  -36.8995  -39.7353 C.2       9 UNK         0.5513 
     57 N          20.0835  -36.7551  -38.4860 N.am      9 UNK        -0.7519 
     58 O          20.7910  -38.0176  -40.1593 O.2       9 UNK        -0.4960 
     59 C59        19.6717  -35.7431  -41.8555 C.3       10 UNK        -0.0876 
     60 S60        19.9821  -34.4725  -43.1272 S.3       10 UNK        -0.2414 
     61 C61        18.6468  -33.2882  -42.7535 C.3       10 UNK         0.0169 
     62 H62        17.9113  -25.0538  -39.4389 H         1 UNK         0.0903 
     63 H63        18.8955  -26.5197  -39.4537 H         1 UNK         0.0903 
     64 H64        19.6644  -24.9366  -39.5952 H         1 UNK         0.0903 
     65 H65        16.7029  -25.1773  -41.3346 H         1 UNK         0.3096 
     66 H66        16.1155  -25.1184  -43.4579 H         1 UNK         0.1121 
     67 H67        17.0542  -26.8402  -45.0496 H         1 UNK         0.0849 
     68 H68        18.2455  -27.2846  -43.8369 H         1 UNK         0.0849 
     69 H69        15.1756  -30.0110  -44.3008 H         1 UNK         0.0865 
     70 H70        15.8581  -28.9325  -45.4871 H         1 UNK         0.0865 
     71 H71        16.5494  -31.6604  -43.1455 H         1 UNK         0.1346 
     72 H72        20.6747  -32.0871  -44.2705 H         1 UNK         0.1412 
     73 H73        18.3747  -28.8123  -45.7741 H         1 UNK         0.1426 
     74 H74        20.5748  -29.4695  -46.7877 H         1 UNK         0.0716 
     75 H75        21.6130  -30.6198  -45.9774 H         1 UNK         0.0716 
     76 H76        23.5103  -28.1537  -46.2826 H         1 UNK         0.0695 
     77 H77        22.0271  -27.7028  -47.0638 H         1 UNK         0.0695 
     78 H78        23.2798  -25.6828  -46.7378 H         1 UNK         0.0983 
     79 H79        21.4282  -25.2313  -44.5571 H         1 UNK         0.3095 
     80 H80        20.0742  -23.1598  -45.3147 H         1 UNK         0.0454 
     81 H81        19.4368  -22.6727  -47.6914 H         1 UNK         0.0851 
     82 H82        18.3482  -24.0542  -47.6946 H         1 UNK         0.0851 
     83 H83        18.0256  -22.6705  -46.6514 H         1 UNK         0.0851 
     84 H84        18.9283  -25.8010  -45.2341 H         1 UNK         0.2976 
     85 H85        25.3746  -26.2268  -45.9908 H         1 UNK         0.3116 
     86 H86        26.1631  -24.7933  -43.6949 H         1 UNK         0.0646 
     87 H87        28.4374  -25.6608  -44.2702 H         1 UNK         0.0847 
     88 H88        27.5998  -25.0837  -45.6992 H         1 UNK         0.0847 
     89 H89        27.7295  -26.8164  -45.3888 H         1 UNK         0.0847 
     90 H90        25.1782  -28.1021  -43.9549 H         1 UNK         0.3040 
     91 H91        26.4150  -29.1215  -41.5487 H         1 UNK         0.1015 
     92 H92        25.6380  -30.6121  -43.3970 H         1 UNK         0.0786 
     93 H93        23.9715  -30.0859  -43.1424 H         1 UNK         0.0786 
     94 H94        24.8065  -31.0021  -41.9000 H         1 UNK         0.0786 
     95 H95        23.7360  -26.9958  -42.1160 H         1 UNK         0.3172 
     96 H96        22.0751  -26.1391  -40.9584 H         1 UNK         0.0595 
     97 H97        23.8569  -25.4457  -39.3550 H         1 UNK         0.0839 
     98 H98        23.6184  -26.9280  -38.4301 H         1 UNK         0.0839 
     99 H99        22.3309  -25.7384  -38.5350 H         1 UNK         0.0839 
    100 H100       21.3709  -28.3385  -42.0379 H         1 UNK         0.2998 
    101 H101       20.0724  -30.0835  -42.1919 H         1 UNK         0.0822 
    102 H102       18.3035  -28.8003  -41.0709 H         1 UNK         0.0787 
    103 H103       18.1938  -30.4846  -40.6081 H         1 UNK         0.0787 
    104 H104       18.8625  -29.3042  -39.4815 H         1 UNK         0.0787 
    105 H105       19.7079  -31.1186  -38.9880 H         1 UNK         0.3055 
    106 H106       20.5407  -32.7301  -37.6932 H         1 UNK         0.1106 
    107 H107       23.2489  -31.6410  -38.6224 H         1 UNK         0.0828 
    108 H108       22.2390  -30.9209  -37.3729 H         1 UNK         0.0828 
    109 H109       22.9350  -32.5145  -37.1287 H         1 UNK         0.0828 
    110 H110       19.7244  -33.8364  -40.0865 H         1 UNK         0.2931 
    111 H111       21.6668  -35.7287  -41.0812 H         1 UNK         0.0412 
    112 H112       19.9953  -37.5692  -37.8978 H         1 UNK         0.3472 
    113 H113       19.8478  -35.8449  -38.1252 H         1 UNK         0.3472 
    114 H114       18.6394  -35.6816  -41.5061 H         1 UNK         0.0970 
    115 H115       19.7591  -36.7121  -42.3510 H         1 UNK         0.0970 
    116 H116       18.7405  -32.9617  -41.7179 H         1 UNK         0.0612 
    117 H117       17.6953  -33.8169  -42.8318 H         1 UNK         0.0612 
@<TRIPOS>BOND
     1    1    2 1    
     2    1   62 1    
     3    1   63 1    
     4    1   64 1    
     5    2    3 2    
     6    2    4 am   BACKBONE|DICT|INTERRES
     7    4    5 1    
     8    4   65 1    
     9    5    6 1    
    10    5   25 1    
    11    5   66 1    
    12    6    7 1    
    13    6   67 1    
    14    6   68 1    
    15    7    8 1    
    16    8    9 1    
    17    8   69 1    
    18    8   70 1    
    19    9   10 ar   
    20    9   14 ar   
    21   10   11 ar   
    22   10   71 1    
    23   11   12 ar   
    24   11   61 1    
    25   12   13 ar   
    26   12   72 1    
    27   13   14 ar   
    28   13   15 1    
    29   14   73 1    
    30   15   16 1    
    31   15   74 1    
    32   15   75 1    
    33   16   17 1    
    34   17   18 1    
    35   17   76 1    
    36   17   77 1    
    37   18   19 1    
    38   18   27 1    
    39   18   78 1    
    40   19   20 am   BACKBONE|DICT|INTERRES
    41   19   79 1    
    42   20   21 2    
    43   20   22 1    
    44   22   23 1    
    45   22   24 1    
    46   22   80 1    
    47   23   81 1    
    48   23   82 1    
    49   23   83 1    
    50   24   25 am   BACKBONE|DICT|INTERRES
    51   24   84 1    
    52   25   26 2    
    53   27   28 2    
    54   27   29 am   BACKBONE|DICT|INTERRES
    55   29   30 1    
    56   29   85 1    
    57   30   31 1    
    58   30   32 1    
    59   30   86 1    
    60   31   87 1    
    61   31   88 1    
    62   31   89 1    
    63   32   33 2    
    64   32   34 am   BACKBONE|DICT|INTERRES
    65   34   35 1    
    66   34   90 1    
    67   35   36 1    
    68   35   37 1    
    69   35   91 1    
    70   36   92 1    
    71   36   93 1    
    72   36   94 1    
    73   37   38 2    
    74   37   39 am   BACKBONE|DICT|INTERRES
    75   39   40 1    
    76   39   95 1    
    77   40   41 1    
    78   40   42 1    
    79   40   96 1    
    80   41   97 1    
    81   41   98 1    
    82   41   99 1    
    83   42   43 2    
    84   42   44 am   BACKBONE|DICT|INTERRES
    85   44   45 1    
    86   44  100 1    
    87   45   46 1    
    88   45   47 1    
    89   45  101 1    
    90   46  102 1    
    91   46  103 1    
    92   46  104 1    
    93   47   48 2    
    94   47   49 am   BACKBONE|DICT|INTERRES
    95   49   50 1    
    96   49  105 1    
    97   50   51 1    
    98   50   52 1    
    99   50  106 1    
   100   51  107 1    
   101   51  108 1    
   102   51  109 1    
   103   52   53 2    
   104   52   54 am   BACKBONE|DICT|INTERRES
   105   54   55 1    
   106   54  110 1    
   107   55   56 1    
   108   55   59 1    
   109   55  111 1    
   110   56   57 am   BACKBONE|DICT|INTERRES
   111   56   58 2    
   112   57  112 1    
   113   57  113 1    
   114   59   60 1    
   115   59  114 1    
   116   59  115 1    
   117   60   61 1    
   118   61  116 1    
   119   61  117 1    
@<TRIPOS>SUBSTRUCTURE
     1 UNK         1 GROUP             0       ****    0 ROOT    
