@<TRIPOS>MOLECULE
3R8
117   119    1
SMALL
USER_CHARGES


@<TRIPOS>ATOM
      1 CA         20.1438  -27.1535  -49.5791 C.3       0 UNK        -0.2013 
      2 C          19.5198  -26.7660  -48.2466 C.2       0 UNK         0.4866 
      3 O          19.3742  -25.5757  -47.9666 O.2       0 UNK        -0.5176 
      4 N          19.1516  -27.7641  -47.4320 N.am      1 UNK        -0.4884 
      5 CA         18.5637  -27.6298  -46.0923 C.3       1 UNK         0.0853 
      6 C6         17.1346  -27.0097  -46.0941 C.3       10 UNK        -0.0849 
      7 S7         15.9515  -28.0797  -46.9855 S.3       10 UNK        -0.2776 
      8 C8         14.9205  -28.7545  -45.6348 C.3       10 UNK         0.0316 
      9 C9         15.7389  -29.3739  -44.5067 C.ar      10 UNK        -0.0863 
     10 C10        16.6360  -30.4136  -44.7664 C.ar      10 UNK        -0.1009 
     11 C11        17.4326  -30.9369  -43.7439 C.ar      10 UNK        -0.0712 
     12 C12        17.2896  -30.4519  -42.4400 C.ar      10 UNK        -0.0894 
     13 C13        16.3730  -29.4335  -42.1605 C.ar      10 UNK        -0.0745 
     14 C14        15.6053  -28.8969  -43.1992 C.ar      10 UNK        -0.0972 
     15 C15        16.1874  -28.9172  -40.7399 C.3       10 UNK         0.0209 
     16 S16        16.8256  -27.2218  -40.5533 S.3       10 UNK        -0.2568 
     17 C17        18.4585  -27.4892  -39.7828 C.3       10 UNK        -0.0983 
     18 CA         19.5592  -27.9618  -40.7757 C.3       3 UNK         0.0876 
     19 N          19.6475  -27.1256  -41.9743 N.am      3 UNK        -0.4424 
     20 C          20.1143  -25.8736  -42.0654 C.2       2 UNK         0.4918 
     21 O          20.6436  -25.2730  -41.1287 O.2       2 UNK        -0.4875 
     22 CA         19.9150  -25.1381  -43.4088 C.3       2 UNK         0.0481 
     23 CB         21.2479  -24.6024  -43.9703 C.3       2 UNK        -0.1831 
     24 N          19.1627  -25.8944  -44.4261 N.am      2 UNK        -0.4498 
     25 C          19.5667  -26.9702  -45.1206 C.2       1 UNK         0.5027 
     26 O          20.6782  -27.4818  -44.9904 O.2       1 UNK        -0.4969 
     27 C          20.9458  -28.1630  -40.1271 C.2       3 UNK         0.5005 
     28 O          21.8398  -28.7096  -40.7781 O.2       3 UNK        -0.5279 
     29 N          21.1173  -27.7236  -38.8716 N.am      4 UNK        -0.4463 
     30 CA         22.3470  -27.8446  -38.0821 C.3       4 UNK         0.0283 
     31 CB         22.1003  -27.2982  -36.6675 C.3       4 UNK        -0.1875 
     32 C          23.5764  -27.1656  -38.7103 C.2       4 UNK         0.4949 
     33 O          24.6909  -27.6398  -38.4938 O.2       4 UNK        -0.5039 
     34 N          23.3661  -26.1164  -39.5197 N.am      5 UNK        -0.4663 
     35 CA         24.4266  -25.4455  -40.2818 C.3       5 UNK         0.0242 
     36 CB         23.8991  -24.1123  -40.8317 C.3       5 UNK        -0.1982 
     37 C          25.0067  -26.3137  -41.4156 C.2       5 UNK         0.5017 
     38 O          26.1350  -26.0650  -41.8403 O.2       5 UNK        -0.5012 
     39 N          24.2472  -27.3253  -41.8581 N.am      6 UNK        -0.4439 
     40 CA         24.6712  -28.3598  -42.8023 C.3       6 UNK         0.0297 
     41 CB         23.5912  -28.5036  -43.8887 C.3       6 UNK        -0.2006 
     42 C          24.9247  -29.7034  -42.0909 C.2       6 UNK         0.4892 
     43 O          25.0097  -30.7280  -42.7686 O.2       6 UNK        -0.5089 
     44 N          25.0052  -29.6943  -40.7491 N.am      7 UNK        -0.4243 
     45 CA         25.1495  -30.8539  -39.8589 C.3       7 UNK         0.0196 
     46 CB         26.5444  -31.4947  -40.0225 C.3       7 UNK        -0.2007 
     47 C          23.9979  -31.8703  -40.0036 C.2       7 UNK         0.5020 
     48 O          24.2385  -33.0777  -39.9693 O.2       7 UNK        -0.5147 
     49 N          22.7710  -31.3538  -40.1798 N.am      8 UNK        -0.4734 
     50 CA         21.5341  -32.0850  -40.4846 C.3       8 UNK         0.0238 
     51 CB         21.1374  -33.0398  -39.3381 C.3       8 UNK        -0.1912 
     52 C          21.5923  -32.7670  -41.8648 C.2       8 UNK         0.5038 
     53 O          21.1527  -33.9090  -42.0102 O.2       8 UNK        -0.5046 
     54 N          22.1255  -32.0305  -42.8488 N.am      9 UNK        -0.4200 
     55 CA         22.3296  -32.4452  -44.2454 C.3       9 UNK         0.0839 
     56 C          23.3899  -33.5745  -44.3791 C.2       9 UNK         0.5513 
     57 N          24.5573  -33.4069  -43.7721 N.am      9 UNK        -0.7519 
     58 O          23.1697  -34.5928  -45.0312 O.2       9 UNK        -0.4960 
     59 C59        21.0058  -32.7360  -45.0089 C.3       10 UNK        -0.0876 
     60 S60        19.8637  -31.3133  -44.9779 S.3       10 UNK        -0.2414 
     61 C61        18.4584  -32.0130  -44.0584 C.3       10 UNK         0.0169 
     62 H62        21.1511  -26.7445  -49.6543 H         1 UNK         0.0903 
     63 H63        20.2068  -28.2345  -49.7023 H         1 UNK         0.0903 
     64 H64        19.5510  -26.7530  -50.4011 H         1 UNK         0.0903 
     65 H65        19.3271  -28.7168  -47.7195 H         1 UNK         0.3096 
     66 H66        18.4715  -28.6484  -45.7163 H         1 UNK         0.1121 
     67 H67        17.1338  -26.0253  -46.5647 H         1 UNK         0.0849 
     68 H68        16.7643  -26.8614  -45.0787 H         1 UNK         0.0849 
     69 H69        14.2801  -27.9565  -45.2554 H         1 UNK         0.0865 
     70 H70        14.2517  -29.5122  -46.0451 H         1 UNK         0.0865 
     71 H71        16.7469  -30.7867  -45.7758 H         1 UNK         0.1346 
     72 H72        17.8901  -30.8698  -41.6440 H         1 UNK         0.1412 
     73 H73        14.9059  -28.1002  -42.9835 H         1 UNK         0.1426 
     74 H74        15.1225  -28.9150  -40.5026 H         1 UNK         0.0716 
     75 H75        16.6566  -29.5823  -40.0136 H         1 UNK         0.0716 
     76 H76        18.3410  -28.2025  -38.9646 H         1 UNK         0.0695 
     77 H77        18.7388  -26.5382  -39.3262 H         1 UNK         0.0695 
     78 H78        19.2743  -28.9511  -41.1305 H         1 UNK         0.0983 
     79 H79        19.2709  -27.5374  -42.8137 H         1 UNK         0.3095 
     80 H80        19.2912  -24.2727  -43.1816 H         1 UNK         0.0454 
     81 H81        21.1154  -24.1550  -44.9553 H         1 UNK         0.0851 
     82 H82        22.0001  -25.3873  -44.0551 H         1 UNK         0.0851 
     83 H83        21.6570  -23.8290  -43.3207 H         1 UNK         0.0851 
     84 H84        18.2298  -25.5487  -44.6028 H         1 UNK         0.2976 
     85 H85        20.3406  -27.2627  -38.4196 H         1 UNK         0.3116 
     86 H86        22.5749  -28.9095  -37.9997 H         1 UNK         0.0646 
     87 H87        21.2988  -27.8398  -36.1649 H         1 UNK         0.0847 
     88 H88        22.9930  -27.4003  -36.0485 H         1 UNK         0.0847 
     89 H89        21.8351  -26.2402  -36.6828 H         1 UNK         0.0847 
     90 H90        22.4165  -25.8026  -39.6823 H         1 UNK         0.3040 
     91 H91        25.2471  -25.2265  -39.5945 H         1 UNK         0.1015 
     92 H92        23.0861  -24.2658  -41.5391 H         1 UNK         0.0786 
     93 H93        24.6860  -23.5660  -41.3538 H         1 UNK         0.0786 
     94 H94        23.5326  -23.4681  -40.0323 H         1 UNK         0.0786 
     95 H95        23.3386  -27.4763  -41.4302 H         1 UNK         0.3172 
     96 H96        25.6060  -28.0745  -43.2881 H         1 UNK         0.0595 
     97 H97        22.6367  -28.8285  -43.4724 H         1 UNK         0.0839 
     98 H98        23.8833  -29.2319  -44.6461 H         1 UNK         0.0839 
     99 H99        23.4220  -27.5585  -44.4046 H         1 UNK         0.0839 
    100 H100       24.9290  -28.8019  -40.2752 H         1 UNK         0.2998 
    101 H101       25.0829  -30.4670  -38.8408 H         1 UNK         0.0822 
    102 H102       26.7078  -32.2723  -39.2753 H         1 UNK         0.0787 
    103 H103       26.6657  -31.9563  -41.0031 H         1 UNK         0.0787 
    104 H104       27.3367  -30.7566  -39.8985 H         1 UNK         0.0787 
    105 H105       22.6856  -30.3419  -40.2420 H         1 UNK         0.3055 
    106 H106       20.7470  -31.3337  -40.5625 H         1 UNK         0.1106 
    107 H107       20.1484  -33.4653  -39.5120 H         1 UNK         0.0828 
    108 H108       21.8330  -33.8736  -39.2413 H         1 UNK         0.0828 
    109 H109       21.1016  -32.5185  -38.3817 H         1 UNK         0.0828 
    110 H110       22.5069  -31.1275  -42.6099 H         1 UNK         0.2931 
    111 H111       22.7826  -31.5829  -44.7363 H         1 UNK         0.0412 
    112 H112       25.2635  -34.1220  -43.8386 H         1 UNK         0.3472 
    113 H113       24.7535  -32.5368  -43.2830 H         1 UNK         0.3472 
    114 H114       20.5152  -33.6243  -44.6078 H         1 UNK         0.0970 
    115 H115       21.2189  -32.9613  -46.0553 H         1 UNK         0.0970 
    116 H116       18.8189  -32.4787  -43.1402 H         1 UNK         0.0612 
    117 H117       17.9945  -32.8035  -44.6501 H         1 UNK         0.0612 
@<TRIPOS>BOND
     1    1    2 1    
     2    1   62 1    
     3    1   63 1    
     4    1   64 1    
     5    2    3 2    
     6    2    4 am   BACKBONE|DICT|INTERRES
     7    4    5 1    
     8    4   65 1    
     9    5    6 1    
    10    5   25 1    
    11    5   66 1    
    12    6    7 1    
    13    6   67 1    
    14    6   68 1    
    15    7    8 1    
    16    8    9 1    
    17    8   69 1    
    18    8   70 1    
    19    9   10 ar   
    20    9   14 ar   
    21   10   11 ar   
    22   10   71 1    
    23   11   12 ar   
    24   11   61 1    
    25   12   13 ar   
    26   12   72 1    
    27   13   14 ar   
    28   13   15 1    
    29   14   73 1    
    30   15   16 1    
    31   15   74 1    
    32   15   75 1    
    33   16   17 1    
    34   17   18 1    
    35   17   76 1    
    36   17   77 1    
    37   18   19 1    
    38   18   27 1    
    39   18   78 1    
    40   19   20 am   BACKBONE|DICT|INTERRES
    41   19   79 1    
    42   20   21 2    
    43   20   22 1    
    44   22   23 1    
    45   22   24 1    
    46   22   80 1    
    47   23   81 1    
    48   23   82 1    
    49   23   83 1    
    50   24   25 am   BACKBONE|DICT|INTERRES
    51   24   84 1    
    52   25   26 2    
    53   27   28 2    
    54   27   29 am   BACKBONE|DICT|INTERRES
    55   29   30 1    
    56   29   85 1    
    57   30   31 1    
    58   30   32 1    
    59   30   86 1    
    60   31   87 1    
    61   31   88 1    
    62   31   89 1    
    63   32   33 2    
    64   32   34 am   BACKBONE|DICT|INTERRES
    65   34   35 1    
    66   34   90 1    
    67   35   36 1    
    68   35   37 1    
    69   35   91 1    
    70   36   92 1    
    71   36   93 1    
    72   36   94 1    
    73   37   38 2    
    74   37   39 am   BACKBONE|DICT|INTERRES
    75   39   40 1    
    76   39   95 1    
    77   40   41 1    
    78   40   42 1    
    79   40   96 1    
    80   41   97 1    
    81   41   98 1    
    82   41   99 1    
    83   42   43 2    
    84   42   44 am   BACKBONE|DICT|INTERRES
    85   44   45 1    
    86   44  100 1    
    87   45   46 1    
    88   45   47 1    
    89   45  101 1    
    90   46  102 1    
    91   46  103 1    
    92   46  104 1    
    93   47   48 2    
    94   47   49 am   BACKBONE|DICT|INTERRES
    95   49   50 1    
    96   49  105 1    
    97   50   51 1    
    98   50   52 1    
    99   50  106 1    
   100   51  107 1    
   101   51  108 1    
   102   51  109 1    
   103   52   53 2    
   104   52   54 am   BACKBONE|DICT|INTERRES
   105   54   55 1    
   106   54  110 1    
   107   55   56 1    
   108   55   59 1    
   109   55  111 1    
   110   56   57 am   BACKBONE|DICT|INTERRES
   111   56   58 2    
   112   57  112 1    
   113   57  113 1    
   114   59   60 1    
   115   59  114 1    
   116   59  115 1    
   117   60   61 1    
   118   61  116 1    
   119   61  117 1    
@<TRIPOS>SUBSTRUCTURE
     1 UNK         1 GROUP             0       ****    0 ROOT    
