@<TRIPOS>MOLECULE
3R8
117   119    1
SMALL
USER_CHARGES


@<TRIPOS>ATOM
      1 CA         18.7563  -26.1102  -48.6960 C.3       0 UNK        -0.2013 
      2 C          18.7668  -26.5653  -47.2449 C.2       0 UNK         0.4866 
      3 O          19.8166  -26.9510  -46.7300 O.2       0 UNK        -0.5176 
      4 N          17.6117  -26.5061  -46.5703 N.am      1 UNK        -0.4884 
      5 CA         17.3985  -26.9480  -45.1833 C.3       1 UNK         0.0853 
      6 C6         15.9175  -27.3474  -44.9315 C.3       10 UNK        -0.0849 
      7 S7         15.3512  -28.6796  -46.0514 S.3       10 UNK        -0.2776 
      8 C8         15.5015  -30.1692  -45.0064 C.3       10 UNK         0.0316 
      9 C9         16.9066  -30.3215  -44.4429 C.ar      10 UNK        -0.0863 
     10 C10        17.9691  -30.6764  -45.2779 C.ar      10 UNK        -0.1009 
     11 C11        19.2760  -30.7297  -44.7840 C.ar      10 UNK        -0.0712 
     12 C12        19.5119  -30.4182  -43.4386 C.ar      10 UNK        -0.0894 
     13 C13        18.4533  -30.0885  -42.5857 C.ar      10 UNK        -0.0745 
     14 C14        17.1513  -30.0586  -43.0935 C.ar      10 UNK        -0.0972 
     15 C15        18.7137  -29.7701  -41.1182 C.3       10 UNK         0.0209 
     16 S16        17.9598  -28.1847  -40.6243 S.3       10 UNK        -0.2568 
     17 C17        19.2693  -27.4414  -39.5982 C.3       10 UNK        -0.0983 
     18 CA         20.4012  -26.8097  -40.4442 C.3       3 UNK         0.0876 
     19 N          19.8912  -25.8971  -41.4719 N.am      3 UNK        -0.4424 
     20 C          20.6370  -25.3259  -42.4225 C.2       2 UNK         0.4918 
     21 O          21.8565  -25.4740  -42.5098 O.2       2 UNK        -0.4875 
     22 CA         19.8806  -24.5178  -43.4867 C.3       2 UNK         0.0481 
     23 CB         20.8239  -23.6542  -44.3440 C.3       2 UNK        -0.1831 
     24 N          19.1550  -25.4358  -44.3620 N.am      2 UNK        -0.4498 
     25 C          17.9244  -25.9195  -44.1526 C.2       1 UNK         0.5027 
     26 O          17.2225  -25.5758  -43.1995 O.2       1 UNK        -0.4969 
     27 C          21.4533  -26.1375  -39.5384 C.2       3 UNK         0.5005 
     28 O          21.3362  -24.9457  -39.2448 O.2       3 UNK        -0.5279 
     29 N          22.4609  -26.9235  -39.1374 N.am      4 UNK        -0.4463 
     30 CA         23.6739  -26.5729  -38.3841 C.3       4 UNK         0.0283 
     31 CB         23.4218  -25.6342  -37.1870 C.3       4 UNK        -0.1875 
     32 C          24.8069  -26.0691  -39.2918 C.2       4 UNK         0.4949 
     33 O          25.9674  -26.3557  -38.9969 O.2       4 UNK        -0.5039 
     34 N          24.4715  -25.3990  -40.4046 N.am      5 UNK        -0.4663 
     35 CA         25.3795  -25.2353  -41.5438 C.3       5 UNK         0.0242 
     36 CB         24.9809  -24.0122  -42.3869 C.3       5 UNK        -0.1982 
     37 C          25.3827  -26.5330  -42.3680 C.2       5 UNK         0.5017 
     38 O          26.4480  -27.1019  -42.6079 O.2       5 UNK        -0.5012 
     39 N          24.1801  -27.0152  -42.7110 N.am      6 UNK        -0.4439 
     40 CA         23.9256  -28.3773  -43.1678 C.3       6 UNK         0.0297 
     41 CB         22.5974  -28.4166  -43.9379 C.3       6 UNK        -0.2006 
     42 C          23.8803  -29.3094  -41.9472 C.2       6 UNK         0.4892 
     43 O          23.1033  -29.0635  -41.0177 O.2       6 UNK        -0.5089 
     44 N          24.7166  -30.3527  -41.9626 N.am      7 UNK        -0.4243 
     45 CA         24.9137  -31.2958  -40.8595 C.3       7 UNK         0.0196 
     46 CB         26.3091  -31.9334  -40.9990 C.3       7 UNK        -0.2007 
     47 C          23.7906  -32.3464  -40.7765 C.2       7 UNK         0.5020 
     48 O          24.0426  -33.5351  -40.9807 O.2       7 UNK        -0.5147 
     49 N          22.5651  -31.8833  -40.4956 N.am      8 UNK        -0.4734 
     50 CA         21.3126  -32.6284  -40.2704 C.3       8 UNK         0.0238 
     51 CB         21.4396  -33.5777  -39.0628 C.3       8 UNK        -0.1912 
     52 C          20.7437  -33.3756  -41.4930 C.2       8 UNK         0.5038 
     53 O          19.5223  -33.4357  -41.6307 O.2       8 UNK        -0.5046 
     54 N          21.6191  -33.9193  -42.3458 N.am      9 UNK        -0.4200 
     55 CA         21.3176  -34.6239  -43.6044 C.3       9 UNK         0.0839 
     56 C          20.5651  -35.9786  -43.4318 C.2       9 UNK         0.5513 
     57 N          20.5652  -36.5877  -42.2520 N.am      9 UNK        -0.7519 
     58 O          20.0005  -36.5073  -44.3865 O.2       9 UNK        -0.4960 
     59 C59        20.6637  -33.7030  -44.6749 C.3       10 UNK        -0.0876 
     60 S60        21.6629  -32.2118  -45.0131 S.3       10 UNK        -0.2414 
     61 C61        20.4165  -31.0904  -45.7327 C.3       10 UNK         0.0169 
     62 H62        17.7640  -25.7945  -49.0177 H         1 UNK         0.0903 
     63 H63        19.4401  -25.2728  -48.8314 H         1 UNK         0.0903 
     64 H64        19.0802  -26.9234  -49.3450 H         1 UNK         0.0903 
     65 H65        16.7852  -26.1656  -47.0411 H         1 UNK         0.3096 
     66 H66        18.0071  -27.8399  -45.0238 H         1 UNK         0.1121 
     67 H67        15.2644  -26.4842  -45.0711 H         1 UNK         0.0849 
     68 H68        15.7693  -27.6675  -43.8985 H         1 UNK         0.0849 
     69 H69        14.7633  -30.1205  -44.2043 H         1 UNK         0.0865 
     70 H70        15.2500  -31.0494  -45.5998 H         1 UNK         0.0865 
     71 H71        17.7778  -30.8798  -46.3229 H         1 UNK         0.1346 
     72 H72        20.5209  -30.4468  -43.0523 H         1 UNK         0.1412 
     73 H73        16.3311  -29.7927  -42.4406 H         1 UNK         0.1426 
     74 H74        19.7864  -29.7443  -40.9242 H         1 UNK         0.0716 
     75 H75        18.3048  -30.5697  -40.4993 H         1 UNK         0.0716 
     76 H76        19.6648  -28.2039  -38.9242 H         1 UNK         0.0695 
     77 H77        18.8017  -26.6857  -38.9637 H         1 UNK         0.0695 
     78 H78        20.9010  -27.6141  -40.9860 H         1 UNK         0.0983 
     79 H79        18.8892  -25.7618  -41.4927 H         1 UNK         0.3095 
     80 H80        19.1802  -23.8522  -42.9781 H         1 UNK         0.0454 
     81 H81        21.5391  -24.2624  -44.8996 H         1 UNK         0.0851 
     82 H82        21.3963  -22.9662  -43.7205 H         1 UNK         0.0851 
     83 H83        20.2667  -23.0536  -45.0628 H         1 UNK         0.0851 
     84 H84        19.6664  -25.8159  -45.1540 H         1 UNK         0.2976 
     85 H85        22.4963  -27.8573  -39.5394 H         1 UNK         0.3116 
     86 H86        24.0200  -27.5215  -37.9703 H         1 UNK         0.0646 
     87 H87        23.1915  -24.6167  -37.5032 H         1 UNK         0.0847 
     88 H88        24.3077  -25.5753  -36.5537 H         1 UNK         0.0847 
     89 H89        22.6010  -25.9907  -36.5648 H         1 UNK         0.0847 
     90 H90        23.4941  -25.1918  -40.5632 H         1 UNK         0.3040 
     91 H91        26.3947  -25.0678  -41.1762 H         1 UNK         0.1015 
     92 H92        23.9841  -24.1054  -42.8153 H         1 UNK         0.0786 
     93 H93        25.6759  -23.8730  -43.2158 H         1 UNK         0.0786 
     94 H94        25.0024  -23.0998  -41.7908 H         1 UNK         0.0786 
     95 H95        23.3546  -26.4537  -42.5080 H         1 UNK         0.3172 
     96 H96        24.7262  -28.6860  -43.8434 H         1 UNK         0.0595 
     97 H97        21.7455  -28.1737  -43.3022 H         1 UNK         0.0839 
     98 H98        22.4267  -29.4101  -44.3483 H         1 UNK         0.0839 
     99 H99        22.5982  -27.7167  -44.7738 H         1 UNK         0.0839 
    100 H100       25.2943  -30.4955  -42.7787 H         1 UNK         0.2998 
    101 H101       24.9011  -30.7393  -39.9194 H         1 UNK         0.0822 
    102 H102       27.0943  -31.1773  -40.9796 H         1 UNK         0.0787 
    103 H103       26.5072  -32.6237  -40.1777 H         1 UNK         0.0787 
    104 H104       26.4068  -32.4957  -41.9286 H         1 UNK         0.0787 
    105 H105       22.4857  -30.8719  -40.4381 H         1 UNK         0.3055 
    106 H106       20.5690  -31.8758  -40.0066 H         1 UNK         0.1106 
    107 H107       20.4837  -34.0539  -38.8401 H         1 UNK         0.0828 
    108 H108       22.1627  -34.3739  -39.2416 H         1 UNK         0.0828 
    109 H109       21.7484  -33.0397  -38.1665 H         1 UNK         0.0828 
    110 H110       22.6015  -33.8570  -42.0922 H         1 UNK         0.2931 
    111 H111       22.2933  -34.9128  -43.9966 H         1 UNK         0.0412 
    112 H112       20.0865  -37.4690  -42.1494 H         1 UNK         0.3472 
    113 H113       21.0355  -36.1717  -41.4642 H         1 UNK         0.3472 
    114 H114       20.5396  -34.2359  -45.6191 H         1 UNK         0.0970 
    115 H115       19.6612  -33.4131  -44.3565 H         1 UNK         0.0970 
    116 H116       20.9080  -30.1701  -46.0498 H         1 UNK         0.0612 
    117 H117       20.0266  -31.5566  -46.6389 H         1 UNK         0.0612 
@<TRIPOS>BOND
     1    1    2 1    
     2    1   62 1    
     3    1   63 1    
     4    1   64 1    
     5    2    3 2    
     6    2    4 am   BACKBONE|DICT|INTERRES
     7    4    5 1    
     8    4   65 1    
     9    5    6 1    
    10    5   25 1    
    11    5   66 1    
    12    6    7 1    
    13    6   67 1    
    14    6   68 1    
    15    7    8 1    
    16    8    9 1    
    17    8   69 1    
    18    8   70 1    
    19    9   10 ar   
    20    9   14 ar   
    21   10   11 ar   
    22   10   71 1    
    23   11   12 ar   
    24   11   61 1    
    25   12   13 ar   
    26   12   72 1    
    27   13   14 ar   
    28   13   15 1    
    29   14   73 1    
    30   15   16 1    
    31   15   74 1    
    32   15   75 1    
    33   16   17 1    
    34   17   18 1    
    35   17   76 1    
    36   17   77 1    
    37   18   19 1    
    38   18   27 1    
    39   18   78 1    
    40   19   20 am   BACKBONE|DICT|INTERRES
    41   19   79 1    
    42   20   21 2    
    43   20   22 1    
    44   22   23 1    
    45   22   24 1    
    46   22   80 1    
    47   23   81 1    
    48   23   82 1    
    49   23   83 1    
    50   24   25 am   BACKBONE|DICT|INTERRES
    51   24   84 1    
    52   25   26 2    
    53   27   28 2    
    54   27   29 am   BACKBONE|DICT|INTERRES
    55   29   30 1    
    56   29   85 1    
    57   30   31 1    
    58   30   32 1    
    59   30   86 1    
    60   31   87 1    
    61   31   88 1    
    62   31   89 1    
    63   32   33 2    
    64   32   34 am   BACKBONE|DICT|INTERRES
    65   34   35 1    
    66   34   90 1    
    67   35   36 1    
    68   35   37 1    
    69   35   91 1    
    70   36   92 1    
    71   36   93 1    
    72   36   94 1    
    73   37   38 2    
    74   37   39 am   BACKBONE|DICT|INTERRES
    75   39   40 1    
    76   39   95 1    
    77   40   41 1    
    78   40   42 1    
    79   40   96 1    
    80   41   97 1    
    81   41   98 1    
    82   41   99 1    
    83   42   43 2    
    84   42   44 am   BACKBONE|DICT|INTERRES
    85   44   45 1    
    86   44  100 1    
    87   45   46 1    
    88   45   47 1    
    89   45  101 1    
    90   46  102 1    
    91   46  103 1    
    92   46  104 1    
    93   47   48 2    
    94   47   49 am   BACKBONE|DICT|INTERRES
    95   49   50 1    
    96   49  105 1    
    97   50   51 1    
    98   50   52 1    
    99   50  106 1    
   100   51  107 1    
   101   51  108 1    
   102   51  109 1    
   103   52   53 2    
   104   52   54 am   BACKBONE|DICT|INTERRES
   105   54   55 1    
   106   54  110 1    
   107   55   56 1    
   108   55   59 1    
   109   55  111 1    
   110   56   57 am   BACKBONE|DICT|INTERRES
   111   56   58 2    
   112   57  112 1    
   113   57  113 1    
   114   59   60 1    
   115   59  114 1    
   116   59  115 1    
   117   60   61 1    
   118   61  116 1    
   119   61  117 1    
@<TRIPOS>SUBSTRUCTURE
     1 UNK         1 GROUP             0       ****    0 ROOT    
