@<TRIPOS>MOLECULE
3R8
117   119    1
SMALL
USER_CHARGES


@<TRIPOS>ATOM
      1 CA         15.6109  -23.7141  -40.4926 C.3       0 UNK        -0.2013 
      2 C          16.0072  -24.1055  -41.9084 C.2       0 UNK         0.4866 
      3 O          16.7187  -23.3534  -42.5742 O.2       0 UNK        -0.5176 
      4 N          15.5480  -25.2748  -42.3747 N.am      1 UNK        -0.4884 
      5 CA         15.8511  -25.8216  -43.7044 C.3       1 UNK         0.0853 
      6 C6         14.8853  -26.9826  -44.0587 C.3       10 UNK        -0.0849 
      7 S7         14.8250  -27.3468  -45.8467 S.3       10 UNK        -0.2776 
      8 C8         15.2014  -29.1330  -45.8979 C.3       10 UNK         0.0316 
      9 C9         16.6871  -29.4632  -45.7694 C.ar      10 UNK        -0.0863 
     10 C10        17.1313  -30.3466  -44.7785 C.ar      10 UNK        -0.1009 
     11 C11        18.4709  -30.7488  -44.7322 C.ar      10 UNK        -0.0712 
     12 C12        19.3705  -30.2520  -45.6792 C.ar      10 UNK        -0.0894 
     13 C13        18.9568  -29.3280  -46.6402 C.ar      10 UNK        -0.0745 
     14 C14        17.6089  -28.9537  -46.6914 C.ar      10 UNK        -0.0972 
     15 C15        19.9534  -28.7756  -47.6527 C.3       10 UNK         0.0209 
     16 S16        20.0848  -26.9555  -47.5986 S.3       10 UNK        -0.2568 
     17 C17        21.4846  -26.4826  -46.5049 C.3       10 UNK        -0.0983 
     18 CA         21.8895  -27.3602  -45.2853 C.3       3 UNK         0.0876 
     19 N          20.7661  -27.7160  -44.4196 N.am      3 UNK        -0.4424 
     20 C          20.3098  -26.9887  -43.3959 C.2       2 UNK         0.4918 
     21 O          20.7981  -25.9199  -43.0258 O.2       2 UNK        -0.4875 
     22 CA         19.1088  -27.5854  -42.6416 C.3       2 UNK         0.0481 
     23 CB         19.4493  -27.8121  -41.1603 C.3       2 UNK        -0.1831 
     24 N          17.8628  -26.8229  -42.7371 N.am      2 UNK        -0.4498 
     25 C          17.3204  -26.2722  -43.8353 C.2       1 UNK         0.5027 
     26 O          17.8945  -26.1306  -44.9136 O.2       1 UNK        -0.4969 
     27 C          22.7857  -28.5738  -45.6054 C.2       3 UNK         0.5005 
     28 O          23.4452  -28.5958  -46.6459 O.2       3 UNK        -0.5279 
     29 N          22.8145  -29.5589  -44.6993 N.am      4 UNK        -0.4463 
     30 CA         23.6925  -30.7258  -44.7346 C.3       4 UNK         0.0283 
     31 CB         22.9450  -31.9290  -45.3349 C.3       4 UNK        -0.1875 
     32 C          24.1619  -31.0166  -43.3050 C.2       4 UNK         0.4949 
     33 O          23.5612  -30.5136  -42.3511 O.2       4 UNK        -0.5039 
     34 N          25.2426  -31.8002  -43.1817 N.am      5 UNK        -0.4663 
     35 CA         25.8923  -32.2011  -41.9231 C.3       5 UNK         0.0242 
     36 CB         24.9894  -33.1844  -41.1454 C.3       5 UNK        -0.1982 
     37 C          26.3255  -30.9940  -41.0655 C.2       5 UNK         0.5017 
     38 O          26.0887  -30.9816  -39.8586 O.2       5 UNK        -0.5012 
     39 N          26.8907  -29.9684  -41.7226 N.am      6 UNK        -0.4439 
     40 CA         27.2464  -28.6548  -41.1617 C.3       6 UNK         0.0297 
     41 CB         28.4074  -28.7821  -40.1517 C.3       6 UNK        -0.2006 
     42 C          26.0321  -27.8903  -40.5860 C.2       6 UNK         0.4892 
     43 O          26.1735  -27.1635  -39.6017 O.2       6 UNK        -0.5089 
     44 N          24.8638  -28.0850  -41.2176 N.am      7 UNK        -0.4243 
     45 CA         23.5388  -27.5666  -40.8581 C.3       7 UNK         0.0196 
     46 CB         23.5088  -26.0234  -40.8690 C.3       7 UNK        -0.2007 
     47 C          22.9656  -28.1724  -39.5610 C.2       7 UNK         0.5020 
     48 O          22.0740  -27.5729  -38.9595 O.2       7 UNK        -0.5147 
     49 N          23.4527  -29.3549  -39.1586 N.am      8 UNK        -0.4734 
     50 CA         22.9635  -30.0925  -37.9890 C.3       8 UNK         0.0238 
     51 CB         24.1541  -30.7523  -37.2724 C.3       8 UNK        -0.1912 
     52 C          21.8997  -31.1470  -38.3451 C.2       8 UNK         0.5038 
     53 O          21.3759  -31.7816  -37.4275 O.2       8 UNK        -0.5046 
     54 N          21.6156  -31.3484  -39.6409 N.am      9 UNK        -0.4200 
     55 CA         20.6222  -32.3134  -40.1376 C.3       9 UNK         0.0839 
     56 C          19.1585  -32.0200  -39.6927 C.2       9 UNK         0.5513 
     57 N          18.2928  -33.0246  -39.7291 N.am      9 UNK        -0.7519 
     58 O          18.7929  -30.8992  -39.3443 O.2       9 UNK        -0.4960 
     59 C59        20.7500  -32.5224  -41.6691 C.3       10 UNK        -0.0876 
     60 S60        20.2931  -31.0627  -42.6660 S.3       10 UNK        -0.2414 
     61 C61        18.9477  -31.7449  -43.6846 C.3       10 UNK         0.0169 
     62 H62        15.0680  -22.7693  -40.5028 H         1 UNK         0.0903 
     63 H63        14.9753  -24.4647  -40.0231 H         1 UNK         0.0903 
     64 H64        16.5003  -23.5891  -39.8754 H         1 UNK         0.0903 
     65 H65        14.9511  -25.8409  -41.7873 H         1 UNK         0.3096 
     66 H66        15.6968  -25.0160  -44.4266 H         1 UNK         0.1121 
     67 H67        13.8682  -26.7193  -43.7636 H         1 UNK         0.0849 
     68 H68        15.1320  -27.8848  -43.4951 H         1 UNK         0.0849 
     69 H69        14.8505  -29.5267  -46.8528 H         1 UNK         0.0865 
     70 H70        14.6164  -29.6461  -45.1330 H         1 UNK         0.0865 
     71 H71        16.4274  -30.7497  -44.0631 H         1 UNK         0.1346 
     72 H72        20.3978  -30.5860  -45.6601 H         1 UNK         0.1412 
     73 H73        17.2751  -28.2650  -47.4557 H         1 UNK         0.1426 
     74 H74        19.6021  -29.0526  -48.6475 H         1 UNK         0.0716 
     75 H75        20.9351  -29.2362  -47.5557 H         1 UNK         0.0716 
     76 H76        21.2223  -25.4953  -46.1213 H         1 UNK         0.0695 
     77 H77        22.3510  -26.2999  -47.1427 H         1 UNK         0.0695 
     78 H78        22.5610  -26.7367  -44.6900 H         1 UNK         0.0983 
     79 H79        20.2514  -28.5445  -44.6879 H         1 UNK         0.3095 
     80 H80        18.8835  -28.5581  -43.0757 H         1 UNK         0.0454 
     81 H81        19.6462  -26.8736  -40.6405 H         1 UNK         0.0851 
     82 H82        20.3382  -28.4342  -41.0572 H         1 UNK         0.0851 
     83 H83        18.6437  -28.3275  -40.6374 H         1 UNK         0.0851 
     84 H84        17.2931  -26.8177  -41.9046 H         1 UNK         0.2976 
     85 H85        22.3078  -29.4570  -43.8279 H         1 UNK         0.3116 
     86 H86        24.5752  -30.5084  -45.3399 H         1 UNK         0.0646 
     87 H87        22.5906  -31.7119  -46.3426 H         1 UNK         0.0847 
     88 H88        22.0849  -32.2167  -44.7307 H         1 UNK         0.0847 
     89 H89        23.5962  -32.8009  -45.4047 H         1 UNK         0.0847 
     90 H90        25.6721  -32.1555  -44.0258 H         1 UNK         0.3040 
     91 H91        26.8082  -32.7308  -42.1907 H         1 UNK         0.1015 
     92 H92        25.5079  -33.5851  -40.2733 H         1 UNK         0.0786 
     93 H93        24.6977  -34.0318  -41.7655 H         1 UNK         0.0786 
     94 H94        24.0793  -32.7027  -40.7866 H         1 UNK         0.0786 
     95 H95        27.0351  -30.0752  -42.7176 H         1 UNK         0.3172 
     96 H96        27.6065  -28.0552  -41.9989 H         1 UNK         0.0595 
     97 H97        28.1030  -29.3112  -39.2480 H         1 UNK         0.0839 
     98 H98        28.7681  -27.7996  -39.8446 H         1 UNK         0.0839 
     99 H99        29.2541  -29.3151  -40.5839 H         1 UNK         0.0839 
    100 H100       24.8526  -28.7662  -41.9655 H         1 UNK         0.2998 
    101 H101       22.8699  -27.9025  -41.6515 H         1 UNK         0.0822 
    102 H102       23.8990  -25.6255  -41.8056 H         1 UNK         0.0787 
    103 H103       22.4879  -25.6534  -40.7654 H         1 UNK         0.0787 
    104 H104       24.0902  -25.5979  -40.0510 H         1 UNK         0.0787 
    105 H105       24.2003  -29.7893  -39.6882 H         1 UNK         0.3055 
    106 H106       22.4990  -29.3976  -37.2856 H         1 UNK         0.1106 
    107 H107       23.8488  -31.1619  -36.3087 H         1 UNK         0.0828 
    108 H108       24.9543  -30.0369  -37.0817 H         1 UNK         0.0828 
    109 H109       24.5694  -31.5763  -37.8531 H         1 UNK         0.0828 
    110 H110       22.0821  -30.7872  -40.3401 H         1 UNK         0.2931 
    111 H111       20.8907  -33.2648  -39.6735 H         1 UNK         0.0412 
    112 H112       17.3375  -32.8554  -39.4550 H         1 UNK         0.3472 
    113 H113       18.5753  -33.9502  -40.0115 H         1 UNK         0.3472 
    114 H114       21.7780  -32.7884  -41.9192 H         1 UNK         0.0970 
    115 H115       20.1510  -33.3806  -41.9777 H         1 UNK         0.0970 
    116 H116       18.1281  -32.0464  -43.0303 H         1 UNK         0.0612 
    117 H117       19.2976  -32.6459  -44.1904 H         1 UNK         0.0612 
@<TRIPOS>BOND
     1    1    2 1    
     2    1   62 1    
     3    1   63 1    
     4    1   64 1    
     5    2    3 2    
     6    2    4 am   BACKBONE|DICT|INTERRES
     7    4    5 1    
     8    4   65 1    
     9    5    6 1    
    10    5   25 1    
    11    5   66 1    
    12    6    7 1    
    13    6   67 1    
    14    6   68 1    
    15    7    8 1    
    16    8    9 1    
    17    8   69 1    
    18    8   70 1    
    19    9   10 ar   
    20    9   14 ar   
    21   10   11 ar   
    22   10   71 1    
    23   11   12 ar   
    24   11   61 1    
    25   12   13 ar   
    26   12   72 1    
    27   13   14 ar   
    28   13   15 1    
    29   14   73 1    
    30   15   16 1    
    31   15   74 1    
    32   15   75 1    
    33   16   17 1    
    34   17   18 1    
    35   17   76 1    
    36   17   77 1    
    37   18   19 1    
    38   18   27 1    
    39   18   78 1    
    40   19   20 am   BACKBONE|DICT|INTERRES
    41   19   79 1    
    42   20   21 2    
    43   20   22 1    
    44   22   23 1    
    45   22   24 1    
    46   22   80 1    
    47   23   81 1    
    48   23   82 1    
    49   23   83 1    
    50   24   25 am   BACKBONE|DICT|INTERRES
    51   24   84 1    
    52   25   26 2    
    53   27   28 2    
    54   27   29 am   BACKBONE|DICT|INTERRES
    55   29   30 1    
    56   29   85 1    
    57   30   31 1    
    58   30   32 1    
    59   30   86 1    
    60   31   87 1    
    61   31   88 1    
    62   31   89 1    
    63   32   33 2    
    64   32   34 am   BACKBONE|DICT|INTERRES
    65   34   35 1    
    66   34   90 1    
    67   35   36 1    
    68   35   37 1    
    69   35   91 1    
    70   36   92 1    
    71   36   93 1    
    72   36   94 1    
    73   37   38 2    
    74   37   39 am   BACKBONE|DICT|INTERRES
    75   39   40 1    
    76   39   95 1    
    77   40   41 1    
    78   40   42 1    
    79   40   96 1    
    80   41   97 1    
    81   41   98 1    
    82   41   99 1    
    83   42   43 2    
    84   42   44 am   BACKBONE|DICT|INTERRES
    85   44   45 1    
    86   44  100 1    
    87   45   46 1    
    88   45   47 1    
    89   45  101 1    
    90   46  102 1    
    91   46  103 1    
    92   46  104 1    
    93   47   48 2    
    94   47   49 am   BACKBONE|DICT|INTERRES
    95   49   50 1    
    96   49  105 1    
    97   50   51 1    
    98   50   52 1    
    99   50  106 1    
   100   51  107 1    
   101   51  108 1    
   102   51  109 1    
   103   52   53 2    
   104   52   54 am   BACKBONE|DICT|INTERRES
   105   54   55 1    
   106   54  110 1    
   107   55   56 1    
   108   55   59 1    
   109   55  111 1    
   110   56   57 am   BACKBONE|DICT|INTERRES
   111   56   58 2    
   112   57  112 1    
   113   57  113 1    
   114   59   60 1    
   115   59  114 1    
   116   59  115 1    
   117   60   61 1    
   118   61  116 1    
   119   61  117 1    
@<TRIPOS>SUBSTRUCTURE
     1 UNK         1 GROUP             0       ****    0 ROOT    
