@<TRIPOS>MOLECULE
3R8
117   119    1
SMALL
USER_CHARGES


@<TRIPOS>ATOM
      1 CA         13.3486  -24.9886  -41.5859 C.3       0 UNK        -0.2013 
      2 C          14.1612  -25.8650  -42.5266 C.2       0 UNK         0.4866 
      3 O          14.2685  -27.0696  -42.2992 O.2       0 UNK        -0.5176 
      4 N          14.7536  -25.2669  -43.5695 N.am      1 UNK        -0.4884 
      5 CA         15.5590  -25.8866  -44.6371 C.3       1 UNK         0.0853 
      6 C6         14.7918  -26.9907  -45.4171 C.3       10 UNK        -0.0849 
      7 S7         15.3592  -27.1480  -47.1463 S.3       10 UNK        -0.2776 
      8 C8         15.7164  -28.9301  -47.2888 C.3       10 UNK         0.0316 
      9 C9         16.9403  -29.3610  -46.4891 C.ar      10 UNK        -0.0863 
     10 C10        16.7890  -30.1359  -45.3352 C.ar      10 UNK        -0.1009 
     11 C11        17.9083  -30.5763  -44.6232 C.ar      10 UNK        -0.0712 
     12 C12        19.1889  -30.2283  -45.0689 C.ar      10 UNK        -0.0894 
     13 C13        19.3562  -29.4588  -46.2237 C.ar      10 UNK        -0.0745 
     14 C14        18.2264  -29.0270  -46.9279 C.ar      10 UNK        -0.0972 
     15 C15        20.7518  -29.1431  -46.7487 C.3       10 UNK         0.0209 
     16 S16        21.3660  -27.5175  -46.1971 S.3       10 UNK        -0.2568 
     17 C17        22.3422  -27.9269  -44.7078 C.3       10 UNK        -0.0983 
     18 CA         21.8699  -27.1318  -43.4645 C.3       3 UNK         0.0876 
     19 N          20.5452  -27.5657  -43.0478 N.am      3 UNK        -0.4424 
     20 C          19.5719  -26.7832  -42.5830 C.2       2 UNK         0.4918 
     21 O          19.6941  -25.5771  -42.3560 O.2       2 UNK        -0.4875 
     22 CA         18.2350  -27.4950  -42.3158 C.3       2 UNK         0.0481 
     23 CB         17.9847  -27.6205  -40.8049 C.3       2 UNK        -0.1831 
     24 N          17.0664  -26.8763  -42.9517 N.am      2 UNK        -0.4498 
     25 C          16.9603  -26.3627  -44.1882 C.2       1 UNK         0.5027 
     26 O          17.8995  -26.2340  -44.9730 O.2       1 UNK        -0.4969 
     27 C          22.8100  -27.3192  -42.2647 C.2       3 UNK         0.5005 
     28 O          23.4594  -28.3595  -42.1522 O.2       3 UNK        -0.5279 
     29 N          22.8424  -26.3310  -41.3579 N.am      4 UNK        -0.4463 
     30 CA         23.5950  -26.3534  -40.0935 C.3       4 UNK         0.0283 
     31 CB         23.4226  -25.0090  -39.3702 C.3       4 UNK        -0.1875 
     32 C          25.0897  -26.6975  -40.2391 C.2       4 UNK         0.4949 
     33 O          25.6275  -27.4241  -39.4038 O.2       4 UNK        -0.5039 
     34 N          25.7107  -26.2283  -41.3302 N.am      5 UNK        -0.4663 
     35 CA         27.0960  -26.5272  -41.7093 C.3       5 UNK         0.0242 
     36 CB         27.5059  -25.5989  -42.8642 C.3       5 UNK        -0.1982 
     37 C          27.3469  -28.0004  -42.0918 C.2       5 UNK         0.5017 
     38 O          28.4987  -28.4339  -42.0597 O.2       5 UNK        -0.5012 
     39 N          26.2834  -28.7413  -42.4318 N.am      6 UNK        -0.4439 
     40 CA         26.3005  -30.1678  -42.7604 C.3       6 UNK         0.0297 
     41 CB         25.5350  -30.3793  -44.0803 C.3       6 UNK        -0.2006 
     42 C          25.7061  -31.0117  -41.6151 C.2       6 UNK         0.4892 
     43 O          25.2275  -32.1174  -41.8705 O.2       6 UNK        -0.5089 
     44 N          25.7425  -30.4798  -40.3813 N.am      7 UNK        -0.4243 
     45 CA         25.1873  -31.0512  -39.1479 C.3       7 UNK         0.0196 
     46 CB         25.9079  -32.3607  -38.7603 C.3       7 UNK        -0.2007 
     47 C          23.6564  -31.1971  -39.2187 C.2       7 UNK         0.5020 
     48 O          23.1161  -32.2650  -38.9194 O.2       7 UNK        -0.5147 
     49 N          22.9938  -30.1114  -39.6424 N.am      8 UNK        -0.4734 
     50 CA         21.5517  -29.9345  -39.8557 C.3       8 UNK         0.0238 
     51 CB         20.7398  -30.1461  -38.5617 C.3       8 UNK        -0.1912 
     52 C          21.0172  -30.7762  -41.0222 C.2       8 UNK         0.5038 
     53 O          20.5782  -30.2075  -42.0199 O.2       8 UNK        -0.5046 
     54 N          21.0785  -32.1005  -40.8776 N.am      9 UNK        -0.4200 
     55 CA         20.7046  -33.0930  -41.8896 C.3       9 UNK         0.0839 
     56 C          21.5578  -34.3923  -41.8092 C.2       9 UNK         0.5513 
     57 N          22.5752  -34.4804  -40.9578 N.am      9 UNK        -0.7519 
     58 O          21.3016  -35.3428  -42.5435 O.2       9 UNK        -0.4960 
     59 C59        19.1661  -33.3582  -41.9096 C.3       10 UNK        -0.0876 
     60 S60        18.4390  -33.0850  -43.5614 S.3       10 UNK        -0.2414 
     61 C61        17.7342  -31.4160  -43.3655 C.3       10 UNK         0.0169 
     62 H62        13.7619  -25.0356  -40.5787 H         1 UNK         0.0903 
     63 H63        13.3417  -23.9455  -41.9017 H         1 UNK         0.0903 
     64 H64        12.3170  -25.3376  -41.5472 H         1 UNK         0.0903 
     65 H65        14.6487  -24.2651  -43.6630 H         1 UNK         0.3096 
     66 H66        15.7420  -25.0646  -45.3321 H         1 UNK         0.1121 
     67 H67        13.7298  -26.7443  -45.4609 H         1 UNK         0.0849 
     68 H68        14.8479  -27.9503  -44.9002 H         1 UNK         0.0849 
     69 H69        14.8345  -29.4983  -46.9885 H         1 UNK         0.0865 
     70 H70        15.8808  -29.1685  -48.3407 H         1 UNK         0.0865 
     71 H71        15.7983  -30.4047  -44.9951 H         1 UNK         0.1346 
     72 H72        20.0558  -30.5768  -44.5248 H         1 UNK         0.1412 
     73 H73        18.3476  -28.4349  -47.8248 H         1 UNK         0.1426 
     74 H74        20.7303  -29.1448  -47.8395 H         1 UNK         0.0716 
     75 H75        21.4551  -29.9289  -46.4693 H         1 UNK         0.0716 
     76 H76        23.3867  -27.7014  -44.9313 H         1 UNK         0.0695 
     77 H77        22.2972  -29.0006  -44.5156 H         1 UNK         0.0695 
     78 H78        21.8546  -26.0707  -43.7237 H         1 UNK         0.0983 
     79 H79        20.3970  -28.5707  -43.0579 H         1 UNK         0.3095 
     80 H80        18.2993  -28.5027  -42.7252 H         1 UNK         0.0454 
     81 H81        17.1010  -28.2238  -40.5963 H         1 UNK         0.0851 
     82 H82        17.8440  -26.6441  -40.3397 H         1 UNK         0.0851 
     83 H83        18.8280  -28.1010  -40.3080 H         1 UNK         0.0851 
     84 H84        16.1937  -26.9455  -42.4378 H         1 UNK         0.2976 
     85 H85        22.2471  -25.5277  -41.5119 H         1 UNK         0.3116 
     86 H86        23.1467  -27.1273  -39.4680 H         1 UNK         0.0646 
     87 H87        23.9551  -25.0066  -38.4179 H         1 UNK         0.0847 
     88 H88        23.8099  -24.1782  -39.9614 H         1 UNK         0.0847 
     89 H89        22.3741  -24.8061  -39.1512 H         1 UNK         0.0847 
     90 H90        25.1816  -25.6471  -41.9644 H         1 UNK         0.3040 
     91 H91        27.7327  -26.3080  -40.8491 H         1 UNK         0.1015 
     92 H92        26.8916  -25.7619  -43.7508 H         1 UNK         0.0786 
     93 H93        28.5445  -25.7681  -43.1524 H         1 UNK         0.0786 
     94 H94        27.4184  -24.5496  -42.5814 H         1 UNK         0.0786 
     95 H95        25.3545  -28.3297  -42.3738 H         1 UNK         0.3172 
     96 H96        27.3264  -30.5102  -42.9081 H         1 UNK         0.0595 
     97 H97        24.4750  -30.1480  -43.9705 H         1 UNK         0.0839 
     98 H98        25.6084  -31.4146  -44.4155 H         1 UNK         0.0839 
     99 H99        25.9350  -29.7533  -44.8779 H         1 UNK         0.0839 
    100 H100       26.1334  -29.5508  -40.2871 H         1 UNK         0.2998 
    101 H101       25.3859  -30.3239  -38.3590 H         1 UNK         0.0822 
    102 H102       26.9866  -32.2170  -38.6997 H         1 UNK         0.0787 
    103 H103       25.5727  -32.7137  -37.7843 H         1 UNK         0.0787 
    104 H104       25.7153  -33.1609  -39.4755 H         1 UNK         0.0787 
    105 H105       23.5595  -29.3418  -39.9764 H         1 UNK         0.3055 
    106 H106       21.4176  -28.8919  -40.1458 H         1 UNK         0.1106 
    107 H107       19.6791  -29.9588  -38.7336 H         1 UNK         0.0828 
    108 H108       20.8272  -31.1611  -38.1741 H         1 UNK         0.0828 
    109 H109       21.0652  -29.4625  -37.7777 H         1 UNK         0.0828 
    110 H110       21.5231  -32.4578  -40.0386 H         1 UNK         0.2931 
    111 H111       21.0011  -32.6629  -42.8486 H         1 UNK         0.0412 
    112 H112       23.1128  -35.3324  -40.9365 H         1 UNK         0.3472 
    113 H113       22.8487  -33.7077  -40.3637 H         1 UNK         0.3472 
    114 H114       18.6461  -32.7316  -41.1835 H         1 UNK         0.0970 
    115 H115       18.9291  -34.3792  -41.6042 H         1 UNK         0.0970 
    116 H116       18.2016  -30.8966  -42.5312 H         1 UNK         0.0612 
    117 H117       16.6798  -31.5140  -43.1034 H         1 UNK         0.0612 
@<TRIPOS>BOND
     1    1    2 1    
     2    1   62 1    
     3    1   63 1    
     4    1   64 1    
     5    2    3 2    
     6    2    4 am   BACKBONE|DICT|INTERRES
     7    4    5 1    
     8    4   65 1    
     9    5    6 1    
    10    5   25 1    
    11    5   66 1    
    12    6    7 1    
    13    6   67 1    
    14    6   68 1    
    15    7    8 1    
    16    8    9 1    
    17    8   69 1    
    18    8   70 1    
    19    9   10 ar   
    20    9   14 ar   
    21   10   11 ar   
    22   10   71 1    
    23   11   12 ar   
    24   11   61 1    
    25   12   13 ar   
    26   12   72 1    
    27   13   14 ar   
    28   13   15 1    
    29   14   73 1    
    30   15   16 1    
    31   15   74 1    
    32   15   75 1    
    33   16   17 1    
    34   17   18 1    
    35   17   76 1    
    36   17   77 1    
    37   18   19 1    
    38   18   27 1    
    39   18   78 1    
    40   19   20 am   BACKBONE|DICT|INTERRES
    41   19   79 1    
    42   20   21 2    
    43   20   22 1    
    44   22   23 1    
    45   22   24 1    
    46   22   80 1    
    47   23   81 1    
    48   23   82 1    
    49   23   83 1    
    50   24   25 am   BACKBONE|DICT|INTERRES
    51   24   84 1    
    52   25   26 2    
    53   27   28 2    
    54   27   29 am   BACKBONE|DICT|INTERRES
    55   29   30 1    
    56   29   85 1    
    57   30   31 1    
    58   30   32 1    
    59   30   86 1    
    60   31   87 1    
    61   31   88 1    
    62   31   89 1    
    63   32   33 2    
    64   32   34 am   BACKBONE|DICT|INTERRES
    65   34   35 1    
    66   34   90 1    
    67   35   36 1    
    68   35   37 1    
    69   35   91 1    
    70   36   92 1    
    71   36   93 1    
    72   36   94 1    
    73   37   38 2    
    74   37   39 am   BACKBONE|DICT|INTERRES
    75   39   40 1    
    76   39   95 1    
    77   40   41 1    
    78   40   42 1    
    79   40   96 1    
    80   41   97 1    
    81   41   98 1    
    82   41   99 1    
    83   42   43 2    
    84   42   44 am   BACKBONE|DICT|INTERRES
    85   44   45 1    
    86   44  100 1    
    87   45   46 1    
    88   45   47 1    
    89   45  101 1    
    90   46  102 1    
    91   46  103 1    
    92   46  104 1    
    93   47   48 2    
    94   47   49 am   BACKBONE|DICT|INTERRES
    95   49   50 1    
    96   49  105 1    
    97   50   51 1    
    98   50   52 1    
    99   50  106 1    
   100   51  107 1    
   101   51  108 1    
   102   51  109 1    
   103   52   53 2    
   104   52   54 am   BACKBONE|DICT|INTERRES
   105   54   55 1    
   106   54  110 1    
   107   55   56 1    
   108   55   59 1    
   109   55  111 1    
   110   56   57 am   BACKBONE|DICT|INTERRES
   111   56   58 2    
   112   57  112 1    
   113   57  113 1    
   114   59   60 1    
   115   59  114 1    
   116   59  115 1    
   117   60   61 1    
   118   61  116 1    
   119   61  117 1    
@<TRIPOS>SUBSTRUCTURE
     1 UNK         1 GROUP             0       ****    0 ROOT    
