@<TRIPOS>MOLECULE
3R8
117   119    1
SMALL
USER_CHARGES


@<TRIPOS>ATOM
      1 CA         17.4315  -22.3518  -41.2031 C.3       0 UNK        -0.2013 
      2 C          16.6955  -23.2671  -42.1701 C.2       0 UNK         0.4866 
      3 O          15.4953  -23.4905  -42.0107 O.2       0 UNK        -0.5176 
      4 N          17.4043  -23.7962  -43.1714 N.am      1 UNK        -0.4884 
      5 CA         16.8847  -24.6730  -44.2184 C.3       1 UNK         0.0853 
      6 C6         16.6691  -26.1246  -43.7153 C.3       10 UNK        -0.0849 
      7 S7         15.4348  -27.0313  -44.7060 S.3       10 UNK        -0.2776 
      8 C8         15.4071  -28.6408  -43.8491 C.3       10 UNK         0.0316 
      9 C9         16.7661  -29.3228  -43.9003 C.ar      10 UNK        -0.0863 
     10 C10        17.5532  -29.4236  -42.7492 C.ar      10 UNK        -0.1009 
     11 C11        18.8274  -29.9945  -42.8099 C.ar      10 UNK        -0.0712 
     12 C12        19.3118  -30.4631  -44.0358 C.ar      10 UNK        -0.0894 
     13 C13        18.5301  -30.3802  -45.1923 C.ar      10 UNK        -0.0745 
     14 C14        17.2500  -29.8234  -45.1111 C.ar      10 UNK        -0.0972 
     15 C15        19.0589  -30.9093  -46.5216 C.3       10 UNK         0.0209 
     16 S16        18.8952  -29.6986  -47.8776 S.3       10 UNK        -0.2568 
     17 C17        20.5417  -28.9040  -47.9438 C.3       10 UNK        -0.0983 
     18 CA         20.7092  -27.6103  -47.0934 C.3       3 UNK         0.0876 
     19 N          19.5434  -26.7265  -47.1633 N.am      3 UNK        -0.4424 
     20 C          19.4214  -25.6655  -47.9660 C.2       2 UNK         0.4918 
     21 O          20.2938  -25.2947  -48.7521 O.2       2 UNK        -0.4875 
     22 CA         18.1036  -24.8708  -47.8814 C.3       2 UNK         0.0481 
     23 CB         17.1597  -25.2958  -49.0177 C.3       2 UNK        -0.1831 
     24 N          17.3865  -24.9708  -46.6025 N.am      2 UNK        -0.4498 
     25 C          17.8624  -24.6002  -45.4057 C.2       1 UNK         0.5027 
     26 O          19.0240  -24.2255  -45.2151 O.2       1 UNK        -0.4969 
     27 C          21.1304  -27.8563  -45.6307 C.2       3 UNK         0.5005 
     28 O          21.7149  -28.9001  -45.3349 O.2       3 UNK        -0.5279 
     29 N          20.8406  -26.8920  -44.7396 N.am      4 UNK        -0.4463 
     30 CA         21.1485  -26.9488  -43.3074 C.3       4 UNK         0.0283 
     31 CB         20.6107  -25.6895  -42.6099 C.3       4 UNK        -0.1875 
     32 C          22.6486  -27.1241  -43.0116 C.2       4 UNK         0.4949 
     33 O          23.4780  -26.4597  -43.6368 O.2       4 UNK        -0.5039 
     34 N          22.9567  -27.9877  -42.0393 N.am      5 UNK        -0.4663 
     35 CA         24.3001  -28.2709  -41.5485 C.3       5 UNK         0.0242 
     36 CB         24.9556  -29.3734  -42.3996 C.3       5 UNK        -0.1982 
     37 C          24.1802  -28.7046  -40.0857 C.2       5 UNK         0.5017 
     38 O          23.2753  -29.4779  -39.7587 O.2       5 UNK        -0.5012 
     39 N          25.0963  -28.2132  -39.2410 N.am      6 UNK        -0.4439 
     40 CA         25.1215  -28.4639  -37.7954 C.3       6 UNK         0.0297 
     41 CB         26.1110  -27.4945  -37.1288 C.3       6 UNK        -0.2006 
     42 C          25.4598  -29.9161  -37.4170 C.2       6 UNK         0.4892 
     43 O          25.0637  -30.3646  -36.3403 O.2       6 UNK        -0.5089 
     44 N          26.1607  -30.6349  -38.3047 N.am      7 UNK        -0.4243 
     45 CA         26.5441  -32.0415  -38.1574 C.3       7 UNK         0.0196 
     46 CB         27.7573  -32.3200  -39.0650 C.3       7 UNK        -0.2007 
     47 C          25.3650  -32.9969  -38.4340 C.2       7 UNK         0.5020 
     48 O          25.4679  -33.8667  -39.3003 O.2       7 UNK        -0.5147 
     49 N          24.2540  -32.7960  -37.7101 N.am      8 UNK        -0.4734 
     50 CA         23.0004  -33.5642  -37.7473 C.3       8 UNK         0.0238 
     51 CB         23.2043  -34.9342  -37.0659 C.3       8 UNK        -0.1912 
     52 C          22.3882  -33.6898  -39.1586 C.2       8 UNK         0.5038 
     53 O          21.8707  -34.7527  -39.5077 O.2       8 UNK        -0.5046 
     54 N          22.4849  -32.6100  -39.9474 N.am      9 UNK        -0.4200 
     55 CA         22.0852  -32.5336  -41.3629 C.3       9 UNK         0.0839 
     56 C          22.9542  -33.3881  -42.3363 C.2       9 UNK         0.5513 
     57 N          24.1050  -33.9115  -41.9294 N.am      9 UNK        -0.7519 
     58 O          22.5976  -33.5521  -43.5001 O.2       9 UNK        -0.4960 
     59 C59        20.5564  -32.7406  -41.5912 C.3       10 UNK        -0.0876 
     60 S60        19.5125  -31.5940  -40.6267 S.3       10 UNK        -0.2414 
     61 C61        19.6984  -30.0447  -41.5621 C.3       10 UNK         0.0169 
     62 H62        17.3612  -22.7438  -40.1888 H         1 UNK         0.0903 
     63 H63        18.4872  -22.2554  -41.4563 H         1 UNK         0.0903 
     64 H64        16.9871  -21.3570  -41.2158 H         1 UNK         0.0903 
     65 H65        18.3771  -23.5463  -43.3096 H         1 UNK         0.3096 
     66 H66        15.9309  -24.2542  -44.5488 H         1 UNK         0.1121 
     67 H67        16.3061  -26.1200  -42.6863 H         1 UNK         0.0849 
     68 H68        17.6096  -26.6779  -43.6962 H         1 UNK         0.0849 
     69 H69        15.0803  -28.4962  -42.8181 H         1 UNK         0.0865 
     70 H70        14.6614  -29.2833  -44.3195 H         1 UNK         0.0865 
     71 H71        17.1845  -29.0370  -41.8088 H         1 UNK         0.1346 
     72 H72        20.3096  -30.8754  -44.0959 H         1 UNK         0.1412 
     73 H73        16.6386  -29.7499  -46.0005 H         1 UNK         0.1426 
     74 H74        18.4886  -31.8009  -46.7846 H         1 UNK         0.0716 
     75 H75        20.0991  -31.2266  -46.4336 H         1 UNK         0.0716 
     76 H76        20.6978  -28.6372  -48.9900 H         1 UNK         0.0695 
     77 H77        21.3192  -29.6396  -47.7315 H         1 UNK         0.0695 
     78 H78        21.5700  -27.0801  -47.5071 H         1 UNK         0.0983 
     79 H79        18.7654  -26.9794  -46.5710 H         1 UNK         0.3095 
     80 H80        18.3556  -23.8185  -48.0266 H         1 UNK         0.0454 
     81 H81        16.8431  -26.3343  -48.9113 H         1 UNK         0.0851 
     82 H82        17.6490  -25.2033  -49.9885 H         1 UNK         0.0851 
     83 H83        16.2662  -24.6721  -49.0490 H         1 UNK         0.0851 
     84 H84        16.4348  -25.3086  -46.6506 H         1 UNK         0.2976 
     85 H85        20.4116  -26.0385  -45.0753 H         1 UNK         0.3116 
     86 H86        20.6136  -27.8071  -42.9058 H         1 UNK         0.0646 
     87 H87        19.5262  -25.6314  -42.6788 H         1 UNK         0.0847 
     88 H88        21.0277  -24.7796  -43.0433 H         1 UNK         0.0847 
     89 H89        20.8619  -25.6900  -41.5483 H         1 UNK         0.0847 
     90 H90        22.2230  -28.4587  -41.5263 H         1 UNK         0.3040 
     91 H91        24.9035  -27.3617  -41.6045 H         1 UNK         0.1015 
     92 H92        25.9628  -29.5961  -42.0453 H         1 UNK         0.0786 
     93 H93        25.0390  -29.0705  -43.4436 H         1 UNK         0.0786 
     94 H94        24.3847  -30.3021  -42.3682 H         1 UNK         0.0786 
     95 H95        25.8071  -27.5917  -39.6013 H         1 UNK         0.3172 
     96 H96        24.1241  -28.2525  -37.4037 H         1 UNK         0.0595 
     97 H97        27.1290  -27.6401  -37.4926 H         1 UNK         0.0839 
     98 H98        26.1291  -27.6382  -36.0473 H         1 UNK         0.0839 
     99 H99        25.8337  -26.4556  -37.3090 H         1 UNK         0.0839 
    100 H100       26.4183  -30.1879  -39.1720 H         1 UNK         0.2998 
    101 H101       26.8566  -32.2120  -37.1248 H         1 UNK         0.0822 
    102 H102       28.5961  -31.6690  -38.8178 H         1 UNK         0.0787 
    103 H103       28.1040  -33.3480  -38.9500 H         1 UNK         0.0787 
    104 H104       27.5161  -32.1729  -40.1187 H         1 UNK         0.0787 
    105 H105       24.2817  -32.0214  -37.0515 H         1 UNK         0.3055 
    106 H106       22.2740  -33.0042  -37.1559 H         1 UNK         0.1106 
    107 H107       23.8901  -35.5663  -37.6313 H         1 UNK         0.0828 
    108 H108       22.2608  -35.4743  -36.9773 H         1 UNK         0.0828 
    109 H109       23.6053  -34.8213  -36.0588 H         1 UNK         0.0828 
    110 H110       22.9222  -31.7754  -39.5783 H         1 UNK         0.2931 
    111 H111       22.3180  -31.5098  -41.6521 H         1 UNK         0.0412 
    112 H112       24.4275  -33.8082  -40.9724 H         1 UNK         0.3472 
    113 H113       24.6535  -34.4488  -42.5816 H         1 UNK         0.3472 
    114 H114       20.2696  -33.7592  -41.3275 H         1 UNK         0.0970 
    115 H115       20.2993  -32.6396  -42.6447 H         1 UNK         0.0970 
    116 H116       19.4431  -29.2137  -40.9028 H         1 UNK         0.0612 
    117 H117       20.7444  -29.9022  -41.8290 H         1 UNK         0.0612 
@<TRIPOS>BOND
     1    1    2 1    
     2    1   62 1    
     3    1   63 1    
     4    1   64 1    
     5    2    3 2    
     6    2    4 am   BACKBONE|DICT|INTERRES
     7    4    5 1    
     8    4   65 1    
     9    5    6 1    
    10    5   25 1    
    11    5   66 1    
    12    6    7 1    
    13    6   67 1    
    14    6   68 1    
    15    7    8 1    
    16    8    9 1    
    17    8   69 1    
    18    8   70 1    
    19    9   10 ar   
    20    9   14 ar   
    21   10   11 ar   
    22   10   71 1    
    23   11   12 ar   
    24   11   61 1    
    25   12   13 ar   
    26   12   72 1    
    27   13   14 ar   
    28   13   15 1    
    29   14   73 1    
    30   15   16 1    
    31   15   74 1    
    32   15   75 1    
    33   16   17 1    
    34   17   18 1    
    35   17   76 1    
    36   17   77 1    
    37   18   19 1    
    38   18   27 1    
    39   18   78 1    
    40   19   20 am   BACKBONE|DICT|INTERRES
    41   19   79 1    
    42   20   21 2    
    43   20   22 1    
    44   22   23 1    
    45   22   24 1    
    46   22   80 1    
    47   23   81 1    
    48   23   82 1    
    49   23   83 1    
    50   24   25 am   BACKBONE|DICT|INTERRES
    51   24   84 1    
    52   25   26 2    
    53   27   28 2    
    54   27   29 am   BACKBONE|DICT|INTERRES
    55   29   30 1    
    56   29   85 1    
    57   30   31 1    
    58   30   32 1    
    59   30   86 1    
    60   31   87 1    
    61   31   88 1    
    62   31   89 1    
    63   32   33 2    
    64   32   34 am   BACKBONE|DICT|INTERRES
    65   34   35 1    
    66   34   90 1    
    67   35   36 1    
    68   35   37 1    
    69   35   91 1    
    70   36   92 1    
    71   36   93 1    
    72   36   94 1    
    73   37   38 2    
    74   37   39 am   BACKBONE|DICT|INTERRES
    75   39   40 1    
    76   39   95 1    
    77   40   41 1    
    78   40   42 1    
    79   40   96 1    
    80   41   97 1    
    81   41   98 1    
    82   41   99 1    
    83   42   43 2    
    84   42   44 am   BACKBONE|DICT|INTERRES
    85   44   45 1    
    86   44  100 1    
    87   45   46 1    
    88   45   47 1    
    89   45  101 1    
    90   46  102 1    
    91   46  103 1    
    92   46  104 1    
    93   47   48 2    
    94   47   49 am   BACKBONE|DICT|INTERRES
    95   49   50 1    
    96   49  105 1    
    97   50   51 1    
    98   50   52 1    
    99   50  106 1    
   100   51  107 1    
   101   51  108 1    
   102   51  109 1    
   103   52   53 2    
   104   52   54 am   BACKBONE|DICT|INTERRES
   105   54   55 1    
   106   54  110 1    
   107   55   56 1    
   108   55   59 1    
   109   55  111 1    
   110   56   57 am   BACKBONE|DICT|INTERRES
   111   56   58 2    
   112   57  112 1    
   113   57  113 1    
   114   59   60 1    
   115   59  114 1    
   116   59  115 1    
   117   60   61 1    
   118   61  116 1    
   119   61  117 1    
@<TRIPOS>SUBSTRUCTURE
     1 UNK         1 GROUP             0       ****    0 ROOT    
