@<TRIPOS>MOLECULE
3R8
117   119    1
SMALL
USER_CHARGES


@<TRIPOS>ATOM
      1 CA         16.3772  -26.4781  -48.7904 C.3       0 UNK        -0.2013 
      2 C          17.2109  -26.7608  -47.5502 C.2       0 UNK         0.4866 
      3 O          18.4354  -26.8333  -47.6388 O.2       0 UNK        -0.5176 
      4 N          16.5603  -26.8964  -46.3871 N.am      1 UNK        -0.4884 
      5 CA         17.1738  -27.2421  -45.0931 C.3       1 UNK         0.0853 
      6 C6         16.1559  -27.9325  -44.1494 C.3       10 UNK        -0.0849 
      7 S7         15.7146  -29.5814  -44.8055 S.3       10 UNK        -0.2776 
      8 C8         16.3412  -30.7400  -43.5364 C.3       10 UNK         0.0316 
      9 C9         17.7418  -30.4207  -43.0185 C.ar      10 UNK        -0.0863 
     10 C10        17.9567  -30.3231  -41.6409 C.ar      10 UNK        -0.1009 
     11 C11        19.2310  -30.0541  -41.1364 C.ar      10 UNK        -0.0712 
     12 C12        20.2895  -29.8358  -42.0210 C.ar      10 UNK        -0.0894 
     13 C13        20.0916  -29.9174  -43.4017 C.ar      10 UNK        -0.0745 
     14 C14        18.8201  -30.2412  -43.8928 C.ar      10 UNK        -0.0972 
     15 C15        21.2603  -29.6743  -44.3498 C.3       10 UNK         0.0209 
     16 S16        20.8781  -28.3713  -45.5643 S.3       10 UNK        -0.2568 
     17 C17        22.3558  -27.2946  -45.5286 C.3       10 UNK        -0.0983 
     18 CA         22.1674  -25.9712  -44.7378 C.3       3 UNK         0.0876 
     19 N          20.8820  -25.3283  -45.0318 N.am      3 UNK        -0.4424 
     20 C          20.4504  -24.1473  -44.5643 C.2       2 UNK         0.4918 
     21 O          21.1668  -23.3457  -43.9648 O.2       2 UNK        -0.4875 
     22 CA         18.9571  -23.8111  -44.7682 C.3       2 UNK         0.0481 
     23 CB         18.7944  -22.7105  -45.8285 C.3       2 UNK        -0.1831 
     24 N          18.1246  -24.9610  -45.1433 N.am      2 UNK        -0.4498 
     25 C          17.9244  -26.0712  -44.4159 C.2       1 UNK         0.5027 
     26 O          18.3677  -26.2114  -43.2750 O.2       1 UNK        -0.4969 
     27 C          22.4181  -26.1578  -43.2244 C.2       3 UNK         0.5005 
     28 O          23.5613  -25.9900  -42.7987 O.2       3 UNK        -0.5279 
     29 N          21.3492  -26.4379  -42.4564 N.am      4 UNK        -0.4463 
     30 CA         21.2192  -26.3986  -40.9926 C.3       4 UNK         0.0283 
     31 CB         20.7582  -24.9884  -40.5703 C.3       4 UNK        -0.1875 
     32 C          22.4506  -26.8861  -40.2022 C.2       4 UNK         0.4949 
     33 O          22.5820  -28.0847  -39.9567 O.2       4 UNK        -0.5039 
     34 N          23.3390  -25.9488  -39.8381 N.am      5 UNK        -0.4663 
     35 CA         24.5864  -26.1653  -39.0960 C.3       5 UNK         0.0242 
     36 CB         25.2390  -24.8019  -38.8150 C.3       5 UNK        -0.1982 
     37 C          25.5954  -27.1159  -39.7705 C.2       5 UNK         0.5017 
     38 O          26.4742  -27.6328  -39.0797 O.2       5 UNK        -0.5012 
     39 N          25.4455  -27.3608  -41.0812 N.am      6 UNK        -0.4439 
     40 CA         26.1768  -28.3883  -41.8310 C.3       6 UNK         0.0297 
     41 CB         25.9266  -28.1891  -43.3340 C.3       6 UNK        -0.2006 
     42 C          25.8193  -29.8335  -41.4209 C.2       6 UNK         0.4892 
     43 O          26.5692  -30.7467  -41.7697 O.2       6 UNK        -0.5089 
     44 N          24.7038  -30.0121  -40.6951 N.am      7 UNK        -0.4243 
     45 CA         24.1440  -31.2749  -40.2087 C.3       7 UNK         0.0196 
     46 CB         25.1182  -31.9883  -39.2424 C.3       7 UNK        -0.2007 
     47 C          23.6223  -32.1608  -41.3562 C.2       7 UNK         0.5020 
     48 O          23.2109  -31.6309  -42.3895 O.2       7 UNK        -0.5147 
     49 N          23.5966  -33.4847  -41.1312 N.am      8 UNK        -0.4734 
     50 CA         22.9686  -34.5134  -41.9770 C.3       8 UNK         0.0238 
     51 CB         23.6809  -34.6290  -43.3425 C.3       8 UNK        -0.1912 
     52 C          21.4453  -34.2997  -42.1007 C.2       8 UNK         0.5038 
     53 O          20.8864  -34.4064  -43.1939 O.2       8 UNK        -0.5046 
     54 N          20.8180  -33.9757  -40.9620 N.am      9 UNK        -0.4200 
     55 CA         19.4111  -33.5639  -40.8408 C.3       9 UNK         0.0839 
     56 C          18.3592  -34.6809  -41.1001 C.2       9 UNK         0.5513 
     57 N          18.7375  -35.9517  -41.1670 N.am      9 UNK        -0.7519 
     58 O          17.1751  -34.3867  -41.2406 O.2       9 UNK        -0.4960 
     59 C59        19.1353  -32.8551  -39.4835 C.3       10 UNK        -0.0876 
     60 S60        20.3358  -31.5352  -39.0768 S.3       10 UNK        -0.2414 
     61 C61        19.4708  -30.0332  -39.6353 C.3       10 UNK         0.0169 
     62 H62        16.5261  -27.2662  -49.5281 H         1 UNK         0.0903 
     63 H63        15.3127  -26.4235  -48.5634 H         1 UNK         0.0903 
     64 H64        16.6781  -25.5314  -49.2381 H         1 UNK         0.0903 
     65 H65        15.5528  -26.8171  -46.3767 H         1 UNK         0.3096 
     66 H66        17.9606  -27.9689  -45.3000 H         1 UNK         0.1121 
     67 H67        16.5495  -28.0402  -43.1376 H         1 UNK         0.0849 
     68 H68        15.2504  -27.3316  -44.0515 H         1 UNK         0.0849 
     69 H69        15.6247  -30.7552  -42.7136 H         1 UNK         0.0865 
     70 H70        16.3435  -31.7486  -43.9517 H         1 UNK         0.0865 
     71 H71        17.1357  -30.4837  -40.9556 H         1 UNK         0.1346 
     72 H72        21.2756  -29.6266  -41.6296 H         1 UNK         0.1412 
     73 H73        18.6641  -30.3271  -44.9595 H         1 UNK         0.1426 
     74 H74        21.4952  -30.6006  -44.8756 H         1 UNK         0.0716 
     75 H75        22.1552  -29.4050  -43.7867 H         1 UNK         0.0716 
     76 H76        23.2256  -27.8538  -45.1817 H         1 UNK         0.0695 
     77 H77        22.5785  -27.0467  -46.5675 H         1 UNK         0.0695 
     78 H78        22.9387  -25.2773  -45.0794 H         1 UNK         0.0983 
     79 H79        20.2261  -25.9040  -45.5415 H         1 UNK         0.3095 
     80 H80        18.5807  -23.4299  -43.8170 H         1 UNK         0.0454 
     81 H81        19.3734  -21.8243  -45.5647 H         1 UNK         0.0851 
     82 H82        19.1359  -23.0419  -46.8100 H         1 UNK         0.0851 
     83 H83        17.7543  -22.3976  -45.9213 H         1 UNK         0.0851 
     84 H84        17.7451  -24.9556  -46.0794 H         1 UNK         0.2976 
     85 H85        20.4682  -26.5775  -42.9397 H         1 UNK         0.3116 
     86 H86        20.4102  -27.0872  -40.7454 H         1 UNK         0.0646 
     87 H87        20.6794  -24.9029  -39.4855 H         1 UNK         0.0847 
     88 H88        19.7728  -24.7651  -40.9803 H         1 UNK         0.0847 
     89 H89        21.4379  -24.2106  -40.9203 H         1 UNK         0.0847 
     90 H90        23.1600  -25.0011  -40.1365 H         1 UNK         0.3040 
     91 H91        24.3180  -26.6214  -38.1407 H         1 UNK         0.1015 
     92 H92        24.5758  -24.1532  -38.2424 H         1 UNK         0.0786 
     93 H93        25.5030  -24.2846  -39.7384 H         1 UNK         0.0786 
     94 H94        26.1549  -24.9181  -38.2334 H         1 UNK         0.0786 
     95 H95        24.7134  -26.8620  -41.5855 H         1 UNK         0.3172 
     96 H96        27.2424  -28.2466  -41.6398 H         1 UNK         0.0595 
     97 H97        26.5293  -28.8796  -43.9255 H         1 UNK         0.0839 
     98 H98        26.1818  -27.1784  -43.6532 H         1 UNK         0.0839 
     99 H99        24.8824  -28.3706  -43.5881 H         1 UNK         0.0839 
    100 H100       24.1266  -29.1979  -40.5046 H         1 UNK         0.2998 
    101 H101       23.2636  -30.9898  -39.6315 H         1 UNK         0.0822 
    102 H102       25.5160  -31.2924  -38.5033 H         1 UNK         0.0787 
    103 H103       24.6192  -32.7832  -38.6875 H         1 UNK         0.0787 
    104 H104       25.9649  -32.4309  -39.7686 H         1 UNK         0.0787 
    105 H105       23.9774  -33.8138  -40.2545 H         1 UNK         0.3055 
    106 H106       23.0988  -35.4659  -41.4605 H         1 UNK         0.1106 
    107 H107       23.5351  -33.7391  -43.9554 H         1 UNK         0.0828 
    108 H108       24.7533  -34.7794  -43.2194 H         1 UNK         0.0828 
    109 H109       23.2977  -35.4775  -43.9105 H         1 UNK         0.0828 
    110 H110       21.3645  -33.9025  -40.1176 H         1 UNK         0.2931 
    111 H111       19.2488  -32.8310  -41.6318 H         1 UNK         0.0412 
    112 H112       19.7072  -36.2022  -41.0593 H         1 UNK         0.3472 
    113 H113       18.0464  -36.6656  -41.3371 H         1 UNK         0.3472 
    114 H114       18.1280  -32.4351  -39.4691 H         1 UNK         0.0970 
    115 H115       19.1632  -33.5832  -38.6708 H         1 UNK         0.0970 
    116 H116       20.0735  -29.1628  -39.3740 H         1 UNK         0.0612 
    117 H117       18.5314  -29.9316  -39.0898 H         1 UNK         0.0612 
@<TRIPOS>BOND
     1    1    2 1    
     2    1   62 1    
     3    1   63 1    
     4    1   64 1    
     5    2    3 2    
     6    2    4 am   BACKBONE|DICT|INTERRES
     7    4    5 1    
     8    4   65 1    
     9    5    6 1    
    10    5   25 1    
    11    5   66 1    
    12    6    7 1    
    13    6   67 1    
    14    6   68 1    
    15    7    8 1    
    16    8    9 1    
    17    8   69 1    
    18    8   70 1    
    19    9   10 ar   
    20    9   14 ar   
    21   10   11 ar   
    22   10   71 1    
    23   11   12 ar   
    24   11   61 1    
    25   12   13 ar   
    26   12   72 1    
    27   13   14 ar   
    28   13   15 1    
    29   14   73 1    
    30   15   16 1    
    31   15   74 1    
    32   15   75 1    
    33   16   17 1    
    34   17   18 1    
    35   17   76 1    
    36   17   77 1    
    37   18   19 1    
    38   18   27 1    
    39   18   78 1    
    40   19   20 am   BACKBONE|DICT|INTERRES
    41   19   79 1    
    42   20   21 2    
    43   20   22 1    
    44   22   23 1    
    45   22   24 1    
    46   22   80 1    
    47   23   81 1    
    48   23   82 1    
    49   23   83 1    
    50   24   25 am   BACKBONE|DICT|INTERRES
    51   24   84 1    
    52   25   26 2    
    53   27   28 2    
    54   27   29 am   BACKBONE|DICT|INTERRES
    55   29   30 1    
    56   29   85 1    
    57   30   31 1    
    58   30   32 1    
    59   30   86 1    
    60   31   87 1    
    61   31   88 1    
    62   31   89 1    
    63   32   33 2    
    64   32   34 am   BACKBONE|DICT|INTERRES
    65   34   35 1    
    66   34   90 1    
    67   35   36 1    
    68   35   37 1    
    69   35   91 1    
    70   36   92 1    
    71   36   93 1    
    72   36   94 1    
    73   37   38 2    
    74   37   39 am   BACKBONE|DICT|INTERRES
    75   39   40 1    
    76   39   95 1    
    77   40   41 1    
    78   40   42 1    
    79   40   96 1    
    80   41   97 1    
    81   41   98 1    
    82   41   99 1    
    83   42   43 2    
    84   42   44 am   BACKBONE|DICT|INTERRES
    85   44   45 1    
    86   44  100 1    
    87   45   46 1    
    88   45   47 1    
    89   45  101 1    
    90   46  102 1    
    91   46  103 1    
    92   46  104 1    
    93   47   48 2    
    94   47   49 am   BACKBONE|DICT|INTERRES
    95   49   50 1    
    96   49  105 1    
    97   50   51 1    
    98   50   52 1    
    99   50  106 1    
   100   51  107 1    
   101   51  108 1    
   102   51  109 1    
   103   52   53 2    
   104   52   54 am   BACKBONE|DICT|INTERRES
   105   54   55 1    
   106   54  110 1    
   107   55   56 1    
   108   55   59 1    
   109   55  111 1    
   110   56   57 am   BACKBONE|DICT|INTERRES
   111   56   58 2    
   112   57  112 1    
   113   57  113 1    
   114   59   60 1    
   115   59  114 1    
   116   59  115 1    
   117   60   61 1    
   118   61  116 1    
   119   61  117 1    
@<TRIPOS>SUBSTRUCTURE
     1 UNK         1 GROUP             0       ****    0 ROOT    
