@<TRIPOS>MOLECULE
3R8
117   119    1
SMALL
USER_CHARGES


@<TRIPOS>ATOM
      1 CA         18.5701  -21.9367  -41.1668 C.3       0 UNK        -0.2013 
      2 C          17.5315  -22.4401  -42.1586 C.2       0 UNK         0.4866 
      3 O          16.6995  -21.6597  -42.6231 O.2       0 UNK        -0.5176 
      4 N          17.5715  -23.7396  -42.4759 N.am      1 UNK        -0.4884 
      5 CA         16.7164  -24.4017  -43.4670 C.3       1 UNK         0.0853 
      6 C6         16.3977  -25.8594  -43.0340 C.3       10 UNK        -0.0849 
      7 S7         17.8666  -26.9428  -42.9881 S.3       10 UNK        -0.2776 
      8 C8         17.1249  -28.5639  -43.3484 C.3       10 UNK         0.0316 
      9 C9         18.2263  -29.5699  -43.6227 C.ar      10 UNK        -0.0863 
     10 C10        18.8710  -30.2123  -42.5633 C.ar      10 UNK        -0.1009 
     11 C11        19.9510  -31.0646  -42.8049 C.ar      10 UNK        -0.0712 
     12 C12        20.3908  -31.2628  -44.1179 C.ar      10 UNK        -0.0894 
     13 C13        19.7468  -30.6317  -45.1877 C.ar      10 UNK        -0.0745 
     14 C14        18.6451  -29.8084  -44.9335 C.ar      10 UNK        -0.0972 
     15 C15        20.2836  -30.8034  -46.6067 C.3       10 UNK         0.0209 
     16 S16        20.4210  -29.2378  -47.5462 S.3       10 UNK        -0.2568 
     17 C17        21.3088  -28.1416  -46.3824 C.3       10 UNK        -0.0983 
     18 CA         20.9346  -26.6438  -46.5402 C.3       3 UNK         0.0876 
     19 N          19.4871  -26.3964  -46.5844 N.am      3 UNK        -0.4424 
     20 C          18.9237  -25.4263  -47.3178 C.2       2 UNK         0.4918 
     21 O          19.5501  -24.6728  -48.0640 O.2       2 UNK        -0.4875 
     22 CA         17.3996  -25.2538  -47.1862 C.3       2 UNK         0.0481 
     23 CB         16.6590  -26.3783  -47.9291 C.3       2 UNK        -0.1831 
     24 N          16.9355  -25.1902  -45.7966 N.am      2 UNK        -0.4498 
     25 C          17.3122  -24.2711  -44.8928 C.2       1 UNK         0.5027 
     26 O          18.0939  -23.3531  -45.1536 O.2       1 UNK        -0.4969 
     27 C          21.5854  -25.8250  -45.4098 C.2       3 UNK         0.5005 
     28 O          22.7080  -25.3477  -45.5806 O.2       3 UNK        -0.5279 
     29 N          20.8763  -25.7085  -44.2721 N.am      4 UNK        -0.4463 
     30 CA         21.3130  -25.1042  -43.0057 C.3       4 UNK         0.0283 
     31 CB         21.4853  -23.5780  -43.1536 C.3       4 UNK        -0.1875 
     32 C          22.5524  -25.8029  -42.4060 C.2       4 UNK         0.4949 
     33 O          23.4144  -25.1437  -41.8222 O.2       4 UNK        -0.5039 
     34 N          22.6236  -27.1303  -42.5772 N.am      5 UNK        -0.4663 
     35 CA         23.7109  -27.9803  -42.0941 C.3       5 UNK         0.0242 
     36 CB         23.6696  -29.3167  -42.8528 C.3       5 UNK        -0.1982 
     37 C          23.6102  -28.2163  -40.5793 C.2       5 UNK         0.5017 
     38 O          22.5025  -28.3134  -40.0444 O.2       5 UNK        -0.5012 
     39 N          24.7678  -28.3566  -39.9211 N.am      6 UNK        -0.4439 
     40 CA         24.9068  -28.5753  -38.4775 C.3       6 UNK         0.0297 
     41 CB         26.3085  -28.1111  -38.0378 C.3       6 UNK        -0.2006 
     42 C          24.6130  -30.0345  -38.0733 C.2       6 UNK         0.4892 
     43 O          25.4938  -30.7188  -37.5504 O.2       6 UNK        -0.5089 
     44 N          23.3790  -30.4824  -38.3464 N.am      7 UNK        -0.4243 
     45 CA         22.8129  -31.8060  -38.0460 C.3       7 UNK         0.0196 
     46 CB         22.7030  -32.0206  -36.5215 C.3       7 UNK        -0.2007 
     47 C          23.5180  -32.9822  -38.7542 C.2       7 UNK         0.5020 
     48 O          23.3884  -34.1250  -38.3126 O.2       7 UNK        -0.5147 
     49 N          24.2124  -32.7044  -39.8687 N.am      8 UNK        -0.4734 
     50 CA         24.9344  -33.6898  -40.6899 C.3       8 UNK         0.0238 
     51 CB         25.7443  -32.9463  -41.7646 C.3       8 UNK        -0.1912 
     52 C          24.0272  -34.7526  -41.3414 C.2       8 UNK         0.5038 
     53 O          24.5068  -35.8266  -41.7052 O.2       8 UNK        -0.5046 
     54 N          22.7369  -34.4265  -41.4585 N.am      9 UNK        -0.4200 
     55 CA         21.6381  -35.3065  -41.8661 C.3       9 UNK         0.0839 
     56 C          21.2462  -36.3884  -40.8154 C.2       9 UNK         0.5513 
     57 N          21.7280  -36.3330  -39.5781 N.am      9 UNK        -0.7519 
     58 O          20.4968  -37.3066  -41.1379 O.2       9 UNK        -0.4960 
     59 C59        20.4148  -34.4700  -42.3317 C.3       10 UNK        -0.0876 
     60 S60        19.8425  -33.2499  -41.0902 S.3       10 UNK        -0.2414 
     61 C61        20.6700  -31.7215  -41.6371 C.3       10 UNK         0.0169 
     62 H62        18.0793  -21.4800  -40.3077 H         1 UNK         0.0903 
     63 H63        19.2110  -22.7397  -40.8032 H         1 UNK         0.0903 
     64 H64        19.2032  -21.1851  -41.6377 H         1 UNK         0.0903 
     65 H65        18.2808  -24.3303  -42.0672 H         1 UNK         0.3096 
     66 H66        15.7630  -23.8694  -43.5038 H         1 UNK         0.1121 
     67 H67        15.6322  -26.2928  -43.6795 H         1 UNK         0.0849 
     68 H68        15.9546  -25.8541  -42.0366 H         1 UNK         0.0849 
     69 H69        16.4576  -28.4922  -44.2086 H         1 UNK         0.0865 
     70 H70        16.5142  -28.8865  -42.5036 H         1 UNK         0.0865 
     71 H71        18.5508  -30.0261  -41.5470 H         1 UNK         0.1346 
     72 H72        21.2490  -31.8931  -44.3056 H         1 UNK         0.1412 
     73 H73        18.1484  -29.3115  -45.7551 H         1 UNK         0.1426 
     74 H74        19.6286  -31.4845  -47.1511 H         1 UNK         0.0716 
     75 H75        21.2688  -31.2720  -46.5870 H         1 UNK         0.0716 
     76 H76        22.3792  -28.2784  -46.5473 H         1 UNK         0.0695 
     77 H77        21.1282  -28.4660  -45.3579 H         1 UNK         0.0695 
     78 H78        21.3787  -26.3043  -47.4790 H         1 UNK         0.0983 
     79 H79        18.8998  -26.9916  -46.0214 H         1 UNK         0.3095 
     80 H80        17.1332  -24.3072  -47.6609 H         1 UNK         0.0454 
     81 H81        16.8397  -27.3550  -47.4788 H         1 UNK         0.0851 
     82 H82        16.9828  -26.4363  -48.9693 H         1 UNK         0.0851 
     83 H83        15.5826  -26.2065  -47.9380 H         1 UNK         0.0851 
     84 H84        16.2878  -25.9082  -45.5078 H         1 UNK         0.2976 
     85 H85        19.9629  -26.1400  -44.2429 H         1 UNK         0.3116 
     86 H86        20.5043  -25.2732  -42.2937 H         1 UNK         0.0646 
     87 H87        20.5893  -23.1165  -43.5694 H         1 UNK         0.0847 
     88 H88        22.3237  -23.3267  -43.8037 H         1 UNK         0.0847 
     89 H89        21.6726  -23.1093  -42.1869 H         1 UNK         0.0847 
     90 H90        21.8466  -27.5981  -43.0190 H         1 UNK         0.3040 
     91 H91        24.6586  -27.4823  -42.3125 H         1 UNK         0.1015 
     92 H92        24.4808  -29.9733  -42.5367 H         1 UNK         0.0786 
     93 H93        23.7768  -29.1661  -43.9274 H         1 UNK         0.0786 
     94 H94        22.7323  -29.8457  -42.6828 H         1 UNK         0.0786 
     95 H95        25.6299  -28.3061  -40.4456 H         1 UNK         0.3172 
     96 H96        24.1779  -27.9480  -37.9596 H         1 UNK         0.0595 
     97 H97        27.0977  -28.6885  -38.5212 H         1 UNK         0.0839 
     98 H98        26.4369  -28.2233  -36.9602 H         1 UNK         0.0839 
     99 H99        26.4704  -27.0587  -38.2715 H         1 UNK         0.0839 
    100 H100       22.7594  -29.8292  -38.8198 H         1 UNK         0.2998 
    101 H101       21.7974  -31.7923  -38.4450 H         1 UNK         0.0822 
    102 H102       22.1798  -31.1940  -36.0408 H         1 UNK         0.0787 
    103 H103       22.1461  -32.9299  -36.2914 H         1 UNK         0.0787 
    104 H104       23.6838  -32.1147  -36.0544 H         1 UNK         0.0787 
    105 H105       24.2848  -31.7376  -40.1488 H         1 UNK         0.3055 
    106 H106       25.6300  -34.2205  -40.0359 H         1 UNK         0.1106 
    107 H107       26.3370  -33.6445  -42.3576 H         1 UNK         0.0828 
    108 H108       26.4390  -32.2337  -41.3194 H         1 UNK         0.0828 
    109 H109       25.0977  -32.4035  -42.4549 H         1 UNK         0.0828 
    110 H110       22.4515  -33.5322  -41.0929 H         1 UNK         0.2931 
    111 H111       21.9905  -35.8641  -42.7360 H         1 UNK         0.0412 
    112 H112       22.3364  -35.5776  -39.2828 H         1 UNK         0.3472 
    113 H113       21.4647  -37.0471  -38.9178 H         1 UNK         0.3472 
    114 H114       20.6603  -33.9539  -43.2592 H         1 UNK         0.0970 
    115 H115       19.5770  -35.1219  -42.5864 H         1 UNK         0.0970 
    116 H116       21.7080  -31.9273  -41.8975 H         1 UNK         0.0612 
    117 H117       20.7049  -31.0251  -40.7975 H         1 UNK         0.0612 
@<TRIPOS>BOND
     1    1    2 1    
     2    1   62 1    
     3    1   63 1    
     4    1   64 1    
     5    2    3 2    
     6    2    4 am   BACKBONE|DICT|INTERRES
     7    4    5 1    
     8    4   65 1    
     9    5    6 1    
    10    5   25 1    
    11    5   66 1    
    12    6    7 1    
    13    6   67 1    
    14    6   68 1    
    15    7    8 1    
    16    8    9 1    
    17    8   69 1    
    18    8   70 1    
    19    9   10 ar   
    20    9   14 ar   
    21   10   11 ar   
    22   10   71 1    
    23   11   12 ar   
    24   11   61 1    
    25   12   13 ar   
    26   12   72 1    
    27   13   14 ar   
    28   13   15 1    
    29   14   73 1    
    30   15   16 1    
    31   15   74 1    
    32   15   75 1    
    33   16   17 1    
    34   17   18 1    
    35   17   76 1    
    36   17   77 1    
    37   18   19 1    
    38   18   27 1    
    39   18   78 1    
    40   19   20 am   BACKBONE|DICT|INTERRES
    41   19   79 1    
    42   20   21 2    
    43   20   22 1    
    44   22   23 1    
    45   22   24 1    
    46   22   80 1    
    47   23   81 1    
    48   23   82 1    
    49   23   83 1    
    50   24   25 am   BACKBONE|DICT|INTERRES
    51   24   84 1    
    52   25   26 2    
    53   27   28 2    
    54   27   29 am   BACKBONE|DICT|INTERRES
    55   29   30 1    
    56   29   85 1    
    57   30   31 1    
    58   30   32 1    
    59   30   86 1    
    60   31   87 1    
    61   31   88 1    
    62   31   89 1    
    63   32   33 2    
    64   32   34 am   BACKBONE|DICT|INTERRES
    65   34   35 1    
    66   34   90 1    
    67   35   36 1    
    68   35   37 1    
    69   35   91 1    
    70   36   92 1    
    71   36   93 1    
    72   36   94 1    
    73   37   38 2    
    74   37   39 am   BACKBONE|DICT|INTERRES
    75   39   40 1    
    76   39   95 1    
    77   40   41 1    
    78   40   42 1    
    79   40   96 1    
    80   41   97 1    
    81   41   98 1    
    82   41   99 1    
    83   42   43 2    
    84   42   44 am   BACKBONE|DICT|INTERRES
    85   44   45 1    
    86   44  100 1    
    87   45   46 1    
    88   45   47 1    
    89   45  101 1    
    90   46  102 1    
    91   46  103 1    
    92   46  104 1    
    93   47   48 2    
    94   47   49 am   BACKBONE|DICT|INTERRES
    95   49   50 1    
    96   49  105 1    
    97   50   51 1    
    98   50   52 1    
    99   50  106 1    
   100   51  107 1    
   101   51  108 1    
   102   51  109 1    
   103   52   53 2    
   104   52   54 am   BACKBONE|DICT|INTERRES
   105   54   55 1    
   106   54  110 1    
   107   55   56 1    
   108   55   59 1    
   109   55  111 1    
   110   56   57 am   BACKBONE|DICT|INTERRES
   111   56   58 2    
   112   57  112 1    
   113   57  113 1    
   114   59   60 1    
   115   59  114 1    
   116   59  115 1    
   117   60   61 1    
   118   61  116 1    
   119   61  117 1    
@<TRIPOS>SUBSTRUCTURE
     1 UNK         1 GROUP             0       ****    0 ROOT    
