@<TRIPOS>MOLECULE
3R8
117   119    1
SMALL
USER_CHARGES


@<TRIPOS>ATOM
      1 CA         17.8262  -27.6382  -41.9641 C.3       0 UNK        -0.2013 
      2 C          17.0110  -26.8519  -42.9775 C.2       0 UNK         0.4866 
      3 O          16.5319  -25.7638  -42.6590 O.2       0 UNK        -0.5176 
      4 N          16.8538  -27.3871  -44.1969 N.am      1 UNK        -0.4884 
      5 CA         16.1228  -26.7448  -45.3014 C.3       1 UNK         0.0853 
      6 C6         15.8777  -27.7075  -46.4888 C.3       10 UNK        -0.0849 
      7 S7         14.9119  -29.1773  -46.0057 S.3       10 UNK        -0.2776 
      8 C8         16.0839  -30.5299  -46.3492 C.3       10 UNK         0.0316 
      9 C9         17.2418  -30.5652  -45.3604 C.ar      10 UNK        -0.0863 
     10 C10        17.0116  -30.9281  -44.0299 C.ar      10 UNK        -0.1009 
     11 C11        18.0715  -31.0152  -43.1237 C.ar      10 UNK        -0.0712 
     12 C12        19.3705  -30.7345  -43.5579 C.ar      10 UNK        -0.0894 
     13 C13        19.6158  -30.3639  -44.8823 C.ar      10 UNK        -0.0745 
     14 C14        18.5461  -30.2792  -45.7799 C.ar      10 UNK        -0.0972 
     15 C15        21.0408  -30.1047  -45.3552 C.3       10 UNK         0.0209 
     16 S16        21.3793  -28.3401  -45.6363 S.3       10 UNK        -0.2568 
     17 C17        21.5584  -27.6877  -43.9391 C.3       10 UNK        -0.0983 
     18 CA         21.6867  -26.1400  -43.9222 C.3       3 UNK         0.0876 
     19 N          20.5161  -25.4960  -44.5140 N.am      3 UNK        -0.4424 
     20 C          20.4846  -24.8519  -45.6868 C.2       2 UNK         0.4918 
     21 O          21.4812  -24.6232  -46.3741 O.2       2 UNK        -0.4875 
     22 CA         19.0879  -24.4582  -46.1957 C.3       2 UNK         0.0481 
     23 CB         19.0634  -24.1240  -47.7014 C.3       2 UNK        -0.1831 
     24 N          18.1644  -25.5510  -45.8957 N.am      2 UNK        -0.4498 
     25 C          16.8343  -25.4666  -45.7890 C.2       1 UNK         0.5027 
     26 O          16.1826  -24.4487  -46.0268 O.2       1 UNK        -0.4969 
     27 C          21.8277  -25.6022  -42.4896 C.2       3 UNK         0.5005 
     28 O          20.8148  -25.4252  -41.8065 O.2       3 UNK        -0.5279 
     29 N          23.0671  -25.3459  -42.0618 N.am      4 UNK        -0.4463 
     30 CA         23.4283  -24.8145  -40.7505 C.3       4 UNK         0.0283 
     31 CB         23.2059  -23.2912  -40.7091 C.3       4 UNK        -0.1875 
     32 C          24.8956  -25.1642  -40.4851 C.2       4 UNK         0.4949 
     33 O          25.6497  -25.3737  -41.4388 O.2       4 UNK        -0.5039 
     34 N          25.2668  -25.2463  -39.1998 N.am      5 UNK        -0.4663 
     35 CA         26.5611  -25.6817  -38.6414 C.3       5 UNK         0.0242 
     36 CB         27.7352  -24.8210  -39.1493 C.3       5 UNK        -0.1982 
     37 C          26.8400  -27.1862  -38.8278 C.2       5 UNK         0.5017 
     38 O          27.2379  -27.8482  -37.8688 O.2       5 UNK        -0.5012 
     39 N          26.5813  -27.7020  -40.0317 N.am      6 UNK        -0.4439 
     40 CA         26.4836  -29.1164  -40.3685 C.3       6 UNK         0.0297 
     41 CB         27.6579  -29.5115  -41.2780 C.3       6 UNK        -0.2006 
     42 C          25.1426  -29.3124  -41.0854 C.2       6 UNK         0.4892 
     43 O          24.7190  -28.4276  -41.8340 O.2       6 UNK        -0.5089 
     44 N          24.4966  -30.4564  -40.8494 N.am      7 UNK        -0.4243 
     45 CA         23.1920  -30.7941  -41.4063 C.3       7 UNK         0.0196 
     46 CB         22.0815  -30.2149  -40.5088 C.3       7 UNK        -0.2007 
     47 C          23.0787  -32.3153  -41.5135 C.2       7 UNK         0.5020 
     48 O          23.5302  -33.0247  -40.6118 O.2       7 UNK        -0.5147 
     49 N          22.4408  -32.7862  -42.5927 N.am      8 UNK        -0.4734 
     50 CA         22.1968  -34.2055  -42.8794 C.3       8 UNK         0.0238 
     51 CB         21.6141  -34.3324  -44.2971 C.3       8 UNK        -0.1912 
     52 C          21.2753  -34.9016  -41.8611 C.2       8 UNK         0.5038 
     53 O          21.3570  -36.1210  -41.7091 O.2       8 UNK        -0.5046 
     54 N          20.4274  -34.1155  -41.1874 N.am      9 UNK        -0.4200 
     55 CA         19.5127  -34.5623  -40.1274 C.3       9 UNK         0.0839 
     56 C          20.2104  -34.8678  -38.7689 C.2       9 UNK         0.5513 
     57 N          21.4877  -34.5511  -38.5831 N.am      9 UNK        -0.7519 
     58 O          19.5772  -35.4074  -37.8653 O.2       9 UNK        -0.4960 
     59 C59        18.3240  -33.5812  -39.9353 C.3       10 UNK        -0.0876 
     60 S60        17.4741  -33.1796  -41.5044 S.3       10 UNK        -0.2414 
     61 C61        17.8120  -31.3977  -41.6745 C.3       10 UNK         0.0169 
     62 H62        17.1677  -28.2112  -41.3123 H         1 UNK         0.0903 
     63 H63        18.5148  -28.3230  -42.4524 H         1 UNK         0.0903 
     64 H64        18.4164  -26.9618  -41.3459 H         1 UNK         0.0903 
     65 H65        17.2171  -28.3117  -44.3910 H         1 UNK         0.3096 
     66 H66        15.1496  -26.4356  -44.9127 H         1 UNK         0.1121 
     67 H67        15.3217  -27.1992  -47.2793 H         1 UNK         0.0849 
     68 H68        16.8229  -28.0166  -46.9387 H         1 UNK         0.0849 
     69 H69        15.5472  -31.4783  -46.2958 H         1 UNK         0.0865 
     70 H70        16.4449  -30.4471  -47.3756 H         1 UNK         0.0865 
     71 H71        16.0059  -31.1532  -43.7008 H         1 UNK         0.1346 
     72 H72        20.1932  -30.8030  -42.8646 H         1 UNK         0.1412 
     73 H73        18.7365  -30.0080  -46.8097 H         1 UNK         0.1426 
     74 H74        21.2056  -30.6422  -46.2902 H         1 UNK         0.0716 
     75 H75        21.7703  -30.5000  -44.6484 H         1 UNK         0.0716 
     76 H76        22.4399  -28.1468  -43.4880 H         1 UNK         0.0695 
     77 H77        20.7021  -28.0115  -43.3464 H         1 UNK         0.0695 
     78 H78        22.5854  -25.8607  -44.4771 H         1 UNK         0.0983 
     79 H79        19.6805  -25.5335  -43.9473 H         1 UNK         0.3095 
     80 H80        18.7817  -23.5735  -45.6341 H         1 UNK         0.0454 
     81 H81        19.7387  -23.2990  -47.9307 H         1 UNK         0.0851 
     82 H82        18.0687  -23.8230  -48.0296 H         1 UNK         0.0851 
     83 H83        19.3717  -24.9779  -48.3056 H         1 UNK         0.0851 
     84 H84        18.6022  -26.4386  -45.6865 H         1 UNK         0.2976 
     85 H85        23.8689  -25.5802  -42.6370 H         1 UNK         0.3116 
     86 H86        22.8125  -25.2981  -39.9889 H         1 UNK         0.0646 
     87 H87        23.4900  -22.8786  -39.7403 H         1 UNK         0.0847 
     88 H88        22.1587  -23.0362  -40.8722 H         1 UNK         0.0847 
     89 H89        23.7974  -22.7784  -41.4686 H         1 UNK         0.0847 
     90 H90        24.5549  -25.0643  -38.5045 H         1 UNK         0.3040 
     91 H91        26.4845  -25.5159  -37.5651 H         1 UNK         0.1015 
     92 H92        28.6563  -25.0769  -38.6242 H         1 UNK         0.0786 
     93 H93        27.5507  -23.7599  -38.9814 H         1 UNK         0.0786 
     94 H94        27.9234  -24.9649  -40.2135 H         1 UNK         0.0786 
     95 H95        26.2172  -27.0686  -40.7419 H         1 UNK         0.3172 
     96 H96        26.4985  -29.7292  -39.4645 H         1 UNK         0.0595 
     97 H97        27.6624  -28.9353  -42.2043 H         1 UNK         0.0839 
     98 H98        27.6049  -30.5668  -41.5488 H         1 UNK         0.0839 
     99 H99        28.6143  -29.3512  -40.7800 H         1 UNK         0.0839 
    100 H100       24.9112  -31.1714  -40.2644 H         1 UNK         0.2998 
    101 H101       23.1045  -30.3701  -42.4091 H         1 UNK         0.0822 
    102 H102       22.0934  -29.1245  -40.5209 H         1 UNK         0.0787 
    103 H103       22.1966  -30.5378  -39.4732 H         1 UNK         0.0787 
    104 H104       21.0917  -30.5305  -40.8331 H         1 UNK         0.0787 
    105 H105       22.1232  -32.1348  -43.2937 H         1 UNK         0.3055 
    106 H106       23.1579  -34.7242  -42.8501 H         1 UNK         0.1106 
    107 H107       20.6597  -33.8118  -44.3906 H         1 UNK         0.0828 
    108 H108       22.2943  -33.9262  -45.0459 H         1 UNK         0.0828 
    109 H109       21.4403  -35.3781  -44.5556 H         1 UNK         0.0828 
    110 H110       20.4260  -33.1293  -41.3906 H         1 UNK         0.2931 
    111 H111       19.0870  -35.5114  -40.4592 H         1 UNK         0.0412 
    112 H112       22.0298  -34.1149  -39.3171 H         1 UNK         0.3472 
    113 H113       21.9214  -34.7599  -37.6976 H         1 UNK         0.3472 
    114 H114       17.5830  -34.0221  -39.2657 H         1 UNK         0.0970 
    115 H115       18.6573  -32.6676  -39.4405 H         1 UNK         0.0970 
    116 H116       18.6650  -31.1087  -41.0603 H         1 UNK         0.0612 
    117 H117       16.9578  -30.8375  -41.2917 H         1 UNK         0.0612 
@<TRIPOS>BOND
     1    1    2 1    
     2    1   62 1    
     3    1   63 1    
     4    1   64 1    
     5    2    3 2    
     6    2    4 am   BACKBONE|DICT|INTERRES
     7    4    5 1    
     8    4   65 1    
     9    5    6 1    
    10    5   25 1    
    11    5   66 1    
    12    6    7 1    
    13    6   67 1    
    14    6   68 1    
    15    7    8 1    
    16    8    9 1    
    17    8   69 1    
    18    8   70 1    
    19    9   10 ar   
    20    9   14 ar   
    21   10   11 ar   
    22   10   71 1    
    23   11   12 ar   
    24   11   61 1    
    25   12   13 ar   
    26   12   72 1    
    27   13   14 ar   
    28   13   15 1    
    29   14   73 1    
    30   15   16 1    
    31   15   74 1    
    32   15   75 1    
    33   16   17 1    
    34   17   18 1    
    35   17   76 1    
    36   17   77 1    
    37   18   19 1    
    38   18   27 1    
    39   18   78 1    
    40   19   20 am   BACKBONE|DICT|INTERRES
    41   19   79 1    
    42   20   21 2    
    43   20   22 1    
    44   22   23 1    
    45   22   24 1    
    46   22   80 1    
    47   23   81 1    
    48   23   82 1    
    49   23   83 1    
    50   24   25 am   BACKBONE|DICT|INTERRES
    51   24   84 1    
    52   25   26 2    
    53   27   28 2    
    54   27   29 am   BACKBONE|DICT|INTERRES
    55   29   30 1    
    56   29   85 1    
    57   30   31 1    
    58   30   32 1    
    59   30   86 1    
    60   31   87 1    
    61   31   88 1    
    62   31   89 1    
    63   32   33 2    
    64   32   34 am   BACKBONE|DICT|INTERRES
    65   34   35 1    
    66   34   90 1    
    67   35   36 1    
    68   35   37 1    
    69   35   91 1    
    70   36   92 1    
    71   36   93 1    
    72   36   94 1    
    73   37   38 2    
    74   37   39 am   BACKBONE|DICT|INTERRES
    75   39   40 1    
    76   39   95 1    
    77   40   41 1    
    78   40   42 1    
    79   40   96 1    
    80   41   97 1    
    81   41   98 1    
    82   41   99 1    
    83   42   43 2    
    84   42   44 am   BACKBONE|DICT|INTERRES
    85   44   45 1    
    86   44  100 1    
    87   45   46 1    
    88   45   47 1    
    89   45  101 1    
    90   46  102 1    
    91   46  103 1    
    92   46  104 1    
    93   47   48 2    
    94   47   49 am   BACKBONE|DICT|INTERRES
    95   49   50 1    
    96   49  105 1    
    97   50   51 1    
    98   50   52 1    
    99   50  106 1    
   100   51  107 1    
   101   51  108 1    
   102   51  109 1    
   103   52   53 2    
   104   52   54 am   BACKBONE|DICT|INTERRES
   105   54   55 1    
   106   54  110 1    
   107   55   56 1    
   108   55   59 1    
   109   55  111 1    
   110   56   57 am   BACKBONE|DICT|INTERRES
   111   56   58 2    
   112   57  112 1    
   113   57  113 1    
   114   59   60 1    
   115   59  114 1    
   116   59  115 1    
   117   60   61 1    
   118   61  116 1    
   119   61  117 1    
@<TRIPOS>SUBSTRUCTURE
     1 UNK         1 GROUP             0       ****    0 ROOT    
