@<TRIPOS>MOLECULE
3R8
117   119    1
SMALL
USER_CHARGES


@<TRIPOS>ATOM
      1 CA         16.6616  -22.8408  -45.9647 C.3       0 UNK        -0.2013 
      2 C          17.0088  -24.2755  -45.5974 C.2       0 UNK         0.4866 
      3 O          17.7298  -24.9394  -46.3403 O.2       0 UNK        -0.5176 
      4 N          16.5123  -24.7537  -44.4492 N.am      1 UNK        -0.4884 
      5 CA         16.7085  -26.1216  -43.9443 C.3       1 UNK         0.0853 
      6 C6         15.5225  -26.5750  -43.0541 C.3       10 UNK        -0.0849 
      7 S7         14.0756  -26.9779  -44.0908 S.3       10 UNK        -0.2776 
      8 C8         13.9758  -28.7977  -43.9445 C.3       10 UNK         0.0316 
      9 C9         15.3044  -29.5109  -44.1861 C.ar      10 UNK        -0.0863 
     10 C10        15.8663  -30.2981  -43.1734 C.ar      10 UNK        -0.1009 
     11 C11        17.0756  -30.9664  -43.3835 C.ar      10 UNK        -0.0712 
     12 C12        17.7203  -30.8500  -44.6150 C.ar      10 UNK        -0.0894 
     13 C13        17.1938  -30.0391  -45.6219 C.ar      10 UNK        -0.0745 
     14 C14        15.9725  -29.3889  -45.4109 C.ar      10 UNK        -0.0972 
     15 C15        17.9533  -29.8639  -46.9291 C.3       10 UNK         0.0209 
     16 S16        19.1277  -28.4705  -46.8518 S.3       10 UNK        -0.2568 
     17 C17        20.5429  -29.1933  -45.9480 C.3       10 UNK        -0.0983 
     18 CA         21.4767  -28.1152  -45.3491 C.3       3 UNK         0.0876 
     19 N          20.7765  -27.2577  -44.3926 N.am      3 UNK        -0.4424 
     20 C          21.2546  -26.1345  -43.8438 C.2       2 UNK         0.4918 
     21 O          22.3547  -25.6581  -44.1315 O.2       2 UNK        -0.4875 
     22 CA         20.3508  -25.4306  -42.8061 C.3       2 UNK         0.0481 
     23 CB         20.8636  -24.0285  -42.4310 C.3       2 UNK        -0.1831 
     24 N          18.9570  -25.3313  -43.2553 N.am      2 UNK        -0.4498 
     25 C          18.0720  -26.3387  -43.2545 C.2       1 UNK         0.5027 
     26 O          18.3315  -27.4414  -42.7746 O.2       1 UNK        -0.4969 
     27 C          22.6914  -28.7607  -44.6574 C.2       3 UNK         0.5005 
     28 O          22.5807  -29.1614  -43.4966 O.2       3 UNK        -0.5279 
     29 N          23.8387  -28.7939  -45.3527 N.am      4 UNK        -0.4463 
     30 CA         25.1518  -29.2274  -44.8445 C.3       4 UNK         0.0283 
     31 CB         25.1506  -30.7450  -44.5590 C.3       4 UNK        -0.1875 
     32 C          25.6456  -28.4051  -43.6307 C.2       4 UNK         0.4949 
     33 O          26.4224  -28.9168  -42.8242 O.2       4 UNK        -0.5039 
     34 N          25.1735  -27.1516  -43.5253 N.am      5 UNK        -0.4663 
     35 CA         25.3358  -26.2233  -42.3992 C.3       5 UNK         0.0242 
     36 CB         26.8177  -25.8429  -42.1892 C.3       5 UNK        -0.1982 
     37 C          24.6427  -26.7082  -41.1076 C.2       5 UNK         0.5017 
     38 O          25.1036  -26.3785  -40.0133 O.2       5 UNK        -0.5012 
     39 N          23.5389  -27.4585  -41.2593 N.am      6 UNK        -0.4439 
     40 CA         22.7355  -28.0821  -40.2043 C.3       6 UNK         0.0297 
     41 CB         22.1050  -27.0260  -39.2661 C.3       6 UNK        -0.2006 
     42 C          23.5348  -29.1899  -39.4923 C.2       6 UNK         0.4892 
     43 O          24.1510  -30.0060  -40.1808 O.2       6 UNK        -0.5089 
     44 N          23.4885  -29.2302  -38.1509 N.am      7 UNK        -0.4243 
     45 CA         24.1142  -30.2245  -37.2682 C.3       7 UNK         0.0196 
     46 CB         25.6551  -30.1046  -37.3020 C.3       7 UNK        -0.2007 
     47 C          23.5957  -31.6433  -37.5663 C.2       7 UNK         0.5020 
     48 O          22.5222  -32.0037  -37.0831 O.2       7 UNK        -0.5147 
     49 N          24.3373  -32.4035  -38.3834 N.am      8 UNK        -0.4734 
     50 CA         23.9217  -33.6995  -38.9292 C.3       8 UNK         0.0238 
     51 CB         25.1378  -34.3919  -39.5656 C.3       8 UNK        -0.1912 
     52 C          22.7695  -33.5903  -39.9477 C.2       8 UNK         0.5038 
     53 O          22.0460  -34.5690  -40.1349 O.2       8 UNK        -0.5046 
     54 N          22.6126  -32.4123  -40.5697 N.am      9 UNK        -0.4200 
     55 CA         21.5440  -32.0615  -41.5185 C.3       9 UNK         0.0839 
     56 C          21.6557  -32.7545  -42.9122 C.2       9 UNK         0.5513 
     57 N          22.7914  -33.3472  -43.2632 N.am      9 UNK        -0.7519 
     58 O          20.7148  -32.7448  -43.7003 O.2       9 UNK        -0.4960 
     59 C59        20.1311  -32.1614  -40.8654 C.3       10 UNK        -0.0876 
     60 S60        18.9992  -30.8442  -41.4225 S.3       10 UNK        -0.2414 
     61 C61        17.7137  -31.8012  -42.2862 C.3       10 UNK         0.0169 
     62 H62        16.1342  -22.8160  -46.9178 H         1 UNK         0.0903 
     63 H63        16.0274  -22.3686  -45.2146 H         1 UNK         0.0903 
     64 H64        17.5703  -22.2475  -46.0630 H         1 UNK         0.0903 
     65 H65        15.9260  -24.1599  -43.8790 H         1 UNK         0.3096 
     66 H66        16.7495  -26.7893  -44.8078 H         1 UNK         0.1121 
     67 H67        15.7727  -27.4473  -42.4477 H         1 UNK         0.0849 
     68 H68        15.2493  -25.7945  -42.3422 H         1 UNK         0.0849 
     69 H69        13.5833  -29.0418  -42.9560 H         1 UNK         0.0865 
     70 H70        13.2407  -29.1681  -44.6602 H         1 UNK         0.0865 
     71 H71        15.3685  -30.3875  -42.2175 H         1 UNK         0.1346 
     72 H72        18.6522  -31.3748  -44.7728 H         1 UNK         0.1412 
     73 H73        15.5518  -28.7679  -46.1903 H         1 UNK         0.1426 
     74 H74        17.2484  -29.6817  -47.7417 H         1 UNK         0.0716 
     75 H75        18.4862  -30.7800  -47.1889 H         1 UNK         0.0716 
     76 H76        21.0900  -29.8357  -46.6406 H         1 UNK         0.0695 
     77 H77        20.1802  -29.8399  -45.1504 H         1 UNK         0.0695 
     78 H78        21.8345  -27.4767  -46.1597 H         1 UNK         0.0983 
     79 H79        19.8897  -27.6078  -44.0479 H         1 UNK         0.3095 
     80 H80        20.3791  -26.0416  -41.9022 H         1 UNK         0.0454 
     81 H81        21.8746  -24.0781  -42.0240 H         1 UNK         0.0851 
     82 H82        20.2349  -23.5656  -41.6704 H         1 UNK         0.0851 
     83 H83        20.8917  -23.3645  -43.2956 H         1 UNK         0.0851 
     84 H84        18.6851  -24.4721  -43.7107 H         1 UNK         0.2976 
     85 H85        23.8387  -28.4349  -46.2985 H         1 UNK         0.3116 
     86 H86        25.8673  -29.0422  -45.6469 H         1 UNK         0.0646 
     87 H87        24.5299  -30.9915  -43.6967 H         1 UNK         0.0847 
     88 H88        24.7801  -31.3126  -45.4122 H         1 UNK         0.0847 
     89 H89        26.1575  -31.1043  -44.3441 H         1 UNK         0.0847 
     90 H90        24.5353  -26.8341  -44.2438 H         1 UNK         0.3040 
     91 H91        24.8066  -25.3131  -42.6868 H         1 UNK         0.1015 
     92 H92        26.9129  -25.0283  -41.4702 H         1 UNK         0.0786 
     93 H93        27.2776  -25.5074  -43.1187 H         1 UNK         0.0786 
     94 H94        27.4025  -26.6797  -41.8067 H         1 UNK         0.0786 
     95 H95        23.3134  -27.7814  -42.1955 H         1 UNK         0.3172 
     96 H96        21.9170  -28.5880  -40.7191 H         1 UNK         0.0595 
     97 H97        22.8477  -26.5293  -38.6408 H         1 UNK         0.0839 
     98 H98        21.3629  -27.4775  -38.6067 H         1 UNK         0.0839 
     99 H99        21.5901  -26.2525  -39.8349 H         1 UNK         0.0839 
    100 H100       22.9301  -28.5297  -37.6839 H         1 UNK         0.2998 
    101 H101       23.7915  -29.9876  -36.2530 H         1 UNK         0.0822 
    102 H102       26.1203  -30.8487  -36.6540 H         1 UNK         0.0787 
    103 H103       25.9749  -29.1254  -36.9455 H         1 UNK         0.0787 
    104 H104       26.0667  -30.2348  -38.3031 H         1 UNK         0.0787 
    105 H105       25.1820  -31.9982  -38.7623 H         1 UNK         0.3055 
    106 H106       23.5646  -34.3182  -38.1027 H         1 UNK         0.1106 
    107 H107       25.9312  -34.5510  -38.8351 H         1 UNK         0.0828 
    108 H108       24.8658  -35.3709  -39.9632 H         1 UNK         0.0828 
    109 H109       25.5509  -33.8087  -40.3895 H         1 UNK         0.0828 
    110 H110       23.2764  -31.6665  -40.3747 H         1 UNK         0.2931 
    111 H111       21.7346  -31.0085  -41.7260 H         1 UNK         0.0412 
    112 H112       23.5754  -33.3616  -42.6320 H         1 UNK         0.3472 
    113 H113       22.8571  -33.7892  -44.1661 H         1 UNK         0.3472 
    114 H114       19.6943  -33.1496  -41.0192 H         1 UNK         0.0970 
    115 H115       20.2089  -32.0474  -39.7829 H         1 UNK         0.0970 
    116 H116       16.9660  -32.1357  -41.5657 H         1 UNK         0.0612 
    117 H117       18.1450  -32.7008  -42.7274 H         1 UNK         0.0612 
@<TRIPOS>BOND
     1    1    2 1    
     2    1   62 1    
     3    1   63 1    
     4    1   64 1    
     5    2    3 2    
     6    2    4 am   BACKBONE|DICT|INTERRES
     7    4    5 1    
     8    4   65 1    
     9    5    6 1    
    10    5   25 1    
    11    5   66 1    
    12    6    7 1    
    13    6   67 1    
    14    6   68 1    
    15    7    8 1    
    16    8    9 1    
    17    8   69 1    
    18    8   70 1    
    19    9   10 ar   
    20    9   14 ar   
    21   10   11 ar   
    22   10   71 1    
    23   11   12 ar   
    24   11   61 1    
    25   12   13 ar   
    26   12   72 1    
    27   13   14 ar   
    28   13   15 1    
    29   14   73 1    
    30   15   16 1    
    31   15   74 1    
    32   15   75 1    
    33   16   17 1    
    34   17   18 1    
    35   17   76 1    
    36   17   77 1    
    37   18   19 1    
    38   18   27 1    
    39   18   78 1    
    40   19   20 am   BACKBONE|DICT|INTERRES
    41   19   79 1    
    42   20   21 2    
    43   20   22 1    
    44   22   23 1    
    45   22   24 1    
    46   22   80 1    
    47   23   81 1    
    48   23   82 1    
    49   23   83 1    
    50   24   25 am   BACKBONE|DICT|INTERRES
    51   24   84 1    
    52   25   26 2    
    53   27   28 2    
    54   27   29 am   BACKBONE|DICT|INTERRES
    55   29   30 1    
    56   29   85 1    
    57   30   31 1    
    58   30   32 1    
    59   30   86 1    
    60   31   87 1    
    61   31   88 1    
    62   31   89 1    
    63   32   33 2    
    64   32   34 am   BACKBONE|DICT|INTERRES
    65   34   35 1    
    66   34   90 1    
    67   35   36 1    
    68   35   37 1    
    69   35   91 1    
    70   36   92 1    
    71   36   93 1    
    72   36   94 1    
    73   37   38 2    
    74   37   39 am   BACKBONE|DICT|INTERRES
    75   39   40 1    
    76   39   95 1    
    77   40   41 1    
    78   40   42 1    
    79   40   96 1    
    80   41   97 1    
    81   41   98 1    
    82   41   99 1    
    83   42   43 2    
    84   42   44 am   BACKBONE|DICT|INTERRES
    85   44   45 1    
    86   44  100 1    
    87   45   46 1    
    88   45   47 1    
    89   45  101 1    
    90   46  102 1    
    91   46  103 1    
    92   46  104 1    
    93   47   48 2    
    94   47   49 am   BACKBONE|DICT|INTERRES
    95   49   50 1    
    96   49  105 1    
    97   50   51 1    
    98   50   52 1    
    99   50  106 1    
   100   51  107 1    
   101   51  108 1    
   102   51  109 1    
   103   52   53 2    
   104   52   54 am   BACKBONE|DICT|INTERRES
   105   54   55 1    
   106   54  110 1    
   107   55   56 1    
   108   55   59 1    
   109   55  111 1    
   110   56   57 am   BACKBONE|DICT|INTERRES
   111   56   58 2    
   112   57  112 1    
   113   57  113 1    
   114   59   60 1    
   115   59  114 1    
   116   59  115 1    
   117   60   61 1    
   118   61  116 1    
   119   61  117 1    
@<TRIPOS>SUBSTRUCTURE
     1 UNK         1 GROUP             0       ****    0 ROOT    
