@<TRIPOS>MOLECULE
3R8
117   119    1
SMALL
USER_CHARGES


@<TRIPOS>ATOM
      1 CA         14.2510  -24.4653  -41.7595 C.3       0 UNK        -0.2013 
      2 C          14.8857  -24.7213  -43.1184 C.2       0 UNK         0.4866 
      3 O          14.2283  -24.5464  -44.1450 O.2       0 UNK        -0.5176 
      4 N          16.1574  -25.1296  -43.1333 N.am      1 UNK        -0.4884 
      5 CA         16.9353  -25.4345  -44.3330 C.3       1 UNK         0.0853 
      6 C6         16.6373  -26.8392  -44.9285 C.3       10 UNK        -0.0849 
      7 S7         16.5422  -28.1940  -43.7029 S.3       10 UNK        -0.2776 
      8 C8         15.9830  -29.5773  -44.7480 C.3       10 UNK         0.0316 
      9 C9         17.1656  -30.4209  -45.1925 C.ar      10 UNK        -0.0863 
     10 C10        17.5376  -31.5442  -44.4488 C.ar      10 UNK        -0.1009 
     11 C11        18.6675  -32.2868  -44.8010 C.ar      10 UNK        -0.0712 
     12 C12        19.4219  -31.9031  -45.9139 C.ar      10 UNK        -0.0894 
     13 C13        19.0578  -30.7806  -46.6662 C.ar      10 UNK        -0.0745 
     14 C14        17.9149  -30.0566  -46.3145 C.ar      10 UNK        -0.0972 
     15 C15        19.9531  -30.2943  -47.7990 C.3       10 UNK         0.0209 
     16 S16        20.7852  -28.7161  -47.3936 S.3       10 UNK        -0.2568 
     17 C17        21.3971  -29.0457  -45.7047 C.3       10 UNK        -0.0983 
     18 CA         22.0472  -27.8321  -44.9990 C.3       3 UNK         0.0876 
     19 N          21.2290  -26.6172  -45.0944 N.am      3 UNK        -0.4424 
     20 C          21.5676  -25.4122  -44.6141 C.2       2 UNK         0.4918 
     21 O          22.6154  -25.1828  -44.0090 O.2       2 UNK        -0.4875 
     22 CA         20.5696  -24.2640  -44.8386 C.3       2 UNK         0.0481 
     23 CB         20.9813  -23.4375  -46.0673 C.3       2 UNK        -0.1831 
     24 N          19.1734  -24.6910  -44.9890 N.am      2 UNK        -0.4498 
     25 C          18.4222  -25.2161  -44.0097 C.2       1 UNK         0.5027 
     26 O          18.8541  -25.5017  -42.8895 O.2       1 UNK        -0.4969 
     27 C          22.3402  -28.2293  -43.5403 C.2       3 UNK         0.5005 
     28 O          23.4402  -28.6983  -43.2466 O.2       3 UNK        -0.5279 
     29 N          21.3461  -28.0349  -42.6591 N.am      4 UNK        -0.4463 
     30 CA         21.3300  -28.4657  -41.2592 C.3       4 UNK         0.0283 
     31 CB         19.9855  -28.0708  -40.6295 C.3       4 UNK        -0.1875 
     32 C          22.4974  -27.9475  -40.4041 C.2       4 UNK         0.4949 
     33 O          22.8692  -28.6148  -39.4402 O.2       4 UNK        -0.5039 
     34 N          23.0769  -26.8025  -40.7876 N.am      5 UNK        -0.4663 
     35 CA         24.2649  -26.2199  -40.1613 C.3       5 UNK         0.0242 
     36 CB         24.4415  -24.7818  -40.6752 C.3       5 UNK        -0.1982 
     37 C          25.5532  -27.0342  -40.3916 C.2       5 UNK         0.5017 
     38 O          26.4794  -26.9115  -39.5891 O.2       5 UNK        -0.5012 
     39 N          25.5985  -27.8304  -41.4694 N.am      6 UNK        -0.4439 
     40 CA         26.7439  -28.6597  -41.8514 C.3       6 UNK         0.0297 
     41 CB         27.1806  -28.2905  -43.2791 C.3       6 UNK        -0.2006 
     42 C          26.4145  -30.1568  -41.7648 C.2       6 UNK         0.4892 
     43 O          27.2376  -30.9276  -41.2707 O.2       6 UNK        -0.5089 
     44 N          25.2282  -30.5453  -42.2505 N.am      7 UNK        -0.4243 
     45 CA         24.7678  -31.9330  -42.3323 C.3       7 UNK         0.0196 
     46 CB         23.7240  -32.0346  -43.4570 C.3       7 UNK        -0.2007 
     47 C          24.1966  -32.4782  -41.0112 C.2       7 UNK         0.5020 
     48 O          24.0000  -33.6890  -40.9087 O.2       7 UNK        -0.5147 
     49 N          23.9299  -31.5925  -40.0377 N.am      8 UNK        -0.4734 
     50 CA         23.3530  -31.8742  -38.7138 C.3       8 UNK         0.0238 
     51 CB         24.2900  -32.7709  -37.8752 C.3       8 UNK        -0.1912 
     52 C          21.9049  -32.4046  -38.7716 C.2       8 UNK         0.5038 
     53 O          21.4878  -33.1476  -37.8814 O.2       8 UNK        -0.5046 
     54 N          21.1608  -31.9980  -39.8087 N.am      9 UNK        -0.4200 
     55 CA         19.7475  -32.3439  -40.0390 C.3       9 UNK         0.0839 
     56 C          18.7394  -31.6822  -39.0521 C.2       9 UNK         0.5513 
     57 N          19.1450  -30.7446  -38.2040 N.am      9 UNK        -0.7519 
     58 O          17.5629  -32.0346  -39.0536 O.2       9 UNK        -0.4960 
     59 C59        19.3259  -32.0857  -41.5108 C.3       10 UNK        -0.0876 
     60 S60        20.3266  -33.0310  -42.7096 S.3       10 UNK        -0.2414 
     61 C61        19.0891  -33.4873  -43.9658 C.3       10 UNK         0.0169 
     62 H62        13.3802  -25.1066  -41.6261 H         1 UNK         0.0903 
     63 H63        14.9448  -24.6621  -40.9423 H         1 UNK         0.0903 
     64 H64        13.9255  -23.4279  -41.6862 H         1 UNK         0.0903 
     65 H65        16.6786  -25.2452  -42.2726 H         1 UNK         0.3096 
     66 H66        16.6713  -24.6906  -45.0889 H         1 UNK         0.1121 
     67 H67        15.6762  -26.7973  -45.4435 H         1 UNK         0.0849 
     68 H68        17.3691  -27.0991  -45.6950 H         1 UNK         0.0849 
     69 H69        15.2815  -30.1874  -44.1768 H         1 UNK         0.0865 
     70 H70        15.4279  -29.2106  -45.6127 H         1 UNK         0.0865 
     71 H71        16.9601  -31.8250  -43.5790 H         1 UNK         0.1346 
     72 H72        20.3143  -32.4582  -46.1692 H         1 UNK         0.1412 
     73 H73        17.6438  -29.1781  -46.8834 H         1 UNK         0.1426 
     74 H74        19.3578  -30.1629  -48.7036 H         1 UNK         0.0716 
     75 H75        20.7130  -31.0405  -48.0363 H         1 UNK         0.0716 
     76 H76        20.5547  -29.3916  -45.1036 H         1 UNK         0.0695 
     77 H77        22.1002  -29.8800  -45.7538 H         1 UNK         0.0695 
     78 H78        23.0035  -27.6200  -45.4818 H         1 UNK         0.0983 
     79 H79        20.3633  -26.7075  -45.6050 H         1 UNK         0.3095 
     80 H80        20.6239  -23.6142  -43.9625 H         1 UNK         0.0454 
     81 H81        22.0076  -23.0798  -45.9713 H         1 UNK         0.0851 
     82 H82        20.9261  -24.0224  -46.9863 H         1 UNK         0.0851 
     83 H83        20.3467  -22.5593  -46.1878 H         1 UNK         0.0851 
     84 H84        18.7419  -24.4930  -45.8810 H         1 UNK         0.2976 
     85 H85        20.5010  -27.5936  -42.9965 H         1 UNK         0.3116 
     86 H86        21.4001  -29.5537  -41.2651 H         1 UNK         0.0646 
     87 H87        19.9329  -28.3803  -39.5853 H         1 UNK         0.0847 
     88 H88        19.1472  -28.5372  -41.1477 H         1 UNK         0.0847 
     89 H89        19.8328  -26.9910  -40.6544 H         1 UNK         0.0847 
     90 H90        22.7139  -26.3319  -41.6059 H         1 UNK         0.3040 
     91 H91        24.0948  -26.1825  -39.0828 H         1 UNK         0.1015 
     92 H92        23.5720  -24.1671  -40.4416 H         1 UNK         0.0786 
     93 H93        24.5904  -24.7555  -41.7558 H         1 UNK         0.0786 
     94 H94        25.3075  -24.3045  -40.2141 H         1 UNK         0.0786 
     95 H95        24.7733  -27.8955  -42.0587 H         1 UNK         0.3172 
     96 H96        27.5901  -28.4744  -41.1866 H         1 UNK         0.0595 
     97 H97        28.0277  -28.8990  -43.5989 H         1 UNK         0.0839 
     98 H98        27.4910  -27.2472  -43.3388 H         1 UNK         0.0839 
     99 H99        26.3775  -28.4415  -44.0020 H         1 UNK         0.0839 
    100 H100       24.6040  -29.8454  -42.6514 H         1 UNK         0.2998 
    101 H101       25.6164  -32.5659  -42.6011 H         1 UNK         0.0822 
    102 H102       24.1370  -31.7130  -44.4131 H         1 UNK         0.0787 
    103 H103       23.3804  -33.0624  -43.5823 H         1 UNK         0.0787 
    104 H104       22.8471  -31.4206  -43.2493 H         1 UNK         0.0787 
    105 H105       24.1236  -30.6173  -40.2249 H         1 UNK         0.3055 
    106 H106       23.2902  -30.9135  -38.2006 H         1 UNK         0.1106 
    107 H107       24.3410  -33.7866  -38.2682 H         1 UNK         0.0828 
    108 H108       25.3030  -32.3699  -37.8472 H         1 UNK         0.0828 
    109 H109       23.9432  -32.8417  -36.8436 H         1 UNK         0.0828 
    110 H110       21.5990  -31.4207  -40.5082 H         1 UNK         0.2931 
    111 H111       19.6583  -33.4180  -39.8646 H         1 UNK         0.0412 
    112 H112       20.1106  -30.4621  -38.1743 H         1 UNK         0.3472 
    113 H113       18.4783  -30.3348  -37.5688 H         1 UNK         0.3472 
    114 H114       18.2784  -32.3591  -41.6468 H         1 UNK         0.0970 
    115 H115       19.3951  -31.0253  -41.7586 H         1 UNK         0.0970 
    116 H116       19.5173  -34.2520  -44.6154 H         1 UNK         0.0612 
    117 H117       18.2248  -33.9475  -43.4845 H         1 UNK         0.0612 
@<TRIPOS>BOND
     1    1    2 1    
     2    1   62 1    
     3    1   63 1    
     4    1   64 1    
     5    2    3 2    
     6    2    4 am   BACKBONE|DICT|INTERRES
     7    4    5 1    
     8    4   65 1    
     9    5    6 1    
    10    5   25 1    
    11    5   66 1    
    12    6    7 1    
    13    6   67 1    
    14    6   68 1    
    15    7    8 1    
    16    8    9 1    
    17    8   69 1    
    18    8   70 1    
    19    9   10 ar   
    20    9   14 ar   
    21   10   11 ar   
    22   10   71 1    
    23   11   12 ar   
    24   11   61 1    
    25   12   13 ar   
    26   12   72 1    
    27   13   14 ar   
    28   13   15 1    
    29   14   73 1    
    30   15   16 1    
    31   15   74 1    
    32   15   75 1    
    33   16   17 1    
    34   17   18 1    
    35   17   76 1    
    36   17   77 1    
    37   18   19 1    
    38   18   27 1    
    39   18   78 1    
    40   19   20 am   BACKBONE|DICT|INTERRES
    41   19   79 1    
    42   20   21 2    
    43   20   22 1    
    44   22   23 1    
    45   22   24 1    
    46   22   80 1    
    47   23   81 1    
    48   23   82 1    
    49   23   83 1    
    50   24   25 am   BACKBONE|DICT|INTERRES
    51   24   84 1    
    52   25   26 2    
    53   27   28 2    
    54   27   29 am   BACKBONE|DICT|INTERRES
    55   29   30 1    
    56   29   85 1    
    57   30   31 1    
    58   30   32 1    
    59   30   86 1    
    60   31   87 1    
    61   31   88 1    
    62   31   89 1    
    63   32   33 2    
    64   32   34 am   BACKBONE|DICT|INTERRES
    65   34   35 1    
    66   34   90 1    
    67   35   36 1    
    68   35   37 1    
    69   35   91 1    
    70   36   92 1    
    71   36   93 1    
    72   36   94 1    
    73   37   38 2    
    74   37   39 am   BACKBONE|DICT|INTERRES
    75   39   40 1    
    76   39   95 1    
    77   40   41 1    
    78   40   42 1    
    79   40   96 1    
    80   41   97 1    
    81   41   98 1    
    82   41   99 1    
    83   42   43 2    
    84   42   44 am   BACKBONE|DICT|INTERRES
    85   44   45 1    
    86   44  100 1    
    87   45   46 1    
    88   45   47 1    
    89   45  101 1    
    90   46  102 1    
    91   46  103 1    
    92   46  104 1    
    93   47   48 2    
    94   47   49 am   BACKBONE|DICT|INTERRES
    95   49   50 1    
    96   49  105 1    
    97   50   51 1    
    98   50   52 1    
    99   50  106 1    
   100   51  107 1    
   101   51  108 1    
   102   51  109 1    
   103   52   53 2    
   104   52   54 am   BACKBONE|DICT|INTERRES
   105   54   55 1    
   106   54  110 1    
   107   55   56 1    
   108   55   59 1    
   109   55  111 1    
   110   56   57 am   BACKBONE|DICT|INTERRES
   111   56   58 2    
   112   57  112 1    
   113   57  113 1    
   114   59   60 1    
   115   59  114 1    
   116   59  115 1    
   117   60   61 1    
   118   61  116 1    
   119   61  117 1    
@<TRIPOS>SUBSTRUCTURE
     1 UNK         1 GROUP             0       ****    0 ROOT    
