@<TRIPOS>MOLECULE
3R8
117   119    1
SMALL
USER_CHARGES


@<TRIPOS>ATOM
      1 CA         15.5156  -26.3091  -40.2659 C.3       0 UNK        -0.2013 
      2 C          15.9566  -25.8981  -41.6673 C.2       0 UNK         0.4866 
      3 O          15.8625  -24.7187  -42.0202 O.2       0 UNK        -0.5176 
      4 N          16.4287  -26.8642  -42.4702 N.am      1 UNK        -0.4884 
      5 CA         16.9635  -26.6521  -43.8245 C.3       1 UNK         0.0853 
      6 C6         17.1241  -27.9910  -44.5934 C.3       10 UNK        -0.0849 
      7 S7         15.5771  -28.9549  -44.6987 S.3       10 UNK        -0.2776 
      8 C8         15.8863  -29.9888  -46.1704 C.3       10 UNK         0.0316 
      9 C9         17.2298  -30.7033  -46.0980 C.ar      10 UNK        -0.0863 
     10 C10        17.4477  -31.7041  -45.1457 C.ar      10 UNK        -0.1009 
     11 C11        18.6942  -32.3300  -45.0481 C.ar      10 UNK        -0.0712 
     12 C12        19.7217  -31.9577  -45.9202 C.ar      10 UNK        -0.0894 
     13 C13        19.5162  -30.9570  -46.8748 C.ar      10 UNK        -0.0745 
     14 C14        18.2649  -30.3411  -46.9662 C.ar      10 UNK        -0.0972 
     15 C15        20.6557  -30.5206  -47.7864 C.3       10 UNK         0.0209 
     16 S16        21.2420  -28.8373  -47.4001 S.3       10 UNK        -0.2568 
     17 C17        21.7377  -29.0210  -45.6539 C.3       10 UNK        -0.0983 
     18 CA         22.1369  -27.6848  -44.9810 C.3       3 UNK         0.0876 
     19 N          21.0986  -26.6633  -45.1387 N.am      3 UNK        -0.4424 
     20 C          21.2236  -25.3648  -44.8361 C.2       2 UNK         0.4918 
     21 O          22.2641  -24.8556  -44.4192 O.2       2 UNK        -0.4875 
     22 CA         19.9597  -24.4933  -44.9911 C.3       2 UNK         0.0481 
     23 CB         19.9792  -23.7665  -46.3450 C.3       2 UNK        -0.1831 
     24 N          18.6885  -25.2222  -44.8485 N.am      2 UNK        -0.4498 
     25 C          18.3250  -25.9290  -43.7670 C.2       1 UNK         0.5027 
     26 O          19.0544  -26.0811  -42.7847 O.2       1 UNK        -0.4969 
     27 C          22.4955  -27.9604  -43.5054 C.2       3 UNK         0.5005 
     28 O          23.5957  -28.4518  -43.2459 O.2       3 UNK        -0.5279 
     29 N          21.5777  -27.6735  -42.5643 N.am      4 UNK        -0.4463 
     30 CA         21.6701  -28.0398  -41.1447 C.3       4 UNK         0.0283 
     31 CB         20.3850  -27.6287  -40.4119 C.3       4 UNK        -0.1875 
     32 C          22.8997  -27.4966  -40.4000 C.2       4 UNK         0.4949 
     33 O          23.2953  -28.0924  -39.3996 O.2       4 UNK        -0.5039 
     34 N          23.5107  -26.4232  -40.9184 N.am      5 UNK        -0.4663 
     35 CA         24.7821  -25.8726  -40.4416 C.3       5 UNK         0.0242 
     36 CB         25.0663  -24.5577  -41.1857 C.3       5 UNK        -0.1982 
     37 C          25.9745  -26.8410  -40.5838 C.2       5 UNK         0.5017 
     38 O          26.9436  -26.6980  -39.8372 O.2       5 UNK        -0.5012 
     39 N          25.8850  -27.7962  -41.5211 N.am      6 UNK        -0.4439 
     40 CA         26.8861  -28.8382  -41.7560 C.3       6 UNK         0.0297 
     41 CB         27.4550  -28.6831  -43.1764 C.3       6 UNK        -0.2006 
     42 C          26.3002  -30.2458  -41.5652 C.2       6 UNK         0.4892 
     43 O          26.9686  -31.0990  -40.9810 O.2       6 UNK        -0.5089 
     44 N          25.0811  -30.4764  -42.0720 N.am      7 UNK        -0.4243 
     45 CA         24.4359  -31.7910  -42.1178 C.3       7 UNK         0.0196 
     46 CB         23.4612  -31.8149  -43.3069 C.3       7 UNK        -0.2007 
     47 C          23.7122  -32.1862  -40.8179 C.2       7 UNK         0.5020 
     48 O          23.3807  -33.3616  -40.6644 O.2       7 UNK        -0.5147 
     49 N          23.4647  -31.2186  -39.9197 N.am      8 UNK        -0.4734 
     50 CA         22.7559  -31.3619  -38.6359 C.3       8 UNK         0.0238 
     51 CB         23.5430  -32.2721  -37.6679 C.3       8 UNK        -0.1912 
     52 C          21.2739  -31.7774  -38.7754 C.2       8 UNK         0.5038 
     53 O          20.7205  -32.3895  -37.8604 O.2       8 UNK        -0.5046 
     54 N          20.6541  -31.4189  -39.9072 N.am      9 UNK        -0.4200 
     55 CA         19.2498  -31.6991  -40.2579 C.3       9 UNK         0.0839 
     56 C          18.1885  -30.8577  -39.4855 C.2       9 UNK         0.5513 
     57 N          18.5654  -29.9645  -38.5792 N.am      9 UNK        -0.7519 
     58 O          16.9920  -31.0253  -39.7089 O.2       9 UNK        -0.4960 
     59 C59        19.0300  -31.6167  -41.7935 C.3       10 UNK        -0.0876 
     60 S60        20.0657  -32.8209  -42.6925 S.3       10 UNK        -0.2414 
     61 C61        18.9398  -33.4036  -43.9984 C.3       10 UNK         0.0169 
     62 H62        14.4602  -26.0732  -40.1198 H         1 UNK         0.0903 
     63 H63        15.6552  -27.3786  -40.0909 H         1 UNK         0.0903 
     64 H64        16.0920  -25.7664  -39.5154 H         1 UNK         0.0903 
     65 H65        16.4789  -27.8158  -42.1299 H         1 UNK         0.3096 
     66 H66        16.2598  -26.0131  -44.3689 H         1 UNK         0.1121 
     67 H67        17.4757  -27.7996  -45.6120 H         1 UNK         0.0849 
     68 H68        17.8822  -28.6247  -44.1203 H         1 UNK         0.0849 
     69 H69        15.0882  -30.7269  -46.2625 H         1 UNK         0.0865 
     70 H70        15.8267  -29.3628  -47.0626 H         1 UNK         0.0865 
     71 H71        16.6504  -31.9789  -44.4683 H         1 UNK         0.1346 
     72 H72        20.6894  -32.4338  -45.8357 H         1 UNK         0.1412 
     73 H73        18.1099  -29.5600  -47.6983 H         1 UNK         0.1426 
     74 H74        20.3185  -30.5494  -48.8236 H         1 UNK         0.0716 
     75 H75        21.4960  -31.2134  -47.7175 H         1 UNK         0.0716 
     76 H76        20.9115  -29.4764  -45.1047 H         1 UNK         0.0695 
     77 H77        22.5642  -29.7334  -45.6130 H         1 UNK         0.0695 
     78 H78        23.0419  -27.3122  -45.4658 H         1 UNK         0.0983 
     79 H79        20.2193  -26.9850  -45.5136 H         1 UNK         0.3095 
     80 H80        19.9904  -23.7402  -44.2011 H         1 UNK         0.0454 
     81 H81        20.9002  -23.1947  -46.4681 H         1 UNK         0.0851 
     82 H82        19.9167  -24.4652  -47.1803 H         1 UNK         0.0851 
     83 H83        19.1515  -23.0623  -46.4315 H         1 UNK         0.0851 
     84 H84        18.0451  -25.1532  -45.6247 H         1 UNK         0.2976 
     85 H85        20.7208  -27.2042  -42.8431 H         1 UNK         0.3116 
     86 H86        21.7423  -29.1269  -41.1130 H         1 UNK         0.0646 
     87 H87        20.4207  -27.9216  -39.3623 H         1 UNK         0.0847 
     88 H88        19.5044  -28.0985  -40.8504 H         1 UNK         0.0847 
     89 H89        20.2369  -26.5485  -40.4373 H         1 UNK         0.0847 
     90 H90        23.1121  -26.0036  -41.7470 H         1 UNK         0.3040 
     91 H91        24.6715  -25.6517  -39.3775 H         1 UNK         0.1015 
     92 H92        24.2730  -23.8282  -41.0205 H         1 UNK         0.0786 
     93 H93        25.1596  -24.7149  -42.2613 H         1 UNK         0.0786 
     94 H94        25.9970  -24.1055  -40.8397 H         1 UNK         0.0786 
     95 H95        25.0411  -27.8399  -42.0853 H         1 UNK         0.3172 
     96 H96        27.7141  -28.7383  -41.0512 H         1 UNK         0.0595 
     97 H97        28.1980  -29.4538  -43.3869 H         1 UNK         0.0839 
     98 H98        27.9460  -27.7177  -43.3012 H         1 UNK         0.0839 
     99 H99        26.6762  -28.7624  -43.9363 H         1 UNK         0.0839 
    100 H100       24.5887  -29.7222  -42.5491 H         1 UNK         0.2998 
    101 H101       25.2025  -32.5476  -42.3004 H         1 UNK         0.0822 
    102 H102       23.9653  -31.5649  -44.2406 H         1 UNK         0.0787 
    103 H103       23.0252  -32.8068  -43.4326 H         1 UNK         0.0787 
    104 H104       22.6389  -31.1117  -43.1709 H         1 UNK         0.0787 
    105 H105       23.7978  -30.2851  -40.1258 H         1 UNK         0.3055 
    106 H106       22.7350  -30.3669  -38.1892 H         1 UNK         0.1106 
    107 H107       23.5411  -33.3121  -37.9952 H         1 UNK         0.0828 
    108 H108       24.5804  -31.9504  -37.5763 H         1 UNK         0.0828 
    109 H109       23.1092  -32.2480  -36.6674 H         1 UNK         0.0828 
    110 H110       21.1996  -30.9565  -40.6163 H         1 UNK         0.2931 
    111 H111       19.0544  -32.7320  -39.9625 H         1 UNK         0.0412 
    112 H112       19.5381  -29.8488  -38.3483 H         1 UNK         0.3472 
    113 H113       17.8616  -29.4389  -38.0850 H         1 UNK         0.3472 
    114 H114       17.9840  -31.8076  -42.0409 H         1 UNK         0.0970 
    115 H115       19.2506  -30.6146  -42.1663 H         1 UNK         0.0970 
    116 H116       18.0037  -33.7421  -43.5512 H         1 UNK         0.0612 
    117 H117       19.3833  -34.2770  -44.4787 H         1 UNK         0.0612 
@<TRIPOS>BOND
     1    1    2 1    
     2    1   62 1    
     3    1   63 1    
     4    1   64 1    
     5    2    3 2    
     6    2    4 am   BACKBONE|DICT|INTERRES
     7    4    5 1    
     8    4   65 1    
     9    5    6 1    
    10    5   25 1    
    11    5   66 1    
    12    6    7 1    
    13    6   67 1    
    14    6   68 1    
    15    7    8 1    
    16    8    9 1    
    17    8   69 1    
    18    8   70 1    
    19    9   10 ar   
    20    9   14 ar   
    21   10   11 ar   
    22   10   71 1    
    23   11   12 ar   
    24   11   61 1    
    25   12   13 ar   
    26   12   72 1    
    27   13   14 ar   
    28   13   15 1    
    29   14   73 1    
    30   15   16 1    
    31   15   74 1    
    32   15   75 1    
    33   16   17 1    
    34   17   18 1    
    35   17   76 1    
    36   17   77 1    
    37   18   19 1    
    38   18   27 1    
    39   18   78 1    
    40   19   20 am   BACKBONE|DICT|INTERRES
    41   19   79 1    
    42   20   21 2    
    43   20   22 1    
    44   22   23 1    
    45   22   24 1    
    46   22   80 1    
    47   23   81 1    
    48   23   82 1    
    49   23   83 1    
    50   24   25 am   BACKBONE|DICT|INTERRES
    51   24   84 1    
    52   25   26 2    
    53   27   28 2    
    54   27   29 am   BACKBONE|DICT|INTERRES
    55   29   30 1    
    56   29   85 1    
    57   30   31 1    
    58   30   32 1    
    59   30   86 1    
    60   31   87 1    
    61   31   88 1    
    62   31   89 1    
    63   32   33 2    
    64   32   34 am   BACKBONE|DICT|INTERRES
    65   34   35 1    
    66   34   90 1    
    67   35   36 1    
    68   35   37 1    
    69   35   91 1    
    70   36   92 1    
    71   36   93 1    
    72   36   94 1    
    73   37   38 2    
    74   37   39 am   BACKBONE|DICT|INTERRES
    75   39   40 1    
    76   39   95 1    
    77   40   41 1    
    78   40   42 1    
    79   40   96 1    
    80   41   97 1    
    81   41   98 1    
    82   41   99 1    
    83   42   43 2    
    84   42   44 am   BACKBONE|DICT|INTERRES
    85   44   45 1    
    86   44  100 1    
    87   45   46 1    
    88   45   47 1    
    89   45  101 1    
    90   46  102 1    
    91   46  103 1    
    92   46  104 1    
    93   47   48 2    
    94   47   49 am   BACKBONE|DICT|INTERRES
    95   49   50 1    
    96   49  105 1    
    97   50   51 1    
    98   50   52 1    
    99   50  106 1    
   100   51  107 1    
   101   51  108 1    
   102   51  109 1    
   103   52   53 2    
   104   52   54 am   BACKBONE|DICT|INTERRES
   105   54   55 1    
   106   54  110 1    
   107   55   56 1    
   108   55   59 1    
   109   55  111 1    
   110   56   57 am   BACKBONE|DICT|INTERRES
   111   56   58 2    
   112   57  112 1    
   113   57  113 1    
   114   59   60 1    
   115   59  114 1    
   116   59  115 1    
   117   60   61 1    
   118   61  116 1    
   119   61  117 1    
@<TRIPOS>SUBSTRUCTURE
     1 UNK         1 GROUP             0       ****    0 ROOT    
