@<TRIPOS>MOLECULE
3R8
117   119    1
SMALL
USER_CHARGES


@<TRIPOS>ATOM
      1 CA         24.2419  -26.4020  -45.8549 C.3       0 UNK        -0.2013 
      2 C          22.7355  -26.2095  -45.9366 C.2       0 UNK         0.4866 
      3 O          22.2708  -25.0857  -46.1305 O.2       0 UNK        -0.5176 
      4 N          21.9819  -27.3076  -45.8030 N.am      1 UNK        -0.4884 
      5 CA         20.5168  -27.3768  -45.8632 C.3       1 UNK         0.0853 
      6 C6         19.9255  -26.9871  -47.2552 C.3       10 UNK        -0.0849 
      7 S7         20.3538  -28.2044  -48.5412 S.3       10 UNK        -0.2776 
      8 C8         18.8199  -29.1968  -48.6021 C.3       10 UNK         0.0316 
      9 C9         18.5131  -29.8658  -47.2666 C.ar      10 UNK        -0.0863 
     10 C10        19.4079  -30.8000  -46.7420 C.ar      10 UNK        -0.1009 
     11 C11        19.1617  -31.4041  -45.5093 C.ar      10 UNK        -0.0712 
     12 C12        17.9851  -31.1020  -44.8177 C.ar      10 UNK        -0.0894 
     13 C13        17.0707  -30.1661  -45.3237 C.ar      10 UNK        -0.0745 
     14 C14        17.3511  -29.5504  -46.5508 C.ar      10 UNK        -0.0972 
     15 C15        15.7578  -29.8114  -44.6099 C.3       10 UNK         0.0209 
     16 S16        15.4805  -30.6162  -42.9875 S.3       10 UNK        -0.2568 
     17 C17        15.9283  -29.3554  -41.7406 C.3       10 UNK        -0.0983 
     18 CA         17.4110  -28.8836  -41.8067 C.3       3 UNK         0.0876 
     19 N          17.6243  -27.8394  -42.8186 N.am      3 UNK        -0.4424 
     20 C          17.2109  -26.5616  -42.7597 C.2       2 UNK         0.4918 
     21 O          16.4785  -26.1200  -41.8739 O.2       2 UNK        -0.4875 
     22 CA         17.6916  -25.6012  -43.8677 C.3       2 UNK         0.0481 
     23 CB         18.2935  -24.3102  -43.2742 C.3       2 UNK        -0.1831 
     24 N          18.6049  -26.2020  -44.8507 N.am      2 UNK        -0.4498 
     25 C          19.8472  -26.6757  -44.6588 C.2       1 UNK         0.5027 
     26 O          20.4137  -26.6634  -43.5631 O.2       1 UNK        -0.4969 
     27 C          18.0188  -28.4574  -40.4433 C.2       3 UNK         0.5005 
     28 O          17.4309  -28.6983  -39.3868 O.2       3 UNK        -0.5279 
     29 N          19.1821  -27.7945  -40.5097 N.am      4 UNK        -0.4463 
     30 CA         19.8992  -27.1901  -39.3893 C.3       4 UNK         0.0283 
     31 CB         20.1222  -25.7024  -39.7275 C.3       4 UNK        -0.1875 
     32 C          21.2298  -27.9209  -39.1488 C.2       4 UNK         0.4949 
     33 O          21.4883  -28.9626  -39.7538 O.2       4 UNK        -0.5039 
     34 N          22.0718  -27.3567  -38.2720 N.am      5 UNK        -0.4663 
     35 CA         23.4245  -27.8507  -37.9815 C.3       5 UNK         0.0242 
     36 CB         23.9954  -27.0847  -36.7776 C.3       5 UNK        -0.1982 
     37 C          24.3884  -27.7651  -39.1814 C.2       5 UNK         0.5017 
     38 O          25.3780  -28.4980  -39.2112 O.2       5 UNK        -0.5012 
     39 N          24.0771  -26.8950  -40.1534 N.am      6 UNK        -0.4439 
     40 CA         24.7566  -26.7782  -41.4431 C.3       6 UNK         0.0297 
     41 CB         24.1393  -25.6132  -42.2336 C.3       6 UNK        -0.2006 
     42 C          24.6585  -28.0978  -42.2282 C.2       6 UNK         0.4892 
     43 O          23.5507  -28.5659  -42.4921 O.2       6 UNK        -0.5089 
     44 N          25.8232  -28.6891  -42.5302 N.am      7 UNK        -0.4243 
     45 CA         26.0132  -30.0220  -43.1239 C.3       7 UNK         0.0196 
     46 CB         25.4286  -30.0863  -44.5523 C.3       7 UNK        -0.2007 
     47 C          25.5233  -31.1883  -42.2347 C.2       7 UNK         0.5020 
     48 O          25.3908  -32.3064  -42.7336 O.2       7 UNK        -0.5147 
     49 N          25.2905  -30.9222  -40.9381 N.am      8 UNK        -0.4734 
     50 CA         24.8144  -31.8482  -39.9013 C.3       8 UNK         0.0238 
     51 CB         25.9004  -32.8947  -39.5709 C.3       8 UNK        -0.1912 
     52 C          23.4429  -32.4853  -40.2094 C.2       8 UNK         0.5038 
     53 O          23.2011  -33.6277  -39.8136 O.2       8 UNK        -0.5046 
     54 N          22.5731  -31.7454  -40.9093 N.am      9 UNK        -0.4200 
     55 CA         21.2191  -32.1825  -41.2793 C.3       9 UNK         0.0839 
     56 C          20.2497  -32.3218  -40.0733 C.2       9 UNK         0.5513 
     57 N          20.3271  -31.4529  -39.0757 N.am      9 UNK        -0.7519 
     58 O          19.4224  -33.2289  -40.0469 O.2       9 UNK        -0.4960 
     59 C59        20.6131  -31.2723  -42.3734 C.3       10 UNK        -0.0876 
     60 S60        21.4554  -31.4868  -43.9767 S.3       10 UNK        -0.2414 
     61 C61        20.1817  -32.3728  -44.9309 C.3       10 UNK         0.0169 
     62 H62        24.7330  -25.4738  -45.5645 H         1 UNK         0.0903 
     63 H63        24.5021  -27.1667  -45.1244 H         1 UNK         0.0903 
     64 H64        24.6352  -26.7030  -46.8255 H         1 UNK         0.0903 
     65 H65        22.4358  -28.1864  -45.5962 H         1 UNK         0.3096 
     66 H66        20.2887  -28.4281  -45.6917 H         1 UNK         0.1121 
     67 H67        20.2780  -26.0041  -47.5701 H         1 UNK         0.0849 
     68 H68        18.8383  -26.9173  -47.2477 H         1 UNK         0.0849 
     69 H69        17.9917  -28.5626  -48.9223 H         1 UNK         0.0865 
     70 H70        18.9271  -29.9660  -49.3683 H         1 UNK         0.0865 
     71 H71        20.3149  -31.0350  -47.2830 H         1 UNK         0.1346 
     72 H72        17.7908  -31.6083  -43.8849 H         1 UNK         0.1412 
     73 H73        16.6517  -28.8317  -46.9568 H         1 UNK         0.1426 
     74 H74        14.9370  -30.1123  -45.2624 H         1 UNK         0.0716 
     75 H75        15.6695  -28.7302  -44.5019 H         1 UNK         0.0716 
     76 H76        15.2370  -28.5151  -41.8149 H         1 UNK         0.0695 
     77 H77        15.7083  -29.8257  -40.7812 H         1 UNK         0.0695 
     78 H78        18.0137  -29.7377  -42.1127 H         1 UNK         0.0983 
     79 H79        18.2121  -28.0993  -43.5955 H         1 UNK         0.3095 
     80 H80        16.7983  -25.3200  -44.4270 H         1 UNK         0.0454 
     81 H81        19.1555  -24.5164  -42.6394 H         1 UNK         0.0851 
     82 H82        17.5621  -23.7823  -42.6611 H         1 UNK         0.0851 
     83 H83        18.6114  -23.6231  -44.0582 H         1 UNK         0.0851 
     84 H84        18.2190  -26.2794  -45.7810 H         1 UNK         0.2976 
     85 H85        19.6220  -27.6803  -41.4141 H         1 UNK         0.3116 
     86 H86        19.3107  -27.2607  -38.4726 H         1 UNK         0.0646 
     87 H87        20.7741  -25.5780  -40.5937 H         1 UNK         0.0847 
     88 H88        20.5686  -25.1582  -38.8950 H         1 UNK         0.0847 
     89 H89        19.1773  -25.2076  -39.9545 H         1 UNK         0.0847 
     90 H90        21.7842  -26.5167  -37.7901 H         1 UNK         0.3040 
     91 H91        23.3446  -28.9062  -37.7114 H         1 UNK         0.1015 
     92 H92        24.0830  -26.0168  -36.9821 H         1 UNK         0.0786 
     93 H93        24.9908  -27.4494  -36.5194 H         1 UNK         0.0786 
     94 H94        23.3689  -27.2087  -35.8940 H         1 UNK         0.0786 
     95 H95        23.2252  -26.3669  -40.0447 H         1 UNK         0.3172 
     96 H96        25.8053  -26.5450  -41.2471 H         1 UNK         0.0595 
     97 H97        24.6998  -25.4297  -43.1494 H         1 UNK         0.0839 
     98 H98        24.1552  -24.6866  -41.6597 H         1 UNK         0.0839 
     99 H99        23.1046  -25.8165  -42.5168 H         1 UNK         0.0839 
    100 H100       26.6743  -28.2236  -42.2444 H         1 UNK         0.2998 
    101 H101       27.0924  -30.1568  -43.2100 H         1 UNK         0.0822 
    102 H102       25.6946  -31.0234  -45.0426 H         1 UNK         0.0787 
    103 H103       24.3400  -30.0244  -44.5493 H         1 UNK         0.0787 
    104 H104       25.8130  -29.2795  -45.1757 H         1 UNK         0.0787 
    105 H105       25.4302  -29.9689  -40.6169 H         1 UNK         0.3055 
    106 H106       24.6604  -31.2444  -39.0055 H         1 UNK         0.1106 
    107 H107       25.6159  -33.4970  -38.7072 H         1 UNK         0.0828 
    108 H108       26.0684  -33.5793  -40.4028 H         1 UNK         0.0828 
    109 H109       26.8506  -32.4181  -39.3306 H         1 UNK         0.0828 
    110 H110       22.8345  -30.8100  -41.1914 H         1 UNK         0.2931 
    111 H111       21.3139  -33.1841  -41.7047 H         1 UNK         0.0412 
    112 H112       20.9291  -30.6396  -39.1710 H         1 UNK         0.3472 
    113 H113       19.7041  -31.5377  -38.2890 H         1 UNK         0.3472 
    114 H114       20.6778  -30.2223  -42.0816 H         1 UNK         0.0970 
    115 H115       19.5535  -31.4883  -42.4975 H         1 UNK         0.0970 
    116 H116       20.6691  -32.9201  -45.7391 H         1 UNK         0.0612 
    117 H117       19.6968  -33.1238  -44.3053 H         1 UNK         0.0612 
@<TRIPOS>BOND
     1    1    2 1    
     2    1   62 1    
     3    1   63 1    
     4    1   64 1    
     5    2    3 2    
     6    2    4 am   BACKBONE|DICT|INTERRES
     7    4    5 1    
     8    4   65 1    
     9    5    6 1    
    10    5   25 1    
    11    5   66 1    
    12    6    7 1    
    13    6   67 1    
    14    6   68 1    
    15    7    8 1    
    16    8    9 1    
    17    8   69 1    
    18    8   70 1    
    19    9   10 ar   
    20    9   14 ar   
    21   10   11 ar   
    22   10   71 1    
    23   11   12 ar   
    24   11   61 1    
    25   12   13 ar   
    26   12   72 1    
    27   13   14 ar   
    28   13   15 1    
    29   14   73 1    
    30   15   16 1    
    31   15   74 1    
    32   15   75 1    
    33   16   17 1    
    34   17   18 1    
    35   17   76 1    
    36   17   77 1    
    37   18   19 1    
    38   18   27 1    
    39   18   78 1    
    40   19   20 am   BACKBONE|DICT|INTERRES
    41   19   79 1    
    42   20   21 2    
    43   20   22 1    
    44   22   23 1    
    45   22   24 1    
    46   22   80 1    
    47   23   81 1    
    48   23   82 1    
    49   23   83 1    
    50   24   25 am   BACKBONE|DICT|INTERRES
    51   24   84 1    
    52   25   26 2    
    53   27   28 2    
    54   27   29 am   BACKBONE|DICT|INTERRES
    55   29   30 1    
    56   29   85 1    
    57   30   31 1    
    58   30   32 1    
    59   30   86 1    
    60   31   87 1    
    61   31   88 1    
    62   31   89 1    
    63   32   33 2    
    64   32   34 am   BACKBONE|DICT|INTERRES
    65   34   35 1    
    66   34   90 1    
    67   35   36 1    
    68   35   37 1    
    69   35   91 1    
    70   36   92 1    
    71   36   93 1    
    72   36   94 1    
    73   37   38 2    
    74   37   39 am   BACKBONE|DICT|INTERRES
    75   39   40 1    
    76   39   95 1    
    77   40   41 1    
    78   40   42 1    
    79   40   96 1    
    80   41   97 1    
    81   41   98 1    
    82   41   99 1    
    83   42   43 2    
    84   42   44 am   BACKBONE|DICT|INTERRES
    85   44   45 1    
    86   44  100 1    
    87   45   46 1    
    88   45   47 1    
    89   45  101 1    
    90   46  102 1    
    91   46  103 1    
    92   46  104 1    
    93   47   48 2    
    94   47   49 am   BACKBONE|DICT|INTERRES
    95   49   50 1    
    96   49  105 1    
    97   50   51 1    
    98   50   52 1    
    99   50  106 1    
   100   51  107 1    
   101   51  108 1    
   102   51  109 1    
   103   52   53 2    
   104   52   54 am   BACKBONE|DICT|INTERRES
   105   54   55 1    
   106   54  110 1    
   107   55   56 1    
   108   55   59 1    
   109   55  111 1    
   110   56   57 am   BACKBONE|DICT|INTERRES
   111   56   58 2    
   112   57  112 1    
   113   57  113 1    
   114   59   60 1    
   115   59  114 1    
   116   59  115 1    
   117   60   61 1    
   118   61  116 1    
   119   61  117 1    
@<TRIPOS>SUBSTRUCTURE
     1 UNK         1 GROUP             0       ****    0 ROOT    
