@<TRIPOS>MOLECULE
3R8
117   119    1
SMALL
USER_CHARGES


@<TRIPOS>ATOM
      1 CA         19.2974  -28.8520  -41.9468 C.3       0 UNK        -0.2013 
      2 C          18.2826  -27.7234  -41.9704 C.2       0 UNK         0.4866 
      3 O          18.1937  -26.9660  -41.0043 O.2       0 UNK        -0.5176 
      4 N          17.5038  -27.6217  -43.0545 N.am      1 UNK        -0.4884 
      5 CA         16.5115  -26.5681  -43.2768 C.3       1 UNK         0.0853 
      6 C6         15.3456  -27.0526  -44.1837 C.3       10 UNK        -0.0849 
      7 S7         15.8347  -27.7888  -45.7890 S.3       10 UNK        -0.2776 
      8 C8         15.8722  -29.5843  -45.4378 C.3       10 UNK         0.0316 
      9 C9         17.2632  -30.2185  -45.5170 C.ar      10 UNK        -0.0863 
     10 C10        17.5351  -31.3641  -44.7592 C.ar      10 UNK        -0.1009 
     11 C11        18.7614  -32.0270  -44.8785 C.ar      10 UNK        -0.0712 
     12 C12        19.7353  -31.5161  -45.7403 C.ar      10 UNK        -0.0894 
     13 C13        19.4901  -30.3687  -46.4972 C.ar      10 UNK        -0.0745 
     14 C14        18.2462  -29.7362  -46.3925 C.ar      10 UNK        -0.0972 
     15 C15        20.5564  -29.8728  -47.4709 C.3       10 UNK         0.0209 
     16 S16        20.7557  -28.0616  -47.4996 S.3       10 UNK        -0.2568 
     17 C17        21.4046  -27.7364  -45.8271 C.3       10 UNK        -0.0983 
     18 CA         21.3784  -26.2225  -45.5022 C.3       3 UNK         0.0876 
     19 N          20.0167  -25.6928  -45.5222 N.am      3 UNK        -0.4424 
     20 C          19.6752  -24.4112  -45.7054 C.2       2 UNK         0.4918 
     21 O          20.4898  -23.5043  -45.8801 O.2       2 UNK        -0.4875 
     22 CA         18.1689  -24.0875  -45.7194 C.3       2 UNK         0.0481 
     23 CB         17.6785  -23.8986  -47.1637 C.3       2 UNK        -0.1831 
     24 N          17.3665  -25.1321  -45.0773 N.am      2 UNK        -0.4498 
     25 C          17.2201  -25.2822  -43.7554 C.2       1 UNK         0.5027 
     26 O          17.6491  -24.4744  -42.9303 O.2       1 UNK        -0.4969 
     27 C          22.0326  -25.9133  -44.1439 C.2       3 UNK         0.5005 
     28 O          21.8688  -26.6801  -43.1923 O.2       3 UNK        -0.5279 
     29 N          22.7418  -24.7796  -44.0698 N.am      4 UNK        -0.4463 
     30 CA         23.5007  -24.3479  -42.8958 C.3       4 UNK         0.0283 
     31 CB         24.0367  -22.9267  -43.1313 C.3       4 UNK        -0.1875 
     32 C          24.6554  -25.3130  -42.5781 C.2       4 UNK         0.4949 
     33 O          25.3161  -25.7982  -43.4986 O.2       4 UNK        -0.5039 
     34 N          24.8704  -25.5564  -41.2785 N.am      5 UNK        -0.4663 
     35 CA         25.9002  -26.4233  -40.6853 C.3       5 UNK         0.0242 
     36 CB         27.3193  -25.9274  -41.0381 C.3       5 UNK        -0.1982 
     37 C          25.7278  -27.9322  -40.9613 C.2       5 UNK         0.5017 
     38 O          26.6153  -28.7078  -40.5996 O.2       5 UNK        -0.5012 
     39 N          24.5901  -28.3497  -41.5372 N.am      6 UNK        -0.4439 
     40 CA         24.2195  -29.7534  -41.7409 C.3       6 UNK         0.0297 
     41 CB         23.2069  -29.8537  -42.8975 C.3       6 UNK        -0.2006 
     42 C          23.6853  -30.3630  -40.4314 C.2       6 UNK         0.4892 
     43 O          22.4946  -30.6561  -40.3252 O.2       6 UNK        -0.5089 
     44 N          24.5780  -30.5158  -39.4431 N.am      7 UNK        -0.4243 
     45 CA         24.2802  -30.9597  -38.0754 C.3       7 UNK         0.0196 
     46 CB         25.5696  -30.9242  -37.2400 C.3       7 UNK        -0.2007 
     47 C          23.6151  -32.3439  -37.9811 C.2       7 UNK         0.5020 
     48 O          22.8025  -32.5632  -37.0826 O.2       7 UNK        -0.5147 
     49 N          23.9312  -33.2369  -38.9297 N.am      8 UNK        -0.4734 
     50 CA         23.3171  -34.5623  -39.0716 C.3       8 UNK         0.0238 
     51 CB         24.0861  -35.3610  -40.1367 C.3       8 UNK        -0.1912 
     52 C          21.8146  -34.5196  -39.4143 C.2       8 UNK         0.5038 
     53 O          21.1097  -35.4896  -39.1328 O.2       8 UNK        -0.5046 
     54 N          21.3574  -33.4062  -39.9997 N.am      9 UNK        -0.4200 
     55 CA         19.9509  -33.1229  -40.3134 C.3       9 UNK         0.0839 
     56 C          19.1930  -32.4163  -39.1513 C.2       9 UNK         0.5513 
     57 N          19.8134  -32.1361  -38.0099 N.am      9 UNK        -0.7519 
     58 O          18.0060  -32.1294  -39.2817 O.2       9 UNK        -0.4960 
     59 C59        19.8292  -32.3299  -41.6402 C.3       10 UNK        -0.0876 
     60 S60        20.4780  -33.2635  -43.0640 S.3       10 UNK        -0.2414 
     61 C61        19.0131  -33.3373  -44.1414 C.3       10 UNK         0.0169 
     62 H62        20.2948  -28.4507  -41.7718 H         1 UNK         0.0903 
     63 H63        19.0593  -29.5335  -41.1313 H         1 UNK         0.0903 
     64 H64        19.3131  -29.4147  -42.8807 H         1 UNK         0.0903 
     65 H65        17.6125  -28.2802  -43.8138 H         1 UNK         0.3096 
     66 H66        16.0635  -26.3144  -42.3127 H         1 UNK         0.1121 
     67 H67        14.6657  -26.2229  -44.3875 H         1 UNK         0.0849 
     68 H68        14.7406  -27.7748  -43.6338 H         1 UNK         0.0849 
     69 H69        15.4270  -29.7828  -44.4620 H         1 UNK         0.0865 
     70 H70        15.2327  -30.0848  -46.1661 H         1 UNK         0.0865 
     71 H71        16.7731  -31.7676  -44.1060 H         1 UNK         0.1346 
     72 H72        20.6798  -32.0342  -45.8387 H         1 UNK         0.1412 
     73 H73        18.0425  -28.8776  -47.0164 H         1 UNK         0.1426 
     74 H74        20.2893  -30.2082  -48.4736 H         1 UNK         0.0716 
     75 H75        21.5251  -30.3208  -47.2433 H         1 UNK         0.0716 
     76 H76        20.8204  -28.3002  -45.0969 H         1 UNK         0.0695 
     77 H77        22.4237  -28.1242  -45.7763 H         1 UNK         0.0695 
     78 H78        21.9577  -25.7136  -46.2764 H         1 UNK         0.0983 
     79 H79        19.2814  -26.3665  -45.3779 H         1 UNK         0.3095 
     80 H80        18.0240  -23.1469  -45.1839 H         1 UNK         0.0454 
     81 H81        16.6256  -23.6180  -47.1920 H         1 UNK         0.0851 
     82 H82        18.2368  -23.1067  -47.6649 H         1 UNK         0.0851 
     83 H83        17.8005  -24.8072  -47.7549 H         1 UNK         0.0851 
     84 H84        16.9572  -25.8380  -45.6785 H         1 UNK         0.2976 
     85 H85        22.7962  -24.1891  -44.8882 H         1 UNK         0.3116 
     86 H86        22.8131  -24.3230  -42.0475 H         1 UNK         0.0646 
     87 H87        24.7202  -22.8885  -43.9807 H         1 UNK         0.0847 
     88 H88        24.5830  -22.5657  -42.2588 H         1 UNK         0.0847 
     89 H89        23.2268  -22.2213  -43.3190 H         1 UNK         0.0847 
     90 H90        24.2559  -25.1085  -40.6110 H         1 UNK         0.3040 
     91 H91        25.7843  -26.3177  -39.6053 H         1 UNK         0.1015 
     92 H92        27.4374  -24.8673  -40.8136 H         1 UNK         0.0786 
     93 H93        27.5525  -26.0759  -42.0928 H         1 UNK         0.0786 
     94 H94        28.0759  -26.4633  -40.4635 H         1 UNK         0.0786 
     95 H95        23.8985  -27.6574  -41.7931 H         1 UNK         0.3172 
     96 H96        25.1064  -30.3201  -42.0323 H         1 UNK         0.0595 
     97 H97        23.6227  -29.4595  -43.8247 H         1 UNK         0.0839 
     98 H98        22.2910  -29.3041  -42.6841 H         1 UNK         0.0839 
     99 H99        22.9249  -30.8913  -43.0825 H         1 UNK         0.0839 
    100 H100       25.5248  -30.2007  -39.6260 H         1 UNK         0.2998 
    101 H101       23.5782  -30.2391  -37.6506 H         1 UNK         0.0822 
    102 H102       26.3272  -31.6003  -37.6386 H         1 UNK         0.0787 
    103 H103       25.9964  -29.9214  -37.2105 H         1 UNK         0.0787 
    104 H104       25.3757  -31.2226  -36.2086 H         1 UNK         0.0787 
    105 H105       24.6078  -32.9674  -39.6294 H         1 UNK         0.3055 
    106 H106       23.4132  -35.0801  -38.1145 H         1 UNK         0.1106 
    107 H107       25.1370  -35.4728  -39.8693 H         1 UNK         0.0828 
    108 H108       23.6734  -36.3652  -40.2445 H         1 UNK         0.0828 
    109 H109       24.0352  -34.8821  -41.1154 H         1 UNK         0.0828 
    110 H110       21.9936  -32.6316  -40.1521 H         1 UNK         0.2931 
    111 H111       19.4316  -34.0718  -40.4597 H         1 UNK         0.0412 
    112 H112       19.2989  -31.6843  -37.2706 H         1 UNK         0.3472 
    113 H113       20.7886  -32.3690  -37.8734 H         1 UNK         0.3472 
    114 H114       20.3867  -31.3968  -41.5769 H         1 UNK         0.0970 
    115 H115       18.7917  -32.0524  -41.8343 H         1 UNK         0.0970 
    116 H116       19.1682  -34.1248  -44.8801 H         1 UNK         0.0612 
    117 H117       18.1436  -33.6377  -43.5545 H         1 UNK         0.0612 
@<TRIPOS>BOND
     1    1    2 1    
     2    1   62 1    
     3    1   63 1    
     4    1   64 1    
     5    2    3 2    
     6    2    4 am   BACKBONE|DICT|INTERRES
     7    4    5 1    
     8    4   65 1    
     9    5    6 1    
    10    5   25 1    
    11    5   66 1    
    12    6    7 1    
    13    6   67 1    
    14    6   68 1    
    15    7    8 1    
    16    8    9 1    
    17    8   69 1    
    18    8   70 1    
    19    9   10 ar   
    20    9   14 ar   
    21   10   11 ar   
    22   10   71 1    
    23   11   12 ar   
    24   11   61 1    
    25   12   13 ar   
    26   12   72 1    
    27   13   14 ar   
    28   13   15 1    
    29   14   73 1    
    30   15   16 1    
    31   15   74 1    
    32   15   75 1    
    33   16   17 1    
    34   17   18 1    
    35   17   76 1    
    36   17   77 1    
    37   18   19 1    
    38   18   27 1    
    39   18   78 1    
    40   19   20 am   BACKBONE|DICT|INTERRES
    41   19   79 1    
    42   20   21 2    
    43   20   22 1    
    44   22   23 1    
    45   22   24 1    
    46   22   80 1    
    47   23   81 1    
    48   23   82 1    
    49   23   83 1    
    50   24   25 am   BACKBONE|DICT|INTERRES
    51   24   84 1    
    52   25   26 2    
    53   27   28 2    
    54   27   29 am   BACKBONE|DICT|INTERRES
    55   29   30 1    
    56   29   85 1    
    57   30   31 1    
    58   30   32 1    
    59   30   86 1    
    60   31   87 1    
    61   31   88 1    
    62   31   89 1    
    63   32   33 2    
    64   32   34 am   BACKBONE|DICT|INTERRES
    65   34   35 1    
    66   34   90 1    
    67   35   36 1    
    68   35   37 1    
    69   35   91 1    
    70   36   92 1    
    71   36   93 1    
    72   36   94 1    
    73   37   38 2    
    74   37   39 am   BACKBONE|DICT|INTERRES
    75   39   40 1    
    76   39   95 1    
    77   40   41 1    
    78   40   42 1    
    79   40   96 1    
    80   41   97 1    
    81   41   98 1    
    82   41   99 1    
    83   42   43 2    
    84   42   44 am   BACKBONE|DICT|INTERRES
    85   44   45 1    
    86   44  100 1    
    87   45   46 1    
    88   45   47 1    
    89   45  101 1    
    90   46  102 1    
    91   46  103 1    
    92   46  104 1    
    93   47   48 2    
    94   47   49 am   BACKBONE|DICT|INTERRES
    95   49   50 1    
    96   49  105 1    
    97   50   51 1    
    98   50   52 1    
    99   50  106 1    
   100   51  107 1    
   101   51  108 1    
   102   51  109 1    
   103   52   53 2    
   104   52   54 am   BACKBONE|DICT|INTERRES
   105   54   55 1    
   106   54  110 1    
   107   55   56 1    
   108   55   59 1    
   109   55  111 1    
   110   56   57 am   BACKBONE|DICT|INTERRES
   111   56   58 2    
   112   57  112 1    
   113   57  113 1    
   114   59   60 1    
   115   59  114 1    
   116   59  115 1    
   117   60   61 1    
   118   61  116 1    
   119   61  117 1    
@<TRIPOS>SUBSTRUCTURE
     1 UNK         1 GROUP             0       ****    0 ROOT    
