@<TRIPOS>MOLECULE
3R8
117   119    1
SMALL
USER_CHARGES


@<TRIPOS>ATOM
      1 CA         15.7129  -27.7236  -39.5220 C.3       0 UNK        -0.2013 
      2 C          15.7373  -27.1519  -40.9309 C.2       0 UNK         0.4866 
      3 O          15.3001  -26.0197  -41.1425 O.2       0 UNK        -0.5176 
      4 N          16.2327  -27.9333  -41.8980 N.am      1 UNK        -0.4884 
      5 CA         16.3776  -27.5323  -43.3024 C.3       1 UNK         0.0853 
      6 C6         16.6855  -28.7304  -44.2303 C.3       10 UNK        -0.0849 
      7 S7         15.4462  -30.0702  -44.1454 S.3       10 UNK        -0.2776 
      8 C8         15.7964  -31.0084  -45.6761 C.3       10 UNK         0.0316 
      9 C9         17.2906  -31.1988  -45.9041 C.ar      10 UNK        -0.0863 
     10 C10        18.0526  -31.9328  -44.9909 C.ar      10 UNK        -0.1009 
     11 C11        19.4429  -31.9956  -45.1182 C.ar      10 UNK        -0.0712 
     12 C12        20.0647  -31.3715  -46.2026 C.ar      10 UNK        -0.0894 
     13 C13        19.3109  -30.6487  -47.1313 C.ar      10 UNK        -0.0745 
     14 C14        17.9232  -30.5729  -46.9828 C.ar      10 UNK        -0.0972 
     15 C15        20.0009  -29.9031  -48.2635 C.3       10 UNK         0.0209 
     16 S16        20.0494  -28.1074  -47.9556 S.3       10 UNK        -0.2568 
     17 C17        21.0998  -28.0176  -46.4657 C.3       10 UNK        -0.0983 
     18 CA         21.1882  -26.5842  -45.8901 C.3       3 UNK         0.0876 
     19 N          19.8673  -26.0470  -45.5426 N.am      3 UNK        -0.4424 
     20 C          19.6173  -24.7877  -45.1572 C.2       2 UNK         0.4918 
     21 O          20.4761  -23.9068  -45.1041 O.2       2 UNK        -0.4875 
     22 CA         18.1689  -24.4352  -44.7624 C.3       2 UNK         0.0481 
     23 CB         17.5115  -23.5854  -45.8623 C.3       2 UNK        -0.1831 
     24 N          17.2968  -25.5779  -44.4595 N.am      2 UNK        -0.4498 
     25 C          17.4753  -26.4593  -43.4643 C.2       1 UNK         0.5027 
     26 O          18.4722  -26.4793  -42.7364 O.2       1 UNK        -0.4969 
     27 C          22.1747  -26.5415  -44.7024 C.2       3 UNK         0.5005 
     28 O          23.3544  -26.2601  -44.9205 O.2       3 UNK        -0.5279 
     29 N          21.6643  -26.7832  -43.4819 N.am      4 UNK        -0.4463 
     30 CA         22.3615  -26.7211  -42.1918 C.3       4 UNK         0.0283 
     31 CB         22.5510  -25.2449  -41.7749 C.3       4 UNK        -0.1875 
     32 C          23.6571  -27.5624  -42.1604 C.2       4 UNK         0.4949 
     33 O          23.5803  -28.7831  -42.3038 O.2       4 UNK        -0.5039 
     34 N          24.8088  -26.8971  -41.9774 N.am      5 UNK        -0.4663 
     35 CA         26.1692  -27.4489  -41.9170 C.3       5 UNK         0.0242 
     36 CB         26.5472  -28.1035  -43.2662 C.3       5 UNK        -0.1982 
     37 C          26.3894  -28.3818  -40.7086 C.2       5 UNK         0.5017 
     38 O          25.6005  -28.3662  -39.7608 O.2       5 UNK        -0.5012 
     39 N          27.4704  -29.1745  -40.7521 N.am      6 UNK        -0.4439 
     40 CA         27.8689  -30.1270  -39.7068 C.3       6 UNK         0.0297 
     41 CB         29.2571  -30.6953  -40.0433 C.3       6 UNK        -0.2006 
     42 C          26.8618  -31.2705  -39.4767 C.2       6 UNK         0.4892 
     43 O          26.8478  -31.8514  -38.3912 O.2       6 UNK        -0.5089 
     44 N          26.0308  -31.5587  -40.4878 N.am      7 UNK        -0.4243 
     45 CA         24.9158  -32.5040  -40.4167 C.3       7 UNK         0.0196 
     46 CB         24.4786  -32.8576  -41.8475 C.3       7 UNK        -0.2007 
     47 C          23.7167  -31.9765  -39.6051 C.2       7 UNK         0.5020 
     48 O          22.8580  -32.7768  -39.2319 O.2       7 UNK        -0.5147 
     49 N          23.6593  -30.6566  -39.3646 N.am      8 UNK        -0.4734 
     50 CA         22.6204  -29.8785  -38.6740 C.3       8 UNK         0.0238 
     51 CB         22.4363  -30.3347  -37.2134 C.3       8 UNK        -0.1912 
     52 C          21.2765  -29.8179  -39.4202 C.2       8 UNK         0.5038 
     53 O          20.7342  -28.7245  -39.5785 O.2       8 UNK        -0.5046 
     54 N          20.7778  -30.9764  -39.8684 N.am      9 UNK        -0.4200 
     55 CA         19.5847  -31.1577  -40.7112 C.3       9 UNK         0.0839 
     56 C          18.2451  -30.6819  -40.0722 C.2       9 UNK         0.5513 
     57 N          18.1399  -30.6071  -38.7510 N.am      9 UNK        -0.7519 
     58 O          17.2779  -30.4047  -40.7767 O.2       9 UNK        -0.4960 
     59 C59        19.7976  -30.6154  -42.1515 C.3       10 UNK        -0.0876 
     60 S60        21.1662  -31.4621  -43.0180 S.3       10 UNK        -0.2414 
     61 C61        20.2818  -32.6786  -44.0492 C.3       10 UNK         0.0169 
     62 H62        14.9787  -27.2034  -38.9071 H         1 UNK         0.0903 
     63 H63        15.4508  -28.7813  -39.5337 H         1 UNK         0.0903 
     64 H64        16.6914  -27.6141  -39.0548 H         1 UNK         0.0903 
     65 H65        16.5860  -28.8566  -41.6563 H         1 UNK         0.3096 
     66 H66        15.4263  -27.0946  -43.6138 H         1 UNK         0.1121 
     67 H67        16.7454  -28.3949  -45.2677 H         1 UNK         0.0849 
     68 H68        17.6627  -29.1526  -43.9901 H         1 UNK         0.0849 
     69 H69        15.3101  -31.9832  -45.6189 H         1 UNK         0.0865 
     70 H70        15.3403  -30.4874  -46.5194 H         1 UNK         0.0865 
     71 H71        17.5666  -32.3956  -44.1425 H         1 UNK         0.1346 
     72 H72        21.1419  -31.4086  -46.2927 H         1 UNK         0.1412 
     73 H73        17.3451  -29.9875  -47.6850 H         1 UNK         0.1426 
     74 H74        19.4686  -30.0889  -49.1974 H         1 UNK         0.0716 
     75 H75        21.0173  -30.2718  -48.4110 H         1 UNK         0.0716 
     76 H76        20.7061  -28.6973  -45.7082 H         1 UNK         0.0695 
     77 H77        22.0921  -28.3887  -46.7303 H         1 UNK         0.0695 
     78 H78        21.6019  -25.9354  -46.6655 H         1 UNK         0.0983 
     79 H79        19.0957  -26.6934  -45.6000 H         1 UNK         0.3095 
     80 H80        18.2283  -23.8277  -43.8571 H         1 UNK         0.0454 
     81 H81        18.1128  -22.7034  -46.0883 H         1 UNK         0.0851 
     82 H82        17.3962  -24.1459  -46.7909 H         1 UNK         0.0851 
     83 H83        16.5270  -23.2304  -45.5575 H         1 UNK         0.0851 
     84 H84        16.4622  -25.6535  -45.0240 H         1 UNK         0.2976 
     85 H85        20.6739  -26.9843  -43.4212 H         1 UNK         0.3116 
     86 H86        21.6892  -27.1785  -41.4663 H         1 UNK         0.0646 
     87 H87        23.0043  -25.1659  -40.7858 H         1 UNK         0.0847 
     88 H88        21.5904  -24.7319  -41.7228 H         1 UNK         0.0847 
     89 H89        23.1751  -24.6941  -42.4798 H         1 UNK         0.0847 
     90 H90        24.7456  -25.8971  -41.8511 H         1 UNK         0.3040 
     91 H91        26.8316  -26.5955  -41.7630 H         1 UNK         0.1015 
     92 H92        26.2927  -27.4518  -44.1026 H         1 UNK         0.0786 
     93 H93        26.0280  -29.0505  -43.4192 H         1 UNK         0.0786 
     94 H94        27.6177  -28.2982  -43.3351 H         1 UNK         0.0786 
     95 H95        28.0714  -29.1184  -41.5621 H         1 UNK         0.3172 
     96 H96        27.9459  -29.5726  -38.7690 H         1 UNK         0.0595 
     97 H97        29.5947  -31.3849  -39.2681 H         1 UNK         0.0839 
     98 H98        30.0046  -29.9051  -40.1162 H         1 UNK         0.0839 
     99 H99        29.2525  -31.2440  -40.9861 H         1 UNK         0.0839 
    100 H100       26.1207  -31.0289  -41.3424 H         1 UNK         0.2998 
    101 H101       25.2647  -33.4158  -39.9271 H         1 UNK         0.0822 
    102 H102       25.2902  -33.3204  -42.4090 H         1 UNK         0.0787 
    103 H103       23.6462  -33.5629  -41.8412 H         1 UNK         0.0787 
    104 H104       24.1503  -31.9734  -42.3962 H         1 UNK         0.0787 
    105 H105       24.4100  -30.0852  -39.7391 H         1 UNK         0.3055 
    106 H106       23.0010  -28.8556  -38.6483 H         1 UNK         0.1106 
    107 H107       22.0417  -31.3486  -37.1442 H         1 UNK         0.0828 
    108 H108       23.3801  -30.3050  -36.6689 H         1 UNK         0.0828 
    109 H109       21.7388  -29.6806  -36.6887 H         1 UNK         0.0828 
    110 H110       21.3217  -31.8132  -39.6758 H         1 UNK         0.2931 
    111 H111       19.4622  -32.2379  -40.7973 H         1 UNK         0.0412 
    112 H112       18.9251  -30.8386  -38.1641 H         1 UNK         0.3472 
    113 H113       17.2679  -30.3178  -38.3384 H         1 UNK         0.3472 
    114 H114       18.8878  -30.7224  -42.7386 H         1 UNK         0.0970 
    115 H115       20.0089  -29.5450  -42.1302 H         1 UNK         0.0970 
    116 H116       21.0107  -33.3360  -44.5251 H         1 UNK         0.0612 
    117 H117       19.6640  -33.3117  -43.4104 H         1 UNK         0.0612 
@<TRIPOS>BOND
     1    1    2 1    
     2    1   62 1    
     3    1   63 1    
     4    1   64 1    
     5    2    3 2    
     6    2    4 am   BACKBONE|DICT|INTERRES
     7    4    5 1    
     8    4   65 1    
     9    5    6 1    
    10    5   25 1    
    11    5   66 1    
    12    6    7 1    
    13    6   67 1    
    14    6   68 1    
    15    7    8 1    
    16    8    9 1    
    17    8   69 1    
    18    8   70 1    
    19    9   10 ar   
    20    9   14 ar   
    21   10   11 ar   
    22   10   71 1    
    23   11   12 ar   
    24   11   61 1    
    25   12   13 ar   
    26   12   72 1    
    27   13   14 ar   
    28   13   15 1    
    29   14   73 1    
    30   15   16 1    
    31   15   74 1    
    32   15   75 1    
    33   16   17 1    
    34   17   18 1    
    35   17   76 1    
    36   17   77 1    
    37   18   19 1    
    38   18   27 1    
    39   18   78 1    
    40   19   20 am   BACKBONE|DICT|INTERRES
    41   19   79 1    
    42   20   21 2    
    43   20   22 1    
    44   22   23 1    
    45   22   24 1    
    46   22   80 1    
    47   23   81 1    
    48   23   82 1    
    49   23   83 1    
    50   24   25 am   BACKBONE|DICT|INTERRES
    51   24   84 1    
    52   25   26 2    
    53   27   28 2    
    54   27   29 am   BACKBONE|DICT|INTERRES
    55   29   30 1    
    56   29   85 1    
    57   30   31 1    
    58   30   32 1    
    59   30   86 1    
    60   31   87 1    
    61   31   88 1    
    62   31   89 1    
    63   32   33 2    
    64   32   34 am   BACKBONE|DICT|INTERRES
    65   34   35 1    
    66   34   90 1    
    67   35   36 1    
    68   35   37 1    
    69   35   91 1    
    70   36   92 1    
    71   36   93 1    
    72   36   94 1    
    73   37   38 2    
    74   37   39 am   BACKBONE|DICT|INTERRES
    75   39   40 1    
    76   39   95 1    
    77   40   41 1    
    78   40   42 1    
    79   40   96 1    
    80   41   97 1    
    81   41   98 1    
    82   41   99 1    
    83   42   43 2    
    84   42   44 am   BACKBONE|DICT|INTERRES
    85   44   45 1    
    86   44  100 1    
    87   45   46 1    
    88   45   47 1    
    89   45  101 1    
    90   46  102 1    
    91   46  103 1    
    92   46  104 1    
    93   47   48 2    
    94   47   49 am   BACKBONE|DICT|INTERRES
    95   49   50 1    
    96   49  105 1    
    97   50   51 1    
    98   50   52 1    
    99   50  106 1    
   100   51  107 1    
   101   51  108 1    
   102   51  109 1    
   103   52   53 2    
   104   52   54 am   BACKBONE|DICT|INTERRES
   105   54   55 1    
   106   54  110 1    
   107   55   56 1    
   108   55   59 1    
   109   55  111 1    
   110   56   57 am   BACKBONE|DICT|INTERRES
   111   56   58 2    
   112   57  112 1    
   113   57  113 1    
   114   59   60 1    
   115   59  114 1    
   116   59  115 1    
   117   60   61 1    
   118   61  116 1    
   119   61  117 1    
@<TRIPOS>SUBSTRUCTURE
     1 UNK         1 GROUP             0       ****    0 ROOT    
