@<TRIPOS>MOLECULE
3R8
117   119    1
SMALL
USER_CHARGES


@<TRIPOS>ATOM
      1 CA         13.9238  -21.2656  -44.0062 C.3       0 UNK        -0.2013 
      2 C          14.7899  -22.4331  -44.4553 C.2       0 UNK         0.4866 
      3 O          15.4717  -22.3327  -45.4759 O.2       0 UNK        -0.5176 
      4 N          14.7634  -23.5431  -43.7067 N.am      1 UNK        -0.4884 
      5 CA         15.5848  -24.7323  -43.9508 C.3       1 UNK         0.0853 
      6 C6         15.0377  -25.9540  -43.1692 C.3       10 UNK        -0.0849 
      7 S7         15.6112  -27.5465  -43.8490 S.3       10 UNK        -0.2776 
      8 C8         16.9586  -27.9641  -42.6950 C.3       10 UNK         0.0316 
      9 C9         17.5990  -29.2937  -43.0605 C.ar      10 UNK        -0.0863 
     10 C10        17.3971  -30.4198  -42.2581 C.ar      10 UNK        -0.1009 
     11 C11        17.9648  -31.6486  -42.6053 C.ar      10 UNK        -0.0712 
     12 C12        18.7397  -31.7418  -43.7654 C.ar      10 UNK        -0.0894 
     13 C13        18.9734  -30.6209  -44.5677 C.ar      10 UNK        -0.0745 
     14 C14        18.3918  -29.3978  -44.2074 C.ar      10 UNK        -0.0972 
     15 C15        19.8239  -30.7964  -45.8276 C.3       10 UNK         0.0209 
     16 S16        20.4943  -29.2624  -46.5565 S.3       10 UNK        -0.2568 
     17 C17        21.7768  -28.8136  -45.3446 C.3       10 UNK        -0.0983 
     18 CA         22.1305  -27.3027  -45.3968 C.3       3 UNK         0.0876 
     19 N          21.1838  -26.4647  -44.6652 N.am      3 UNK        -0.4424 
     20 C          20.1088  -25.8453  -45.1544 C.2       2 UNK         0.4918 
     21 O          19.6732  -25.9891  -46.2983 O.2       2 UNK        -0.4875 
     22 CA         19.4262  -24.8536  -44.2073 C.3       2 UNK         0.0481 
     23 CB         19.9707  -23.4292  -44.4268 C.3       2 UNK        -0.1831 
     24 N          17.9860  -24.8967  -44.4366 N.am      2 UNK        -0.4498 
     25 C          17.0564  -24.4516  -43.5842 C.2       1 UNK         0.5027 
     26 O          17.3161  -23.8827  -42.5203 O.2       1 UNK        -0.4969 
     27 C          23.4975  -27.0423  -44.7439 C.2       3 UNK         0.5005 
     28 O          23.5451  -26.6706  -43.5668 O.2       3 UNK        -0.5279 
     29 N          24.5867  -27.2723  -45.4913 N.am      4 UNK        -0.4463 
     30 CA         25.9719  -27.0573  -45.0445 C.3       4 UNK         0.0283 
     31 CB         26.9304  -27.2995  -46.2217 C.3       4 UNK        -0.1875 
     32 C          26.3896  -27.9097  -43.8301 C.2       4 UNK         0.4949 
     33 O          27.2520  -27.4864  -43.0607 O.2       4 UNK        -0.5039 
     34 N          25.7569  -29.0792  -43.6700 N.am      5 UNK        -0.4663 
     35 CA         25.9241  -29.9743  -42.5228 C.3       5 UNK         0.0242 
     36 CB         25.4849  -31.3853  -42.9415 C.3       5 UNK        -0.1982 
     37 C          25.1453  -29.5255  -41.2706 C.2       5 UNK         0.5017 
     38 O          25.3771  -30.0852  -40.1980 O.2       5 UNK        -0.5012 
     39 N          24.2295  -28.5546  -41.4186 N.am      6 UNK        -0.4439 
     40 CA         23.3233  -28.0332  -40.3917 C.3       6 UNK         0.0297 
     41 CB         24.1076  -27.1780  -39.3696 C.3       6 UNK        -0.2006 
     42 C          22.4626  -29.1517  -39.7679 C.2       6 UNK         0.4892 
     43 O          21.8736  -29.9412  -40.5089 O.2       6 UNK        -0.5089 
     44 N          22.4194  -29.2161  -38.4301 N.am      7 UNK        -0.4243 
     45 CA         21.6452  -30.1778  -37.6384 C.3       7 UNK         0.0196 
     46 CB         21.7295  -29.7794  -36.1553 C.3       7 UNK        -0.2007 
     47 C          22.0474  -31.6543  -37.8228 C.2       7 UNK         0.5020 
     48 O          21.2749  -32.5297  -37.4320 O.2       7 UNK        -0.5147 
     49 N          23.2257  -31.9214  -38.4062 N.am      8 UNK        -0.4734 
     50 CA         23.6674  -33.2727  -38.7645 C.3       8 UNK         0.0238 
     51 CB         25.1933  -33.2847  -38.9495 C.3       8 UNK        -0.1912 
     52 C          22.9603  -33.8294  -40.0152 C.2       8 UNK         0.5038 
     53 O          23.0015  -35.0425  -40.2209 O.2       8 UNK        -0.5046 
     54 N          22.3390  -32.9543  -40.8215 N.am      9 UNK        -0.4200 
     55 CA         21.5361  -33.2617  -42.0203 C.3       9 UNK         0.0839 
     56 C          22.3086  -33.8543  -43.2374 C.2       9 UNK         0.5513 
     57 N          23.6006  -34.1397  -43.1490 N.am      9 UNK        -0.7519 
     58 O          21.7239  -34.0256  -44.3038 O.2       9 UNK        -0.4960 
     59 C59        20.2655  -34.0994  -41.6940 C.3       10 UNK        -0.0876 
     60 S60        19.0964  -33.2158  -40.6043 S.3       10 UNK        -0.2414 
     61 C61        17.7127  -32.8764  -41.7405 C.3       10 UNK         0.0169 
     62 H62        13.2088  -21.0068  -44.7867 H         1 UNK         0.0903 
     63 H63        13.3661  -21.4960  -43.0986 H         1 UNK         0.0903 
     64 H64        14.5450  -20.3921  -43.8097 H         1 UNK         0.0903 
     65 H65        14.2115  -23.5561  -42.8604 H         1 UNK         0.3096 
     66 H66        15.5257  -24.9508  -45.0200 H         1 UNK         0.1121 
     67 H67        13.9484  -25.9711  -43.2338 H         1 UNK         0.0849 
     68 H68        15.2656  -25.8869  -42.1031 H         1 UNK         0.0849 
     69 H69        16.5660  -27.9933  -41.6772 H         1 UNK         0.0865 
     70 H70        17.7214  -27.1855  -42.7083 H         1 UNK         0.0865 
     71 H71        16.7878  -30.3442  -41.3676 H         1 UNK         0.1346 
     72 H72        19.1661  -32.6934  -44.0496 H         1 UNK         0.1412 
     73 H73        18.5335  -28.5214  -44.8237 H         1 UNK         0.1426 
     74 H74        19.2117  -31.2903  -46.5831 H         1 UNK         0.0716 
     75 H75        20.6573  -31.4697  -45.6183 H         1 UNK         0.0716 
     76 H76        22.6459  -29.4335  -45.5736 H         1 UNK         0.0695 
     77 H77        21.4568  -29.0993  -44.3404 H         1 UNK         0.0695 
     78 H78        22.1875  -26.9638  -46.4339 H         1 UNK         0.0983 
     79 H79        21.5129  -26.2357  -43.7345 H         1 UNK         0.3095 
     80 H80        19.6256  -25.1616  -43.1783 H         1 UNK         0.0454 
     81 H81        19.5369  -22.7200  -43.7219 H         1 UNK         0.0851 
     82 H82        19.7588  -23.0702  -45.4347 H         1 UNK         0.0851 
     83 H83        21.0522  -23.3974  -44.2890 H         1 UNK         0.0851 
     84 H84        17.7122  -25.3704  -45.2890 H         1 UNK         0.2976 
     85 H85        24.4659  -27.5868  -46.4443 H         1 UNK         0.3116 
     86 H86        26.0590  -26.0104  -44.7460 H         1 UNK         0.0646 
     87 H87        27.9652  -27.1208  -45.9254 H         1 UNK         0.0847 
     88 H88        26.7160  -26.6300  -47.0549 H         1 UNK         0.0847 
     89 H89        26.8703  -28.3250  -46.5884 H         1 UNK         0.0847 
     90 H90        25.0781  -29.3520  -44.3654 H         1 UNK         0.3040 
     91 H91        26.9819  -30.0078  -42.2518 H         1 UNK         0.1015 
     92 H92        26.0547  -31.7429  -43.7993 H         1 UNK         0.0786 
     93 H93        24.4267  -31.4129  -43.2045 H         1 UNK         0.0786 
     94 H94        25.6402  -32.1004  -42.1335 H         1 UNK         0.0786 
     95 H95        24.1206  -28.1289  -42.3335 H         1 UNK         0.3172 
     96 H96        22.6272  -27.3720  -40.9094 H         1 UNK         0.0595 
     97 H97        24.8155  -27.7722  -38.7902 H         1 UNK         0.0839 
     98 H98        23.4373  -26.6750  -38.6714 H         1 UNK         0.0839 
     99 H99        24.6761  -26.3969  -39.8749 H         1 UNK         0.0839 
    100 H100       22.9592  -28.5406  -37.9089 H         1 UNK         0.2998 
    101 H101       20.6036  -30.0954  -37.9563 H         1 UNK         0.0822 
    102 H102       21.3515  -28.7699  -35.9918 H         1 UNK         0.0787 
    103 H103       21.1324  -30.4495  -35.5350 H         1 UNK         0.0787 
    104 H104       22.7547  -29.8204  -35.7850 H         1 UNK         0.0787 
    105 H105       23.8093  -31.1516  -38.7105 H         1 UNK         0.3055 
    106 H106       23.4258  -33.9443  -37.9372 H         1 UNK         0.1106 
    107 H107       25.5541  -34.2964  -39.1404 H         1 UNK         0.0828 
    108 H108       25.5061  -32.6667  -39.7899 H         1 UNK         0.0828 
    109 H109       25.7053  -32.9228  -38.0579 H         1 UNK         0.0828 
    110 H110       22.3535  -31.9726  -40.5667 H         1 UNK         0.2931 
    111 H111       21.2008  -32.2851  -42.3709 H         1 UNK         0.0412 
    112 H112       24.0782  -34.0559  -42.2669 H         1 UNK         0.3472 
    113 H113       24.0797  -34.5115  -43.9537 H         1 UNK         0.3472 
    114 H114       19.7431  -34.3952  -42.6043 H         1 UNK         0.0970 
    115 H115       20.5400  -35.0383  -41.2115 H         1 UNK         0.0970 
    116 H116       17.5154  -33.7473  -42.3670 H         1 UNK         0.0612 
    117 H117       16.8109  -32.7303  -41.1440 H         1 UNK         0.0612 
@<TRIPOS>BOND
     1    1    2 1    
     2    1   62 1    
     3    1   63 1    
     4    1   64 1    
     5    2    3 2    
     6    2    4 am   BACKBONE|DICT|INTERRES
     7    4    5 1    
     8    4   65 1    
     9    5    6 1    
    10    5   25 1    
    11    5   66 1    
    12    6    7 1    
    13    6   67 1    
    14    6   68 1    
    15    7    8 1    
    16    8    9 1    
    17    8   69 1    
    18    8   70 1    
    19    9   10 ar   
    20    9   14 ar   
    21   10   11 ar   
    22   10   71 1    
    23   11   12 ar   
    24   11   61 1    
    25   12   13 ar   
    26   12   72 1    
    27   13   14 ar   
    28   13   15 1    
    29   14   73 1    
    30   15   16 1    
    31   15   74 1    
    32   15   75 1    
    33   16   17 1    
    34   17   18 1    
    35   17   76 1    
    36   17   77 1    
    37   18   19 1    
    38   18   27 1    
    39   18   78 1    
    40   19   20 am   BACKBONE|DICT|INTERRES
    41   19   79 1    
    42   20   21 2    
    43   20   22 1    
    44   22   23 1    
    45   22   24 1    
    46   22   80 1    
    47   23   81 1    
    48   23   82 1    
    49   23   83 1    
    50   24   25 am   BACKBONE|DICT|INTERRES
    51   24   84 1    
    52   25   26 2    
    53   27   28 2    
    54   27   29 am   BACKBONE|DICT|INTERRES
    55   29   30 1    
    56   29   85 1    
    57   30   31 1    
    58   30   32 1    
    59   30   86 1    
    60   31   87 1    
    61   31   88 1    
    62   31   89 1    
    63   32   33 2    
    64   32   34 am   BACKBONE|DICT|INTERRES
    65   34   35 1    
    66   34   90 1    
    67   35   36 1    
    68   35   37 1    
    69   35   91 1    
    70   36   92 1    
    71   36   93 1    
    72   36   94 1    
    73   37   38 2    
    74   37   39 am   BACKBONE|DICT|INTERRES
    75   39   40 1    
    76   39   95 1    
    77   40   41 1    
    78   40   42 1    
    79   40   96 1    
    80   41   97 1    
    81   41   98 1    
    82   41   99 1    
    83   42   43 2    
    84   42   44 am   BACKBONE|DICT|INTERRES
    85   44   45 1    
    86   44  100 1    
    87   45   46 1    
    88   45   47 1    
    89   45  101 1    
    90   46  102 1    
    91   46  103 1    
    92   46  104 1    
    93   47   48 2    
    94   47   49 am   BACKBONE|DICT|INTERRES
    95   49   50 1    
    96   49  105 1    
    97   50   51 1    
    98   50   52 1    
    99   50  106 1    
   100   51  107 1    
   101   51  108 1    
   102   51  109 1    
   103   52   53 2    
   104   52   54 am   BACKBONE|DICT|INTERRES
   105   54   55 1    
   106   54  110 1    
   107   55   56 1    
   108   55   59 1    
   109   55  111 1    
   110   56   57 am   BACKBONE|DICT|INTERRES
   111   56   58 2    
   112   57  112 1    
   113   57  113 1    
   114   59   60 1    
   115   59  114 1    
   116   59  115 1    
   117   60   61 1    
   118   61  116 1    
   119   61  117 1    
@<TRIPOS>SUBSTRUCTURE
     1 UNK         1 GROUP             0       ****    0 ROOT    
