@<TRIPOS>MOLECULE
3R8
117   119    1
SMALL
USER_CHARGES


@<TRIPOS>ATOM
      1 CA         13.2572  -24.6023  -45.3695 C.3       0 UNK        -0.2013 
      2 C          14.6525  -24.0895  -45.7154 C.2       0 UNK         0.4866 
      3 O          14.7531  -23.0187  -46.3121 O.2       0 UNK        -0.5176 
      4 N          15.7593  -24.7817  -45.4021 N.am      1 UNK        -0.4884 
      5 CA         15.9518  -26.0343  -44.6475 C.3       1 UNK         0.0853 
      6 C6         15.0823  -27.2388  -45.1089 C.3       10 UNK        -0.0849 
      7 S7         15.2689  -27.6025  -46.8853 S.3       10 UNK        -0.2776 
      8 C8         15.7704  -29.3548  -46.8571 C.3       10 UNK         0.0316 
      9 C9         17.1746  -29.5729  -46.3035 C.ar      10 UNK        -0.0863 
     10 C10        17.3900  -30.4832  -45.2641 C.ar      10 UNK        -0.1009 
     11 C11        18.6827  -30.7682  -44.8093 C.ar      10 UNK        -0.0712 
     12 C12        19.7683  -30.1036  -45.3993 C.ar      10 UNK        -0.0894 
     13 C13        19.5654  -29.1788  -46.4293 C.ar      10 UNK        -0.0745 
     14 C14        18.2683  -28.9207  -46.8771 C.ar      10 UNK        -0.0972 
     15 C15        20.7439  -28.4890  -47.1011 C.3       10 UNK         0.0209 
     16 S16        21.0749  -26.8491  -46.3836 S.3       10 UNK        -0.2568 
     17 C17        21.9622  -27.2961  -44.8559 C.3       10 UNK        -0.0983 
     18 CA         21.2530  -26.7897  -43.5756 C.3       3 UNK         0.0876 
     19 N          19.8945  -27.3237  -43.4425 N.am      3 UNK        -0.4424 
     20 C          18.9518  -26.8003  -42.6514 C.2       2 UNK         0.4918 
     21 O          19.1133  -25.7791  -41.9788 O.2       2 UNK        -0.4875 
     22 CA         17.6062  -27.5422  -42.5961 C.3       2 UNK         0.0481 
     23 CB         17.6390  -28.6256  -41.5084 C.3       2 UNK        -0.1831 
     24 N          16.5277  -26.6021  -42.2785 N.am      2 UNK        -0.4498 
     25 C          15.8390  -25.8156  -43.1182 C.2       1 UNK         0.5027 
     26 O          15.0917  -24.9405  -42.6810 O.2       1 UNK        -0.4969 
     27 C          22.0708  -27.1384  -42.3164 C.2       3 UNK         0.5005 
     28 O          22.6744  -28.2100  -42.2682 O.2       3 UNK        -0.5279 
     29 N          22.0679  -26.2409  -41.3205 N.am      4 UNK        -0.4463 
     30 CA         22.6421  -26.4318  -39.9804 C.3       4 UNK         0.0283 
     31 CB         22.4403  -25.1468  -39.1613 C.3       4 UNK        -0.1875 
     32 C          24.1204  -26.8646  -39.9328 C.2       4 UNK         0.4949 
     33 O          24.5248  -27.5123  -38.9674 O.2       4 UNK        -0.5039 
     34 N          24.8970  -26.5003  -40.9606 N.am      5 UNK        -0.4663 
     35 CA         26.3043  -26.8731  -41.1063 C.3       5 UNK         0.0242 
     36 CB         27.0057  -25.8186  -41.9786 C.3       5 UNK        -0.1982 
     37 C          26.5139  -28.2781  -41.7013 C.2       5 UNK         0.5017 
     38 O          27.6140  -28.8166  -41.5658 O.2       5 UNK        -0.5012 
     39 N          25.4976  -28.8516  -42.3636 N.am      6 UNK        -0.4439 
     40 CA         25.5964  -30.1167  -43.0971 C.3       6 UNK         0.0297 
     41 CB         24.6423  -30.0892  -44.3056 C.3       6 UNK        -0.2006 
     42 C          25.3728  -31.3300  -42.1772 C.2       6 UNK         0.4892 
     43 O          24.4214  -32.0898  -42.3717 O.2       6 UNK        -0.5089 
     44 N          26.2761  -31.4886  -41.1987 N.am      7 UNK        -0.4243 
     45 CA         26.3835  -32.6014  -40.2485 C.3       7 UNK         0.0196 
     46 CB         26.9438  -33.8522  -40.9639 C.3       7 UNK        -0.2007 
     47 C          25.0674  -32.8544  -39.4885 C.2       7 UNK         0.5020 
     48 O          24.6914  -32.0349  -38.6501 O.2       7 UNK        -0.5147 
     49 N          24.3834  -33.9635  -39.8033 N.am      8 UNK        -0.4734 
     50 CA         23.1078  -34.3820  -39.2121 C.3       8 UNK         0.0238 
     51 CB         22.7410  -35.7768  -39.7449 C.3       8 UNK        -0.1912 
     52 C          21.9441  -33.3984  -39.4372 C.2       8 UNK         0.5038 
     53 O          21.0013  -33.4059  -38.6442 O.2       8 UNK        -0.5046 
     54 N          22.0294  -32.5690  -40.4856 N.am      9 UNK        -0.4200 
     55 CA         21.0977  -31.4595  -40.7379 C.3       9 UNK         0.0839 
     56 C          21.3110  -30.2328  -39.8033 C.2       9 UNK         0.5513 
     57 N          22.3852  -30.1544  -39.0250 N.am      9 UNK        -0.7519 
     58 O          20.4651  -29.3442  -39.7678 O.2       9 UNK        -0.4960 
     59 C59        21.1053  -31.0361  -42.2275 C.3       10 UNK        -0.0876 
     60 S60        20.5414  -32.3687  -43.3370 S.3       10 UNK        -0.2414 
     61 C61        18.8369  -31.8291  -43.7134 C.3       10 UNK         0.0169 
     62 H62        12.5338  -23.7891  -45.4249 H         1 UNK         0.0903 
     63 H63        12.9487  -25.3657  -46.0830 H         1 UNK         0.0903 
     64 H64        13.1994  -25.0112  -44.3637 H         1 UNK         0.0903 
     65 H65        16.6328  -24.3549  -45.6772 H         1 UNK         0.3096 
     66 H66        16.9897  -26.2855  -44.8648 H         1 UNK         0.1121 
     67 H67        14.0259  -27.0912  -44.8915 H         1 UNK         0.0849 
     68 H68        15.3517  -28.1318  -44.5435 H         1 UNK         0.0849 
     69 H69        15.0316  -29.9273  -46.2938 H         1 UNK         0.0865 
     70 H70        15.7381  -29.7412  -47.8767 H         1 UNK         0.0865 
     71 H71        16.5479  -31.0030  -44.8269 H         1 UNK         0.1346 
     72 H72        20.7791  -30.3157  -45.0829 H         1 UNK         0.1412 
     73 H73        18.1101  -28.2231  -47.6887 H         1 UNK         0.1426 
     74 H74        20.5342  -28.3653  -48.1647 H         1 UNK         0.0716 
     75 H75        21.6402  -29.1090  -47.0451 H         1 UNK         0.0716 
     76 H76        22.9655  -26.8713  -44.9244 H         1 UNK         0.0695 
     77 H77        22.0989  -28.3766  -44.8196 H         1 UNK         0.0695 
     78 H78        21.1899  -25.7014  -43.6483 H         1 UNK         0.0983 
     79 H79        19.6909  -28.1522  -43.9834 H         1 UNK         0.3095 
     80 H80        17.4286  -28.0359  -43.5512 H         1 UNK         0.0454 
     81 H81        17.8370  -28.2048  -40.5214 H         1 UNK         0.0851 
     82 H82        18.4209  -29.3567  -41.7055 H         1 UNK         0.0851 
     83 H83        16.6955  -29.1693  -41.4595 H         1 UNK         0.0851 
     84 H84        16.4239  -26.4074  -41.2934 H         1 UNK         0.2976 
     85 H85        21.4973  -25.4147  -41.4410 H         1 UNK         0.3116 
     86 H86        22.0662  -27.2244  -39.5020 H         1 UNK         0.0646 
     87 H87        22.9543  -24.2966  -39.6114 H         1 UNK         0.0847 
     88 H88        22.8289  -25.2631  -38.1484 H         1 UNK         0.0847 
     89 H89        21.3837  -24.8937  -39.0715 H         1 UNK         0.0847 
     90 H90        24.4812  -25.9653  -41.7090 H         1 UNK         0.3040 
     91 H91        26.7769  -26.8665  -40.1212 H         1 UNK         0.1015 
     92 H92        26.5809  -25.7761  -42.9824 H         1 UNK         0.0786 
     93 H93        28.0684  -26.0424  -42.0841 H         1 UNK         0.0786 
     94 H94        26.9293  -24.8243  -41.5379 H         1 UNK         0.0786 
     95 H95        24.5749  -28.4232  -42.3313 H         1 UNK         0.3172 
     96 H96        26.6062  -30.2128  -43.5021 H         1 UNK         0.0595 
     97 H97        24.7313  -31.0039  -44.8929 H         1 UNK         0.0839 
     98 H98        24.8664  -29.2545  -44.9697 H         1 UNK         0.0839 
     99 H99        23.6019  -30.0023  -44.0017 H         1 UNK         0.0839 
    100 H100       26.9772  -30.7606  -41.1091 H         1 UNK         0.2998 
    101 H101       27.1129  -32.2978  -39.4959 H         1 UNK         0.0822 
    102 H102       27.0536  -34.6887  -40.2720 H         1 UNK         0.0787 
    103 H103       26.3082  -34.1791  -41.7878 H         1 UNK         0.0787 
    104 H104       27.9327  -33.6520  -41.3769 H         1 UNK         0.0787 
    105 H105       24.7584  -34.5539  -40.5319 H         1 UNK         0.3055 
    106 H106       23.2562  -34.4540  -38.1323 H         1 UNK         0.1106 
    107 H107       21.8103  -36.1325  -39.3003 H         1 UNK         0.0828 
    108 H108       22.6032  -35.7715  -40.8269 H         1 UNK         0.0828 
    109 H109       23.5114  -36.5101  -39.5060 H         1 UNK         0.0828 
    110 H110       22.8452  -32.6119  -41.0872 H         1 UNK         0.2931 
    111 H111       20.0911  -31.8200  -40.5165 H         1 UNK         0.0412 
    112 H112       23.0922  -30.8810  -39.0256 H         1 UNK         0.3472 
    113 H113       22.5080  -29.3479  -38.4350 H         1 UNK         0.3472 
    114 H114       22.1147  -30.7548  -42.5205 H         1 UNK         0.0970 
    115 H115       20.4943  -30.1485  -42.3920 H         1 UNK         0.0970 
    116 H116       18.2828  -32.7171  -44.0212 H         1 UNK         0.0612 
    117 H117       18.3606  -31.4798  -42.7970 H         1 UNK         0.0612 
@<TRIPOS>BOND
     1    1    2 1    
     2    1   62 1    
     3    1   63 1    
     4    1   64 1    
     5    2    3 2    
     6    2    4 am   BACKBONE|DICT|INTERRES
     7    4    5 1    
     8    4   65 1    
     9    5    6 1    
    10    5   25 1    
    11    5   66 1    
    12    6    7 1    
    13    6   67 1    
    14    6   68 1    
    15    7    8 1    
    16    8    9 1    
    17    8   69 1    
    18    8   70 1    
    19    9   10 ar   
    20    9   14 ar   
    21   10   11 ar   
    22   10   71 1    
    23   11   12 ar   
    24   11   61 1    
    25   12   13 ar   
    26   12   72 1    
    27   13   14 ar   
    28   13   15 1    
    29   14   73 1    
    30   15   16 1    
    31   15   74 1    
    32   15   75 1    
    33   16   17 1    
    34   17   18 1    
    35   17   76 1    
    36   17   77 1    
    37   18   19 1    
    38   18   27 1    
    39   18   78 1    
    40   19   20 am   BACKBONE|DICT|INTERRES
    41   19   79 1    
    42   20   21 2    
    43   20   22 1    
    44   22   23 1    
    45   22   24 1    
    46   22   80 1    
    47   23   81 1    
    48   23   82 1    
    49   23   83 1    
    50   24   25 am   BACKBONE|DICT|INTERRES
    51   24   84 1    
    52   25   26 2    
    53   27   28 2    
    54   27   29 am   BACKBONE|DICT|INTERRES
    55   29   30 1    
    56   29   85 1    
    57   30   31 1    
    58   30   32 1    
    59   30   86 1    
    60   31   87 1    
    61   31   88 1    
    62   31   89 1    
    63   32   33 2    
    64   32   34 am   BACKBONE|DICT|INTERRES
    65   34   35 1    
    66   34   90 1    
    67   35   36 1    
    68   35   37 1    
    69   35   91 1    
    70   36   92 1    
    71   36   93 1    
    72   36   94 1    
    73   37   38 2    
    74   37   39 am   BACKBONE|DICT|INTERRES
    75   39   40 1    
    76   39   95 1    
    77   40   41 1    
    78   40   42 1    
    79   40   96 1    
    80   41   97 1    
    81   41   98 1    
    82   41   99 1    
    83   42   43 2    
    84   42   44 am   BACKBONE|DICT|INTERRES
    85   44   45 1    
    86   44  100 1    
    87   45   46 1    
    88   45   47 1    
    89   45  101 1    
    90   46  102 1    
    91   46  103 1    
    92   46  104 1    
    93   47   48 2    
    94   47   49 am   BACKBONE|DICT|INTERRES
    95   49   50 1    
    96   49  105 1    
    97   50   51 1    
    98   50   52 1    
    99   50  106 1    
   100   51  107 1    
   101   51  108 1    
   102   51  109 1    
   103   52   53 2    
   104   52   54 am   BACKBONE|DICT|INTERRES
   105   54   55 1    
   106   54  110 1    
   107   55   56 1    
   108   55   59 1    
   109   55  111 1    
   110   56   57 am   BACKBONE|DICT|INTERRES
   111   56   58 2    
   112   57  112 1    
   113   57  113 1    
   114   59   60 1    
   115   59  114 1    
   116   59  115 1    
   117   60   61 1    
   118   61  116 1    
   119   61  117 1    
@<TRIPOS>SUBSTRUCTURE
     1 UNK         1 GROUP             0       ****    0 ROOT    
