@<TRIPOS>MOLECULE
3R8
117   119    1
SMALL
USER_CHARGES


@<TRIPOS>ATOM
      1 CA         17.5120  -26.3294  -47.8320 C.3       0 UNK        -0.2013 
      2 C          17.4581  -24.9251  -47.2381 C.2       0 UNK         0.4866 
      3 O          17.3174  -23.9603  -47.9868 O.2       0 UNK        -0.5176 
      4 N          17.5722  -24.7459  -45.9154 N.am      1 UNK        -0.4884 
      5 CA         17.7666  -25.7744  -44.8832 C.3       1 UNK         0.0853 
      6 C6         16.5396  -25.9054  -43.9419 C.3       10 UNK        -0.0849 
      7 S7         15.1161  -26.6553  -44.8012 S.3       10 UNK        -0.2776 
      8 C8         14.7728  -28.1232  -43.7636 C.3       10 UNK         0.0316 
      9 C9         15.8889  -29.1700  -43.6911 C.ar      10 UNK        -0.0863 
     10 C10        15.9540  -30.0043  -42.5700 C.ar      10 UNK        -0.1009 
     11 C11        16.9177  -31.0141  -42.4758 C.ar      10 UNK        -0.0712 
     12 C12        17.8418  -31.1719  -43.5131 C.ar      10 UNK        -0.0894 
     13 C13        17.8113  -30.3331  -44.6297 C.ar      10 UNK        -0.0745 
     14 C14        16.8156  -29.3550  -44.7246 C.ar      10 UNK        -0.0972 
     15 C15        18.8194  -30.5117  -45.7576 C.3       10 UNK         0.0209 
     16 S16        19.8428  -29.0218  -45.9999 S.3       10 UNK        -0.2568 
     17 C17        21.5037  -29.4981  -45.3834 C.3       10 UNK        -0.0983 
     18 CA         22.0963  -28.5437  -44.3067 C.3       3 UNK         0.0876 
     19 N          21.7769  -27.1404  -44.5855 N.am      3 UNK        -0.4424 
     20 C          22.1320  -26.0603  -43.8777 C.2       2 UNK         0.4918 
     21 O          22.8910  -26.0887  -42.9102 O.2       2 UNK        -0.4875 
     22 CA         21.4447  -24.7375  -44.2676 C.3       2 UNK         0.0481 
     23 CB         22.2931  -23.9768  -45.2973 C.3       2 UNK        -0.1831 
     24 N          20.0809  -24.9237  -44.7876 N.am      2 UNK        -0.4498 
     25 C          19.0812  -25.5244  -44.1195 C.2       1 UNK         0.5027 
     26 O          19.1999  -25.9253  -42.9622 O.2       1 UNK        -0.4969 
     27 C          21.7309  -29.0028  -42.8795 C.2       3 UNK         0.5005 
     28 O          22.4490  -29.8371  -42.3253 O.2       3 UNK        -0.5279 
     29 N          20.6746  -28.4337  -42.2798 N.am      4 UNK        -0.4463 
     30 CA         20.2652  -28.7282  -40.9045 C.3       4 UNK         0.0283 
     31 CB         18.8586  -28.1675  -40.6466 C.3       4 UNK        -0.1875 
     32 C          21.2573  -28.2161  -39.8466 C.2       4 UNK         0.4949 
     33 O          21.3104  -28.7827  -38.7557 O.2       4 UNK        -0.5039 
     34 N          22.0286  -27.1748  -40.1844 N.am      5 UNK        -0.4663 
     35 CA         23.0780  -26.6124  -39.3366 C.3       5 UNK         0.0242 
     36 CB         23.0128  -25.0768  -39.3984 C.3       5 UNK        -0.1982 
     37 C          24.4625  -27.1146  -39.7679 C.2       5 UNK         0.5017 
     38 O          25.2335  -27.5627  -38.9199 O.2       5 UNK        -0.5012 
     39 N          24.7570  -27.0198  -41.0721 N.am      6 UNK        -0.4439 
     40 CA         26.0732  -27.2886  -41.6538 C.3       6 UNK         0.0297 
     41 CB         26.1306  -26.7008  -43.0735 C.3       6 UNK        -0.2006 
     42 C          26.4576  -28.7751  -41.6790 C.2       6 UNK         0.4892 
     43 O          27.6341  -29.0868  -41.4901 O.2       6 UNK        -0.5089 
     44 N          25.4789  -29.6551  -41.9268 N.am      7 UNK        -0.4243 
     45 CA         25.6810  -31.1007  -42.0597 C.3       7 UNK         0.0196 
     46 CB         25.2471  -31.5297  -43.4742 C.3       7 UNK        -0.2007 
     47 C          24.9186  -31.8995  -40.9916 C.2       7 UNK         0.5020 
     48 O          24.9586  -33.1291  -41.0360 O.2       7 UNK        -0.5147 
     49 N          24.2065  -31.2139  -40.0823 N.am      8 UNK        -0.4734 
     50 CA         23.2947  -31.7766  -39.0732 C.3       8 UNK         0.0238 
     51 CB         24.0899  -32.5097  -37.9718 C.3       8 UNK        -0.1912 
     52 C          22.1859  -32.6510  -39.6991 C.2       8 UNK         0.5038 
     53 O          21.8524  -33.7059  -39.1565 O.2       8 UNK        -0.5046 
     54 N          21.6776  -32.2036  -40.8552 N.am      9 UNK        -0.4200 
     55 CA         20.7502  -32.9052  -41.7562 C.3       9 UNK         0.0839 
     56 C          21.3896  -34.0710  -42.5696 C.2       9 UNK         0.5513 
     57 N          22.6908  -34.3228  -42.4951 N.am      9 UNK        -0.7519 
     58 O          20.6916  -34.7459  -43.3217 O.2       9 UNK        -0.4960 
     59 C59        19.4029  -33.3301  -41.0968 C.3       10 UNK        -0.0876 
     60 S60        18.4725  -31.9535  -40.3358 S.3       10 UNK        -0.2414 
     61 C61        16.9106  -31.9598  -41.2782 C.3       10 UNK         0.0169 
     62 H62        16.7416  -26.9665  -47.3994 H         1 UNK         0.0903 
     63 H63        17.3432  -26.2956  -48.9081 H         1 UNK         0.0903 
     64 H64        18.4873  -26.7849  -47.6649 H         1 UNK         0.0903 
     65 H65        17.5304  -23.7994  -45.5616 H         1 UNK         0.3096 
     66 H66        17.9288  -26.7492  -45.3392 H         1 UNK         0.1121 
     67 H67        16.2461  -24.9299  -43.5509 H         1 UNK         0.0849 
     68 H68        16.7699  -26.5208  -43.0700 H         1 UNK         0.0849 
     69 H69        14.5247  -27.7759  -42.7592 H         1 UNK         0.0865 
     70 H70        13.8753  -28.6101  -44.1472 H         1 UNK         0.0865 
     71 H71        15.2300  -29.8838  -41.7754 H         1 UNK         0.1346 
     72 H72        18.5711  -31.9641  -43.4632 H         1 UNK         0.1412 
     73 H73        16.7655  -28.7450  -45.6143 H         1 UNK         0.1426 
     74 H74        18.2740  -30.7084  -46.6816 H         1 UNK         0.0716 
     75 H75        19.4503  -31.3855  -45.5901 H         1 UNK         0.0716 
     76 H76        22.1639  -29.4919  -46.2519 H         1 UNK         0.0695 
     77 H77        21.5031  -30.5345  -45.0400 H         1 UNK         0.0695 
     78 H78        23.1840  -28.6228  -44.3647 H         1 UNK         0.0983 
     79 H79        21.1383  -27.0066  -45.3559 H         1 UNK         0.3095 
     80 H80        21.3731  -24.1276  -43.3648 H         1 UNK         0.0454 
     81 H81        23.3044  -23.8115  -44.9226 H         1 UNK         0.0851 
     82 H82        21.8681  -22.9972  -45.5165 H         1 UNK         0.0851 
     83 H83        22.3796  -24.5242  -46.2367 H         1 UNK         0.0851 
     84 H84        19.9023  -24.6082  -45.7308 H         1 UNK         0.2976 
     85 H85        20.1496  -27.7121  -42.7625 H         1 UNK         0.3116 
     86 H86        20.2205  -29.8112  -40.8055 H         1 UNK         0.0646 
     87 H87        18.1544  -28.4931  -41.4117 H         1 UNK         0.0847 
     88 H88        18.8533  -27.0775  -40.6254 H         1 UNK         0.0847 
     89 H89        18.4759  -28.5135  -39.6857 H         1 UNK         0.0847 
     90 H90        21.9381  -26.7881  -41.1159 H         1 UNK         0.3040 
     91 H91        22.9261  -26.9110  -38.2966 H         1 UNK         0.1015 
     92 H92        23.7939  -24.6278  -38.7831 H         1 UNK         0.0786 
     93 H93        22.0566  -24.7088  -39.0259 H         1 UNK         0.0786 
     94 H94        23.1406  -24.7013  -40.4145 H         1 UNK         0.0786 
     95 H95        24.0560  -26.6366  -41.7055 H         1 UNK         0.3172 
     96 H96        26.8163  -26.7678  -41.0460 H         1 UNK         0.0595 
     97 H97        25.4025  -27.1701  -43.7362 H         1 UNK         0.0839 
     98 H98        27.1166  -26.8463  -43.5172 H         1 UNK         0.0839 
     99 H99        25.9340  -25.6285  -43.0677 H         1 UNK         0.0839 
    100 H100       24.5302  -29.3256  -42.0611 H         1 UNK         0.2998 
    101 H101       26.7355  -31.3571  -41.9392 H         1 UNK         0.0822 
    102 H102       25.7908  -30.9767  -44.2401 H         1 UNK         0.0787 
    103 H103       25.4452  -32.5893  -43.6412 H         1 UNK         0.0787 
    104 H104       24.1810  -31.3707  -43.6385 H         1 UNK         0.0787 
    105 H105       24.2400  -30.2056  -40.1294 H         1 UNK         0.3055 
    106 H106       22.7859  -30.9345  -38.6033 H         1 UNK         0.1106 
    107 H107       24.5846  -33.4029  -38.3548 H         1 UNK         0.0828 
    108 H108       23.4331  -32.8254  -37.1603 H         1 UNK         0.0828 
    109 H109       24.8524  -31.8639  -37.5368 H         1 UNK         0.0828 
    110 H110       22.0533  -31.3392  -41.2369 H         1 UNK         0.2931 
    111 H111       20.5227  -32.1534  -42.5102 H         1 UNK         0.0412 
    112 H112       23.3031  -33.7983  -41.8798 H         1 UNK         0.3472 
    113 H113       23.0710  -35.0760  -43.0455 H         1 UNK         0.3472 
    114 H114       19.5753  -34.0862  -40.3301 H         1 UNK         0.0970 
    115 H115       18.7633  -33.8167  -41.8343 H         1 UNK         0.0970 
    116 H116       16.1149  -31.6790  -40.5866 H         1 UNK         0.0612 
    117 H117       16.6672  -32.9692  -41.6112 H         1 UNK         0.0612 
@<TRIPOS>BOND
     1    1    2 1    
     2    1   62 1    
     3    1   63 1    
     4    1   64 1    
     5    2    3 2    
     6    2    4 am   BACKBONE|DICT|INTERRES
     7    4    5 1    
     8    4   65 1    
     9    5    6 1    
    10    5   25 1    
    11    5   66 1    
    12    6    7 1    
    13    6   67 1    
    14    6   68 1    
    15    7    8 1    
    16    8    9 1    
    17    8   69 1    
    18    8   70 1    
    19    9   10 ar   
    20    9   14 ar   
    21   10   11 ar   
    22   10   71 1    
    23   11   12 ar   
    24   11   61 1    
    25   12   13 ar   
    26   12   72 1    
    27   13   14 ar   
    28   13   15 1    
    29   14   73 1    
    30   15   16 1    
    31   15   74 1    
    32   15   75 1    
    33   16   17 1    
    34   17   18 1    
    35   17   76 1    
    36   17   77 1    
    37   18   19 1    
    38   18   27 1    
    39   18   78 1    
    40   19   20 am   BACKBONE|DICT|INTERRES
    41   19   79 1    
    42   20   21 2    
    43   20   22 1    
    44   22   23 1    
    45   22   24 1    
    46   22   80 1    
    47   23   81 1    
    48   23   82 1    
    49   23   83 1    
    50   24   25 am   BACKBONE|DICT|INTERRES
    51   24   84 1    
    52   25   26 2    
    53   27   28 2    
    54   27   29 am   BACKBONE|DICT|INTERRES
    55   29   30 1    
    56   29   85 1    
    57   30   31 1    
    58   30   32 1    
    59   30   86 1    
    60   31   87 1    
    61   31   88 1    
    62   31   89 1    
    63   32   33 2    
    64   32   34 am   BACKBONE|DICT|INTERRES
    65   34   35 1    
    66   34   90 1    
    67   35   36 1    
    68   35   37 1    
    69   35   91 1    
    70   36   92 1    
    71   36   93 1    
    72   36   94 1    
    73   37   38 2    
    74   37   39 am   BACKBONE|DICT|INTERRES
    75   39   40 1    
    76   39   95 1    
    77   40   41 1    
    78   40   42 1    
    79   40   96 1    
    80   41   97 1    
    81   41   98 1    
    82   41   99 1    
    83   42   43 2    
    84   42   44 am   BACKBONE|DICT|INTERRES
    85   44   45 1    
    86   44  100 1    
    87   45   46 1    
    88   45   47 1    
    89   45  101 1    
    90   46  102 1    
    91   46  103 1    
    92   46  104 1    
    93   47   48 2    
    94   47   49 am   BACKBONE|DICT|INTERRES
    95   49   50 1    
    96   49  105 1    
    97   50   51 1    
    98   50   52 1    
    99   50  106 1    
   100   51  107 1    
   101   51  108 1    
   102   51  109 1    
   103   52   53 2    
   104   52   54 am   BACKBONE|DICT|INTERRES
   105   54   55 1    
   106   54  110 1    
   107   55   56 1    
   108   55   59 1    
   109   55  111 1    
   110   56   57 am   BACKBONE|DICT|INTERRES
   111   56   58 2    
   112   57  112 1    
   113   57  113 1    
   114   59   60 1    
   115   59  114 1    
   116   59  115 1    
   117   60   61 1    
   118   61  116 1    
   119   61  117 1    
@<TRIPOS>SUBSTRUCTURE
     1 UNK         1 GROUP             0       ****    0 ROOT    
