@<TRIPOS>MOLECULE
3R8
117   119    1
SMALL
USER_CHARGES


@<TRIPOS>ATOM
      1 CA         17.4311  -25.8245  -42.2818 C.3       0 UNK        -0.2013 
      2 C          17.0592  -25.0931  -43.5718 C.2       0 UNK         0.4866 
      3 O          16.2901  -24.1365  -43.4990 O.2       0 UNK        -0.5176 
      4 N          17.5401  -25.4700  -44.7685 N.am      1 UNK        -0.4884 
      5 CA         18.4754  -26.5465  -45.1426 C.3       1 UNK         0.0853 
      6 C6         17.9923  -27.9759  -44.7643 C.3       10 UNK        -0.0849 
      7 S7         16.3368  -28.3889  -45.4120 S.3       10 UNK        -0.2776 
      8 C8         15.4785  -28.9893  -43.9187 C.3       10 UNK         0.0316 
      9 C9         16.1749  -30.1968  -43.3033 C.ar      10 UNK        -0.0863 
     10 C10        16.0582  -31.4548  -43.9007 C.ar      10 UNK        -0.1009 
     11 C11        16.6971  -32.5684  -43.3469 C.ar      10 UNK        -0.0712 
     12 C12        17.4749  -32.4124  -42.1945 C.ar      10 UNK        -0.0894 
     13 C13        17.5925  -31.1589  -41.5819 C.ar      10 UNK        -0.0745 
     14 C14        16.9292  -30.0597  -42.1336 C.ar      10 UNK        -0.0972 
     15 C15        18.4182  -30.9971  -40.3133 C.3       10 UNK         0.0209 
     16 S16        20.1092  -30.4298  -40.6744 S.3       10 UNK        -0.2568 
     17 C17        19.9793  -28.6306  -40.4295 C.3       10 UNK        -0.0983 
     18 CA         21.2601  -27.8835  -40.8873 C.3       3 UNK         0.0876 
     19 N          21.3896  -27.8570  -42.3533 N.am      3 UNK        -0.4424 
     20 C          22.4189  -27.3403  -43.0453 C.2       2 UNK         0.4918 
     21 O          23.4482  -26.9284  -42.5151 O.2       2 UNK        -0.4875 
     22 CA         22.2491  -27.1472  -44.5660 C.3       2 UNK         0.0481 
     23 CB         23.0952  -28.1556  -45.3582 C.3       2 UNK        -0.1831 
     24 N          20.8539  -27.1733  -45.0264 N.am      2 UNK        -0.4498 
     25 C          19.9184  -26.2854  -44.6524 C.2       1 UNK         0.5027 
     26 O          20.1662  -25.3340  -43.9072 O.2       1 UNK        -0.4969 
     27 C          21.3309  -26.4845  -40.2290 C.2       3 UNK         0.5005 
     28 O          21.6354  -26.4049  -39.0385 O.2       3 UNK        -0.5279 
     29 N          21.0802  -25.4074  -40.9917 N.am      4 UNK        -0.4463 
     30 CA         21.2716  -24.0258  -40.5436 C.3       4 UNK         0.0283 
     31 CB         20.5462  -23.0766  -41.5109 C.3       4 UNK        -0.1875 
     32 C          22.7552  -23.6233  -40.4120 C.2       4 UNK         0.4949 
     33 O          23.0468  -22.6762  -39.6811 O.2       4 UNK        -0.5039 
     34 N          23.6556  -24.3215  -41.1197 N.am      5 UNK        -0.4663 
     35 CA         25.0953  -24.0473  -41.1488 C.3       5 UNK         0.0242 
     36 CB         25.5298  -23.8157  -42.6061 C.3       5 UNK        -0.1982 
     37 C          25.9182  -25.1851  -40.5247 C.2       5 UNK         0.5017 
     38 O          26.8799  -24.9054  -39.8080 O.2       5 UNK        -0.5012 
     39 N          25.5441  -26.4366  -40.8129 N.am      6 UNK        -0.4439 
     40 CA         26.2237  -27.6522  -40.3792 C.3       6 UNK         0.0297 
     41 CB         27.3420  -28.0149  -41.3795 C.3       6 UNK        -0.2006 
     42 C          25.1723  -28.7533  -40.1852 C.2       6 UNK         0.4892 
     43 O          24.5226  -28.7765  -39.1397 O.2       6 UNK        -0.5089 
     44 N          25.0111  -29.6345  -41.1793 N.am      7 UNK        -0.4243 
     45 CA         24.0513  -30.7349  -41.1855 C.3       7 UNK         0.0196 
     46 CB         24.7002  -31.9945  -40.5858 C.3       7 UNK        -0.2007 
     47 C          23.5847  -30.9912  -42.6222 C.2       7 UNK         0.5020 
     48 O          24.3357  -30.7327  -43.5649 O.2       7 UNK        -0.5147 
     49 N          22.3658  -31.5183  -42.7505 N.am      8 UNK        -0.4734 
     50 CA         21.7331  -31.9669  -43.9876 C.3       8 UNK         0.0238 
     51 CB         20.5579  -31.0303  -44.3267 C.3       8 UNK        -0.1912 
     52 C          21.2043  -33.3900  -43.7708 C.2       8 UNK         0.5038 
     53 O          21.0192  -33.8058  -42.6230 O.2       8 UNK        -0.5046 
     54 N          20.9356  -34.0900  -44.8795 N.am      9 UNK        -0.4200 
     55 CA         20.3201  -35.4295  -44.9211 C.3       9 UNK         0.0839 
     56 C          21.2019  -36.5764  -44.3368 C.2       9 UNK         0.5513 
     57 N          22.5085  -36.3937  -44.1880 N.am      9 UNK        -0.7519 
     58 O          20.7051  -37.6618  -44.0456 O.2       9 UNK        -0.4960 
     59 C59        18.8673  -35.4405  -44.3606 C.3       10 UNK        -0.0876 
     60 S60        17.7635  -34.2882  -45.2488 S.3       10 UNK        -0.2414 
     61 C61        16.5077  -33.9396  -43.9798 C.3       10 UNK         0.0169 
     62 H62        16.6649  -26.5552  -42.0300 H         1 UNK         0.0903 
     63 H63        18.3903  -26.3295  -42.3252 H         1 UNK         0.0903 
     64 H64        17.4887  -25.1118  -41.4594 H         1 UNK         0.0903 
     65 H65        17.2472  -24.9123  -45.5584 H         1 UNK         0.3096 
     66 H66        18.5317  -26.5022  -46.2318 H         1 UNK         0.1121 
     67 H67        18.0147  -28.1163  -43.6864 H         1 UNK         0.0849 
     68 H68        18.6653  -28.7336  -45.1678 H         1 UNK         0.0849 
     69 H69        15.3936  -28.1771  -43.1965 H         1 UNK         0.0865 
     70 H70        14.4559  -29.2601  -44.1858 H         1 UNK         0.0865 
     71 H71        15.4657  -31.5669  -44.7987 H         1 UNK         0.1346 
     72 H72        17.9812  -33.2683  -41.7692 H         1 UNK         0.1412 
     73 H73        17.0080  -29.0946  -41.6541 H         1 UNK         0.1426 
     74 H74        18.4796  -31.9515  -39.7882 H         1 UNK         0.0716 
     75 H75        17.9280  -30.3065  -39.6254 H         1 UNK         0.0716 
     76 H76        19.7933  -28.4747  -39.3646 H         1 UNK         0.0695 
     77 H77        19.1015  -28.2500  -40.9518 H         1 UNK         0.0695 
     78 H78        22.1258  -28.4213  -40.5005 H         1 UNK         0.0983 
     79 H79        20.5957  -28.2020  -42.8678 H         1 UNK         0.3095 
     80 H80        22.6399  -26.1528  -44.7920 H         1 UNK         0.0454 
     81 H81        23.0818  -27.9329  -46.4250 H         1 UNK         0.0851 
     82 H82        22.7557  -29.1811  -45.2264 H         1 UNK         0.0851 
     83 H83        24.1378  -28.1231  -45.0380 H         1 UNK         0.0851 
     84 H84        20.6054  -27.9115  -45.6695 H         1 UNK         0.2976 
     85 H85        20.8210  -25.5308  -41.9653 H         1 UNK         0.3116 
     86 H86        20.8125  -23.9190  -39.5584 H         1 UNK         0.0646 
     87 H87        20.9752  -23.1164  -42.5130 H         1 UNK         0.0847 
     88 H88        20.6159  -22.0431  -41.1689 H         1 UNK         0.0847 
     89 H89        19.4867  -23.3201  -41.5910 H         1 UNK         0.0847 
     90 H90        23.3356  -25.1102  -41.6695 H         1 UNK         0.3040 
     91 H91        25.3226  -23.1403  -40.5840 H         1 UNK         0.1015 
     92 H92        25.3242  -24.6839  -43.2340 H         1 UNK         0.0786 
     93 H93        26.6000  -23.6130  -42.6679 H         1 UNK         0.0786 
     94 H94        25.0129  -22.9597  -43.0403 H         1 UNK         0.0786 
     95 H95        24.7323  -26.5860  -41.4127 H         1 UNK         0.3172 
     96 H96        26.6810  -27.4849  -39.4016 H         1 UNK         0.0595 
     97 H97        26.9724  -28.0867  -42.4031 H         1 UNK         0.0839 
     98 H98        27.8075  -28.9676  -41.1227 H         1 UNK         0.0839 
     99 H99        28.1308  -27.2624  -41.3702 H         1 UNK         0.0839 
    100 H100       25.5277  -29.5219  -42.0424 H         1 UNK         0.2998 
    101 H101       23.1807  -30.4670  -40.5848 H         1 UNK         0.0822 
    102 H102       24.0024  -32.8331  -40.5867 H         1 UNK         0.0787 
    103 H103       25.5814  -32.3005  -41.1511 H         1 UNK         0.0787 
    104 H104       25.0056  -31.8291  -39.5525 H         1 UNK         0.0787 
    105 H105       21.8396  -31.7508  -41.9162 H         1 UNK         0.3055 
    106 H106       22.4575  -31.9724  -44.8053 H         1 UNK         0.1106 
    107 H107       20.1472  -31.2557  -45.3115 H         1 UNK         0.0828 
    108 H108       19.7417  -31.1304  -43.6104 H         1 UNK         0.0828 
    109 H109       20.8597  -29.9872  -44.3288 H         1 UNK         0.0828 
    110 H110       21.1200  -33.6720  -45.7798 H         1 UNK         0.2931 
    111 H111       20.2476  -35.6704  -45.9823 H         1 UNK         0.0412 
    112 H112       22.9331  -35.5135  -44.4321 H         1 UNK         0.3472 
    113 H113       23.0736  -37.1433  -43.8205 H         1 UNK         0.3472 
    114 H114       18.4285  -36.4361  -44.4465 H         1 UNK         0.0970 
    115 H115       18.8696  -35.2031  -43.2958 H         1 UNK         0.0970 
    116 H116       16.5126  -34.7162  -43.2135 H         1 UNK         0.0612 
    117 H117       15.5236  -33.9928  -44.4481 H         1 UNK         0.0612 
@<TRIPOS>BOND
     1    1    2 1    
     2    1   62 1    
     3    1   63 1    
     4    1   64 1    
     5    2    3 2    
     6    2    4 am   BACKBONE|DICT|INTERRES
     7    4    5 1    
     8    4   65 1    
     9    5    6 1    
    10    5   25 1    
    11    5   66 1    
    12    6    7 1    
    13    6   67 1    
    14    6   68 1    
    15    7    8 1    
    16    8    9 1    
    17    8   69 1    
    18    8   70 1    
    19    9   10 ar   
    20    9   14 ar   
    21   10   11 ar   
    22   10   71 1    
    23   11   12 ar   
    24   11   61 1    
    25   12   13 ar   
    26   12   72 1    
    27   13   14 ar   
    28   13   15 1    
    29   14   73 1    
    30   15   16 1    
    31   15   74 1    
    32   15   75 1    
    33   16   17 1    
    34   17   18 1    
    35   17   76 1    
    36   17   77 1    
    37   18   19 1    
    38   18   27 1    
    39   18   78 1    
    40   19   20 am   BACKBONE|DICT|INTERRES
    41   19   79 1    
    42   20   21 2    
    43   20   22 1    
    44   22   23 1    
    45   22   24 1    
    46   22   80 1    
    47   23   81 1    
    48   23   82 1    
    49   23   83 1    
    50   24   25 am   BACKBONE|DICT|INTERRES
    51   24   84 1    
    52   25   26 2    
    53   27   28 2    
    54   27   29 am   BACKBONE|DICT|INTERRES
    55   29   30 1    
    56   29   85 1    
    57   30   31 1    
    58   30   32 1    
    59   30   86 1    
    60   31   87 1    
    61   31   88 1    
    62   31   89 1    
    63   32   33 2    
    64   32   34 am   BACKBONE|DICT|INTERRES
    65   34   35 1    
    66   34   90 1    
    67   35   36 1    
    68   35   37 1    
    69   35   91 1    
    70   36   92 1    
    71   36   93 1    
    72   36   94 1    
    73   37   38 2    
    74   37   39 am   BACKBONE|DICT|INTERRES
    75   39   40 1    
    76   39   95 1    
    77   40   41 1    
    78   40   42 1    
    79   40   96 1    
    80   41   97 1    
    81   41   98 1    
    82   41   99 1    
    83   42   43 2    
    84   42   44 am   BACKBONE|DICT|INTERRES
    85   44   45 1    
    86   44  100 1    
    87   45   46 1    
    88   45   47 1    
    89   45  101 1    
    90   46  102 1    
    91   46  103 1    
    92   46  104 1    
    93   47   48 2    
    94   47   49 am   BACKBONE|DICT|INTERRES
    95   49   50 1    
    96   49  105 1    
    97   50   51 1    
    98   50   52 1    
    99   50  106 1    
   100   51  107 1    
   101   51  108 1    
   102   51  109 1    
   103   52   53 2    
   104   52   54 am   BACKBONE|DICT|INTERRES
   105   54   55 1    
   106   54  110 1    
   107   55   56 1    
   108   55   59 1    
   109   55  111 1    
   110   56   57 am   BACKBONE|DICT|INTERRES
   111   56   58 2    
   112   57  112 1    
   113   57  113 1    
   114   59   60 1    
   115   59  114 1    
   116   59  115 1    
   117   60   61 1    
   118   61  116 1    
   119   61  117 1    
@<TRIPOS>SUBSTRUCTURE
     1 UNK         1 GROUP             0       ****    0 ROOT    
