@<TRIPOS>MOLECULE
3R8
117   119    1
SMALL
USER_CHARGES


@<TRIPOS>ATOM
      1 CA         14.7969  -24.0013  -46.0098 C.3       0 UNK        -0.2013 
      2 C          15.8538  -25.0211  -45.6136 C.2       0 UNK         0.4866 
      3 O          16.6870  -25.3901  -46.4393 O.2       0 UNK        -0.5176 
      4 N          15.8345  -25.4675  -44.3511 N.am      1 UNK        -0.4884 
      5 CA         16.7466  -26.4783  -43.7922 C.3       1 UNK         0.0853 
      6 C6         16.0675  -27.2902  -42.6592 C.3       10 UNK        -0.0849 
      7 S7         14.8034  -28.4099  -43.3537 S.3       10 UNK        -0.2776 
      8 C8         15.5247  -30.0651  -43.0657 C.3       10 UNK         0.0316 
      9 C9         16.9831  -30.1939  -43.5005 C.ar      10 UNK        -0.0863 
     10 C10        17.9481  -30.6092  -42.5766 C.ar      10 UNK        -0.1009 
     11 C11        19.2902  -30.7545  -42.9533 C.ar      10 UNK        -0.0712 
     12 C12        19.6585  -30.4531  -44.2667 C.ar      10 UNK        -0.0894 
     13 C13        18.7135  -30.0049  -45.1933 C.ar      10 UNK        -0.0745 
     14 C14        17.3720  -29.9033  -44.8122 C.ar      10 UNK        -0.0972 
     15 C15        19.1439  -29.6225  -46.6023 C.3       10 UNK         0.0209 
     16 S16        19.5496  -27.8492  -46.7281 S.3       10 UNK        -0.2568 
     17 C17        21.2296  -27.7961  -46.0154 C.3       10 UNK        -0.0983 
     18 CA         21.7129  -26.3513  -45.7261 C.3       3 UNK         0.0876 
     19 N          20.8644  -25.6988  -44.7311 N.am      3 UNK        -0.4424 
     20 C          20.6947  -24.3833  -44.5658 C.2       2 UNK         0.4918 
     21 O          21.2921  -23.5365  -45.2330 O.2       2 UNK        -0.4875 
     22 CA         19.6770  -23.9551  -43.4841 C.3       2 UNK         0.0481 
     23 CB         19.4545  -22.4320  -43.4534 C.3       2 UNK        -0.1831 
     24 N          18.3809  -24.6219  -43.6542 N.am      2 UNK        -0.4498 
     25 C          18.1132  -25.9031  -43.3614 C.2       1 UNK         0.5027 
     26 O          18.9327  -26.6408  -42.8116 O.2       1 UNK        -0.4969 
     27 C          23.1765  -26.3176  -45.2468 C.2       3 UNK         0.5005 
     28 O          23.6763  -27.3197  -44.7342 O.2       3 UNK        -0.5279 
     29 N          23.8177  -25.1444  -45.3639 N.am      4 UNK        -0.4463 
     30 CA         25.2140  -24.8564  -44.9970 C.3       4 UNK         0.0283 
     31 CB         26.1808  -25.5780  -45.9600 C.3       4 UNK        -0.1875 
     32 C          25.5430  -25.1362  -43.5138 C.2       4 UNK         0.4949 
     33 O          26.6771  -25.4958  -43.1945 O.2       4 UNK        -0.5039 
     34 N          24.5362  -24.9701  -42.6418 N.am      5 UNK        -0.4663 
     35 CA         24.5544  -25.2341  -41.1969 C.3       5 UNK         0.0242 
     36 CB         25.4917  -24.2447  -40.4702 C.3       5 UNK        -0.1982 
     37 C          24.8372  -26.7093  -40.8358 C.2       5 UNK         0.5017 
     38 O          25.4596  -26.9749  -39.8050 O.2       5 UNK        -0.5012 
     39 N          24.3702  -27.6433  -41.6794 N.am      6 UNK        -0.4439 
     40 CA         24.4314  -29.0905  -41.4504 C.3       6 UNK         0.0297 
     41 CB         23.9312  -29.8213  -42.7083 C.3       6 UNK        -0.2006 
     42 C          23.6277  -29.5436  -40.2159 C.2       6 UNK         0.4892 
     43 O          22.6610  -28.8854  -39.8239 O.2       6 UNK        -0.5089 
     44 N          24.0324  -30.6868  -39.6569 N.am      7 UNK        -0.4243 
     45 CA         23.3984  -31.3725  -38.5345 C.3       7 UNK         0.0196 
     46 CB         24.0688  -30.9338  -37.2199 C.3       7 UNK        -0.2007 
     47 C          23.5296  -32.8850  -38.7584 C.2       7 UNK         0.5020 
     48 O          24.2899  -33.3029  -39.6365 O.2       7 UNK        -0.5147 
     49 N          22.7851  -33.6720  -37.9653 N.am      8 UNK        -0.4734 
     50 CA         22.6220  -35.1325  -38.0801 C.3       8 UNK         0.0238 
     51 CB         23.9420  -35.8709  -37.7679 C.3       8 UNK        -0.1912 
     52 C          22.0161  -35.5166  -39.4449 C.2       8 UNK         0.5038 
     53 O          22.5776  -36.3334  -40.1774 O.2       8 UNK        -0.5046 
     54 N          20.9020  -34.8497  -39.7686 N.am      9 UNK        -0.4200 
     55 CA         20.2610  -34.8119  -41.0917 C.3       9 UNK         0.0839 
     56 C          19.6360  -36.1500  -41.5827 C.2       9 UNK         0.5513 
     57 N          19.4509  -37.1512  -40.7311 N.am      9 UNK        -0.7519 
     58 O          19.3120  -36.2783  -42.7603 O.2       9 UNK        -0.4960 
     59 C59        19.2243  -33.6577  -41.1852 C.3       10 UNK        -0.0876 
     60 S60        19.8158  -32.0730  -40.4868 S.3       10 UNK        -0.2414 
     61 C61        20.3846  -31.1871  -41.9755 C.3       10 UNK         0.0169 
     62 H62        14.1891  -24.3906  -46.8261 H         1 UNK         0.0903 
     63 H63        14.1332  -23.7569  -45.1805 H         1 UNK         0.0903 
     64 H64        15.2711  -23.0803  -46.3477 H         1 UNK         0.0903 
     65 H65        15.1251  -25.1259  -43.7173 H         1 UNK         0.3096 
     66 H66        16.9995  -27.1765  -44.5927 H         1 UNK         0.1121 
     67 H67        15.5970  -26.6249  -41.9335 H         1 UNK         0.0849 
     68 H68        16.7888  -27.8805  -42.0916 H         1 UNK         0.0849 
     69 H69        15.4172  -30.3037  -42.0063 H         1 UNK         0.0865 
     70 H70        14.9307  -30.8053  -43.6033 H         1 UNK         0.0865 
     71 H71        17.6461  -30.8167  -41.5601 H         1 UNK         0.1346 
     72 H72        20.6937  -30.5492  -44.5641 H         1 UNK         0.1412 
     73 H73        16.6332  -29.5692  -45.5282 H         1 UNK         0.1426 
     74 H74        18.3400  -29.8476  -47.3048 H         1 UNK         0.0716 
     75 H75        20.0000  -30.2201  -46.9195 H         1 UNK         0.0716 
     76 H76        21.9050  -28.2948  -46.7132 H         1 UNK         0.0695 
     77 H77        21.2459  -28.3809  -45.0961 H         1 UNK         0.0695 
     78 H78        21.6587  -25.7880  -46.6606 H         1 UNK         0.0983 
     79 H79        20.3360  -26.3157  -44.1217 H         1 UNK         0.3095 
     80 H80        20.0941  -24.2475  -42.5183 H         1 UNK         0.0454 
     81 H81        19.0478  -22.0639  -44.3961 H         1 UNK         0.0851 
     82 H82        20.3914  -21.9029  -43.2739 H         1 UNK         0.0851 
     83 H83        18.7677  -22.1465  -42.6565 H         1 UNK         0.0851 
     84 H84        17.6671  -24.1031  -44.1451 H         1 UNK         0.2976 
     85 H85        23.2801  -24.3564  -45.7094 H         1 UNK         0.3116 
     86 H86        25.3502  -23.7831  -45.1364 H         1 UNK         0.0646 
     87 H87        25.9475  -25.3530  -47.0006 H         1 UNK         0.0847 
     88 H88        26.1422  -26.6606  -45.8336 H         1 UNK         0.0847 
     89 H89        27.2121  -25.2676  -45.7879 H         1 UNK         0.0847 
     90 H90        23.6487  -24.6712  -43.0207 H         1 UNK         0.3040 
     91 H91        23.5412  -25.0391  -40.8414 H         1 UNK         0.1015 
     92 H92        26.5388  -24.4215  -40.7179 H         1 UNK         0.0786 
     93 H93        25.3952  -24.3367  -39.3876 H         1 UNK         0.0786 
     94 H94        25.2555  -23.2121  -40.7270 H         1 UNK         0.0786 
     95 H95        23.9243  -27.3438  -42.5384 H         1 UNK         0.3172 
     96 H96        25.4790  -29.3540  -41.2900 H         1 UNK         0.0595 
     97 H97        23.9290  -30.9030  -42.5673 H         1 UNK         0.0839 
     98 H98        24.5704  -29.6118  -43.5662 H         1 UNK         0.0839 
     99 H99        22.9152  -29.5232  -42.9700 H         1 UNK         0.0839 
    100 H100       24.7735  -31.2219  -40.0935 H         1 UNK         0.2998 
    101 H101       22.3343  -31.1264  -38.5076 H         1 UNK         0.0822 
    102 H102       23.9843  -29.8566  -37.0744 H         1 UNK         0.0787 
    103 H103       23.6030  -31.4128  -36.3580 H         1 UNK         0.0787 
    104 H104       25.1288  -31.1905  -37.2045 H         1 UNK         0.0787 
    105 H105       22.2089  -33.2249  -37.2646 H         1 UNK         0.3055 
    106 H106       21.8938  -35.4326  -37.3243 H         1 UNK         0.1106 
    107 H107       24.7127  -35.6665  -38.5116 H         1 UNK         0.0828 
    108 H108       23.7881  -36.9505  -37.7525 H         1 UNK         0.0828 
    109 H109       24.3345  -35.5859  -36.7919 H         1 UNK         0.0828 
    110 H110       20.5295  -34.1924  -39.0997 H         1 UNK         0.2931 
    111 H111       21.0581  -34.5809  -41.8012 H         1 UNK         0.0412 
    112 H112       19.0473  -38.0142  -41.0606 H         1 UNK         0.3472 
    113 H113       19.7235  -37.0562  -39.7658 H         1 UNK         0.3472 
    114 H114       18.3146  -33.9265  -40.6449 H         1 UNK         0.0970 
    115 H115       18.9186  -33.5056  -42.2221 H         1 UNK         0.0970 
    116 H116       20.9151  -30.2923  -41.6492 H         1 UNK         0.0612 
    117 H117       21.1172  -31.8137  -42.4869 H         1 UNK         0.0612 
@<TRIPOS>BOND
     1    1    2 1    
     2    1   62 1    
     3    1   63 1    
     4    1   64 1    
     5    2    3 2    
     6    2    4 am   BACKBONE|DICT|INTERRES
     7    4    5 1    
     8    4   65 1    
     9    5    6 1    
    10    5   25 1    
    11    5   66 1    
    12    6    7 1    
    13    6   67 1    
    14    6   68 1    
    15    7    8 1    
    16    8    9 1    
    17    8   69 1    
    18    8   70 1    
    19    9   10 ar   
    20    9   14 ar   
    21   10   11 ar   
    22   10   71 1    
    23   11   12 ar   
    24   11   61 1    
    25   12   13 ar   
    26   12   72 1    
    27   13   14 ar   
    28   13   15 1    
    29   14   73 1    
    30   15   16 1    
    31   15   74 1    
    32   15   75 1    
    33   16   17 1    
    34   17   18 1    
    35   17   76 1    
    36   17   77 1    
    37   18   19 1    
    38   18   27 1    
    39   18   78 1    
    40   19   20 am   BACKBONE|DICT|INTERRES
    41   19   79 1    
    42   20   21 2    
    43   20   22 1    
    44   22   23 1    
    45   22   24 1    
    46   22   80 1    
    47   23   81 1    
    48   23   82 1    
    49   23   83 1    
    50   24   25 am   BACKBONE|DICT|INTERRES
    51   24   84 1    
    52   25   26 2    
    53   27   28 2    
    54   27   29 am   BACKBONE|DICT|INTERRES
    55   29   30 1    
    56   29   85 1    
    57   30   31 1    
    58   30   32 1    
    59   30   86 1    
    60   31   87 1    
    61   31   88 1    
    62   31   89 1    
    63   32   33 2    
    64   32   34 am   BACKBONE|DICT|INTERRES
    65   34   35 1    
    66   34   90 1    
    67   35   36 1    
    68   35   37 1    
    69   35   91 1    
    70   36   92 1    
    71   36   93 1    
    72   36   94 1    
    73   37   38 2    
    74   37   39 am   BACKBONE|DICT|INTERRES
    75   39   40 1    
    76   39   95 1    
    77   40   41 1    
    78   40   42 1    
    79   40   96 1    
    80   41   97 1    
    81   41   98 1    
    82   41   99 1    
    83   42   43 2    
    84   42   44 am   BACKBONE|DICT|INTERRES
    85   44   45 1    
    86   44  100 1    
    87   45   46 1    
    88   45   47 1    
    89   45  101 1    
    90   46  102 1    
    91   46  103 1    
    92   46  104 1    
    93   47   48 2    
    94   47   49 am   BACKBONE|DICT|INTERRES
    95   49   50 1    
    96   49  105 1    
    97   50   51 1    
    98   50   52 1    
    99   50  106 1    
   100   51  107 1    
   101   51  108 1    
   102   51  109 1    
   103   52   53 2    
   104   52   54 am   BACKBONE|DICT|INTERRES
   105   54   55 1    
   106   54  110 1    
   107   55   56 1    
   108   55   59 1    
   109   55  111 1    
   110   56   57 am   BACKBONE|DICT|INTERRES
   111   56   58 2    
   112   57  112 1    
   113   57  113 1    
   114   59   60 1    
   115   59  114 1    
   116   59  115 1    
   117   60   61 1    
   118   61  116 1    
   119   61  117 1    
@<TRIPOS>SUBSTRUCTURE
     1 UNK         1 GROUP             0       ****    0 ROOT    
