@<TRIPOS>MOLECULE
3R8
117   119    1
SMALL
USER_CHARGES


@<TRIPOS>ATOM
      1 CA         18.8493  -25.6807  -50.6929 C.3       0 UNK        -0.2013 
      2 C          19.5998  -25.5917  -49.3724 C.2       0 UNK         0.4866 
      3 O          20.5488  -24.8149  -49.2584 O.2       0 UNK        -0.5176 
      4 N          19.1893  -26.3873  -48.3772 N.am      1 UNK        -0.4884 
      5 CA         19.7627  -26.4014  -47.0279 C.3       1 UNK         0.0853 
      6 C6         19.2658  -27.6151  -46.2063 C.3       10 UNK        -0.0849 
      7 S7         19.8445  -29.2176  -46.8446 S.3       10 UNK        -0.2776 
      8 C8         18.5911  -30.3408  -46.1402 C.3       10 UNK         0.0316 
      9 C9         18.4618  -30.1962  -44.6276 C.ar      10 UNK        -0.0863 
     10 C10        19.4336  -30.7405  -43.7828 C.ar      10 UNK        -0.1009 
     11 C11        19.3136  -30.6174  -42.3958 C.ar      10 UNK        -0.0712 
     12 C12        18.2083  -29.9576  -41.8546 C.ar      10 UNK        -0.0894 
     13 C13        17.2392  -29.3866  -42.6868 C.ar      10 UNK        -0.0745 
     14 C14        17.3695  -29.5182  -44.0732 C.ar      10 UNK        -0.0972 
     15 C15        16.0433  -28.6429  -42.0980 C.3       10 UNK         0.0209 
     16 S16        16.4925  -27.4982  -40.7471 S.3       10 UNK        -0.2568 
     17 C17        17.3230  -26.1313  -41.6312 C.3       10 UNK        -0.0983 
     18 CA         18.8475  -26.3425  -41.8677 C.3       3 UNK         0.0876 
     19 N          19.3607  -25.5617  -42.9963 N.am      3 UNK        -0.4424 
     20 C          19.3623  -24.2273  -43.1355 C.2       2 UNK         0.4918 
     21 O          18.8216  -23.4475  -42.3507 O.2       2 UNK        -0.4875 
     22 CA         20.1109  -23.6622  -44.3616 C.3       2 UNK         0.0481 
     23 CB         21.4586  -23.0632  -43.9273 C.3       2 UNK        -0.1831 
     24 N          20.3498  -24.6769  -45.3951 N.am      2 UNK        -0.4498 
     25 C          19.4170  -25.1144  -46.2527 C.2       1 UNK         0.5027 
     26 O          18.2989  -24.6066  -46.3712 O.2       1 UNK        -0.4969 
     27 C          19.7468  -26.1781  -40.6186 C.2       3 UNK         0.5005 
     28 O          20.8775  -25.6977  -40.7388 O.2       3 UNK        -0.5279 
     29 N          19.2623  -26.6320  -39.4544 N.am      4 UNK        -0.4463 
     30 CA         19.9300  -26.6386  -38.1478 C.3       4 UNK         0.0283 
     31 CB         20.0368  -25.2024  -37.5868 C.3       4 UNK        -0.1875 
     32 C          21.2757  -27.3909  -38.1811 C.2       4 UNK         0.4949 
     33 O          21.2814  -28.6191  -38.1075 O.2       4 UNK        -0.5039 
     34 N          22.3814  -26.6455  -38.3041 N.am      5 UNK        -0.4663 
     35 CA         23.7570  -27.1487  -38.3554 C.3       5 UNK         0.0242 
     36 CB         24.7004  -26.0273  -37.8843 C.3       5 UNK        -0.1982 
     37 C          24.1862  -27.6866  -39.7370 C.2       5 UNK         0.5017 
     38 O          25.3445  -28.0829  -39.8791 O.2       5 UNK        -0.5012 
     39 N          23.2810  -27.6701  -40.7278 N.am      6 UNK        -0.4439 
     40 CA         23.4808  -28.1773  -42.0913 C.3       6 UNK         0.0297 
     41 CB         22.1895  -27.9630  -42.8998 C.3       6 UNK        -0.2006 
     42 C          23.9231  -29.6541  -42.1676 C.2       6 UNK         0.4892 
     43 O          23.6746  -30.4364  -41.2461 O.2       6 UNK        -0.5089 
     44 N          24.5670  -29.9968  -43.2912 N.am      7 UNK        -0.4243 
     45 CA         25.0939  -31.3271  -43.6040 C.3       7 UNK         0.0196 
     46 CB         25.9036  -31.2416  -44.9091 C.3       7 UNK        -0.2007 
     47 C          24.0036  -32.4074  -43.7218 C.2       7 UNK         0.5020 
     48 O          22.8465  -32.0933  -43.9998 O.2       7 UNK        -0.5147 
     49 N          24.4223  -33.6651  -43.5260 N.am      8 UNK        -0.4734 
     50 CA         23.6418  -34.9144  -43.5430 C.3       8 UNK         0.0238 
     51 CB         22.7651  -35.0492  -44.8061 C.3       8 UNK        -0.1912 
     52 C          22.8367  -35.1888  -42.2588 C.2       8 UNK         0.5038 
     53 O          22.4417  -36.3373  -42.0518 O.2       8 UNK        -0.5046 
     54 N          22.6448  -34.1772  -41.4022 N.am      9 UNK        -0.4200 
     55 CA         22.0549  -34.3247  -40.0595 C.3       9 UNK         0.0839 
     56 C          23.0717  -34.7811  -38.9721 C.2       9 UNK         0.5513 
     57 N          24.3648  -34.8779  -39.2595 N.am      9 UNK        -0.7519 
     58 O          22.6763  -35.0668  -37.8447 O.2       9 UNK        -0.4960 
     59 C59        21.2949  -33.0491  -39.6148 C.3       10 UNK        -0.0876 
     60 S60        19.8498  -32.7047  -40.6725 S.3       10 UNK        -0.2414 
     61 C61        20.3875  -31.1695  -41.4756 C.3       10 UNK         0.0169 
     62 H62        18.4136  -24.7135  -50.9423 H         1 UNK         0.0903 
     63 H63        19.5314  -25.9643  -51.4940 H         1 UNK         0.0903 
     64 H64        18.0451  -26.4155  -50.6567 H         1 UNK         0.0903 
     65 H65        18.4012  -27.0018  -48.5228 H         1 UNK         0.3096 
     66 H66        20.8491  -26.4640  -47.1273 H         1 UNK         0.1121 
     67 H67        18.1746  -27.6174  -46.1647 H         1 UNK         0.0849 
     68 H68        19.6094  -27.5568  -45.1721 H         1 UNK         0.0849 
     69 H69        17.6321  -30.1566  -46.6272 H         1 UNK         0.0865 
     70 H70        18.8607  -31.3694  -46.3844 H         1 UNK         0.0865 
     71 H71        20.2882  -31.2518  -44.2062 H         1 UNK         0.1346 
     72 H72        18.1150  -29.8753  -40.7803 H         1 UNK         0.1412 
     73 H73        16.6178  -29.0920  -44.7238 H         1 UNK         0.1426 
     74 H74        15.3409  -29.3802  -41.7073 H         1 UNK         0.0716 
     75 H75        15.5083  -28.0877  -42.8701 H         1 UNK         0.0716 
     76 H76        17.1457  -25.2056  -41.0807 H         1 UNK         0.0695 
     77 H77        16.8141  -26.0036  -42.5881 H         1 UNK         0.0695 
     78 H78        18.9969  -27.3739  -42.1797 H         1 UNK         0.0983 
     79 H79        19.8708  -26.0902  -43.6840 H         1 UNK         0.3095 
     80 H80        19.5019  -22.8606  -44.7849 H         1 UNK         0.0454 
     81 H81        22.1088  -23.8134  -43.4748 H         1 UNK         0.0851 
     82 H82        21.3133  -22.2738  -43.1885 H         1 UNK         0.0851 
     83 H83        21.9885  -22.6206  -44.7708 H         1 UNK         0.0851 
     84 H84        21.2581  -25.1197  -45.3881 H         1 UNK         0.2976 
     85 H85        18.3352  -27.0411  -39.4744 H         1 UNK         0.3116 
     86 H86        19.2831  -27.2026  -37.4740 H         1 UNK         0.0646 
     87 H87        20.5807  -24.5314  -38.2522 H         1 UNK         0.0847 
     88 H88        20.5437  -25.1941  -36.6207 H         1 UNK         0.0847 
     89 H89        19.0475  -24.7724  -37.4306 H         1 UNK         0.0847 
     90 H90        22.2628  -25.6497  -38.4286 H         1 UNK         0.3040 
     91 H91        23.8451  -27.9828  -37.6556 H         1 UNK         0.1015 
     92 H92        24.6735  -25.1693  -38.5573 H         1 UNK         0.0786 
     93 H93        25.7338  -26.3739  -37.8394 H         1 UNK         0.0786 
     94 H94        24.4368  -25.6800  -36.8851 H         1 UNK         0.0786 
     95 H95        22.3789  -27.2573  -40.5242 H         1 UNK         0.3172 
     96 H96        24.2713  -27.5722  -42.5398 H         1 UNK         0.0595 
     97 H97        22.2790  -28.3587  -43.9127 H         1 UNK         0.0839 
     98 H98        21.9582  -26.9023  -42.9886 H         1 UNK         0.0839 
     99 H99        21.3391  -28.4605  -42.4337 H         1 UNK         0.0839 
    100 H100       24.6885  -29.2942  -44.0056 H         1 UNK         0.2998 
    101 H101       25.7666  -31.6086  -42.7910 H         1 UNK         0.0822 
    102 H102       26.3511  -32.2041  -45.1608 H         1 UNK         0.0787 
    103 H103       25.2772  -30.9450  -45.7517 H         1 UNK         0.0787 
    104 H104       26.7185  -30.5220  -44.8258 H         1 UNK         0.0787 
    105 H105       25.4030  -33.7933  -43.3129 H         1 UNK         0.3055 
    106 H106       24.3860  -35.7114  -43.5910 H         1 UNK         0.1106 
    107 H107       22.3539  -36.0563  -44.8850 H         1 UNK         0.0828 
    108 H108       21.9189  -34.3617  -44.7938 H         1 UNK         0.0828 
    109 H109       23.3397  -34.8624  -45.7132 H         1 UNK         0.0828 
    110 H110       22.9799  -33.2577  -41.6510 H         1 UNK         0.2931 
    111 H111       21.3151  -35.1265  -40.1059 H         1 UNK         0.0412 
    112 H112       24.7052  -34.6492  -40.1789 H         1 UNK         0.3472 
    113 H113       25.0073  -35.1809  -38.5440 H         1 UNK         0.3472 
    114 H114       21.9676  -32.1891  -39.5947 H         1 UNK         0.0970 
    115 H115       20.9200  -33.1588  -38.5954 H         1 UNK         0.0970 
    116 H116       20.6377  -30.4255  -40.7171 H         1 UNK         0.0612 
    117 H117       21.3015  -31.3647  -42.0341 H         1 UNK         0.0612 
@<TRIPOS>BOND
     1    1    2 1    
     2    1   62 1    
     3    1   63 1    
     4    1   64 1    
     5    2    3 2    
     6    2    4 am   BACKBONE|DICT|INTERRES
     7    4    5 1    
     8    4   65 1    
     9    5    6 1    
    10    5   25 1    
    11    5   66 1    
    12    6    7 1    
    13    6   67 1    
    14    6   68 1    
    15    7    8 1    
    16    8    9 1    
    17    8   69 1    
    18    8   70 1    
    19    9   10 ar   
    20    9   14 ar   
    21   10   11 ar   
    22   10   71 1    
    23   11   12 ar   
    24   11   61 1    
    25   12   13 ar   
    26   12   72 1    
    27   13   14 ar   
    28   13   15 1    
    29   14   73 1    
    30   15   16 1    
    31   15   74 1    
    32   15   75 1    
    33   16   17 1    
    34   17   18 1    
    35   17   76 1    
    36   17   77 1    
    37   18   19 1    
    38   18   27 1    
    39   18   78 1    
    40   19   20 am   BACKBONE|DICT|INTERRES
    41   19   79 1    
    42   20   21 2    
    43   20   22 1    
    44   22   23 1    
    45   22   24 1    
    46   22   80 1    
    47   23   81 1    
    48   23   82 1    
    49   23   83 1    
    50   24   25 am   BACKBONE|DICT|INTERRES
    51   24   84 1    
    52   25   26 2    
    53   27   28 2    
    54   27   29 am   BACKBONE|DICT|INTERRES
    55   29   30 1    
    56   29   85 1    
    57   30   31 1    
    58   30   32 1    
    59   30   86 1    
    60   31   87 1    
    61   31   88 1    
    62   31   89 1    
    63   32   33 2    
    64   32   34 am   BACKBONE|DICT|INTERRES
    65   34   35 1    
    66   34   90 1    
    67   35   36 1    
    68   35   37 1    
    69   35   91 1    
    70   36   92 1    
    71   36   93 1    
    72   36   94 1    
    73   37   38 2    
    74   37   39 am   BACKBONE|DICT|INTERRES
    75   39   40 1    
    76   39   95 1    
    77   40   41 1    
    78   40   42 1    
    79   40   96 1    
    80   41   97 1    
    81   41   98 1    
    82   41   99 1    
    83   42   43 2    
    84   42   44 am   BACKBONE|DICT|INTERRES
    85   44   45 1    
    86   44  100 1    
    87   45   46 1    
    88   45   47 1    
    89   45  101 1    
    90   46  102 1    
    91   46  103 1    
    92   46  104 1    
    93   47   48 2    
    94   47   49 am   BACKBONE|DICT|INTERRES
    95   49   50 1    
    96   49  105 1    
    97   50   51 1    
    98   50   52 1    
    99   50  106 1    
   100   51  107 1    
   101   51  108 1    
   102   51  109 1    
   103   52   53 2    
   104   52   54 am   BACKBONE|DICT|INTERRES
   105   54   55 1    
   106   54  110 1    
   107   55   56 1    
   108   55   59 1    
   109   55  111 1    
   110   56   57 am   BACKBONE|DICT|INTERRES
   111   56   58 2    
   112   57  112 1    
   113   57  113 1    
   114   59   60 1    
   115   59  114 1    
   116   59  115 1    
   117   60   61 1    
   118   61  116 1    
   119   61  117 1    
@<TRIPOS>SUBSTRUCTURE
     1 UNK         1 GROUP             0       ****    0 ROOT    
