@<TRIPOS>MOLECULE
3R8
117   119    1
SMALL
USER_CHARGES


@<TRIPOS>ATOM
      1 CA         16.3510  -25.4220  -49.7142 C.3       0 UNK        -0.2013 
      2 C          16.1014  -26.0586  -48.3547 C.2       0 UNK         0.4866 
      3 O          14.9534  -26.1106  -47.9116 O.2       0 UNK        -0.5176 
      4 N          17.1693  -26.5418  -47.7038 N.am      1 UNK        -0.4884 
      5 CA         17.1903  -27.1692  -46.3726 C.3       1 UNK         0.0853 
      6 C6         16.3655  -28.4908  -46.3018 C.3       10 UNK        -0.0849 
      7 S7         17.2311  -29.8308  -47.1881 S.3       10 UNK        -0.2776 
      8 C8         17.8065  -30.8972  -45.8194 C.3       10 UNK         0.0316 
      9 C9         18.5482  -30.1341  -44.7257 C.ar      10 UNK        -0.0863 
     10 C10        18.0768  -30.1603  -43.4093 C.ar      10 UNK        -0.1009 
     11 C11        18.7535  -29.4743  -42.3961 C.ar      10 UNK        -0.0712 
     12 C12        19.9075  -28.7521  -42.7072 C.ar      10 UNK        -0.0894 
     13 C13        20.3700  -28.6896  -44.0233 C.ar      10 UNK        -0.0745 
     14 C14        19.7018  -29.4026  -45.0237 C.ar      10 UNK        -0.0972 
     15 C15        21.5698  -27.8280  -44.3781 C.3       10 UNK         0.0209 
     16 S16        21.0134  -26.2627  -45.1240 S.3       10 UNK        -0.2568 
     17 C17        21.4188  -25.0228  -43.8387 C.3       10 UNK        -0.0983 
     18 CA         20.3972  -24.8212  -42.6670 C.3       3 UNK         0.0876 
     19 N          19.0854  -25.4057  -42.9494 N.am      3 UNK        -0.4424 
     20 C          17.9160  -25.0411  -42.4109 C.2       2 UNK         0.4918 
     21 O          17.7741  -24.0550  -41.6856 O.2       2 UNK        -0.4875 
     22 CA         16.7095  -25.9525  -42.7246 C.3       2 UNK         0.0481 
     23 CB         15.3573  -25.2130  -42.6406 C.3       2 UNK        -0.1831 
     24 N          16.8458  -26.6880  -43.9911 N.am      2 UNK        -0.4498 
     25 C          16.8820  -26.1716  -45.2307 C.2       1 UNK         0.5027 
     26 O          16.7577  -24.9674  -45.4688 O.2       1 UNK        -0.4969 
     27 C          20.9397  -25.3142  -41.3041 C.2       3 UNK         0.5005 
     28 O          20.2875  -26.1035  -40.6136 O.2       3 UNK        -0.5279 
     29 N          22.1402  -24.8446  -40.9360 N.am      4 UNK        -0.4463 
     30 CA         22.9125  -25.3479  -39.7966 C.3       4 UNK         0.0283 
     31 CB         24.1479  -24.4551  -39.5943 C.3       4 UNK        -0.1875 
     32 C          23.3371  -26.8153  -39.9985 C.2       4 UNK         0.4949 
     33 O          23.4810  -27.2603  -41.1395 O.2       4 UNK        -0.5039 
     34 N          23.5388  -27.5267  -38.8824 N.am      5 UNK        -0.4663 
     35 CA         23.9345  -28.9365  -38.8371 C.3       5 UNK         0.0242 
     36 CB         24.0068  -29.3845  -37.3682 C.3       5 UNK        -0.1982 
     37 C          25.2752  -29.1981  -39.5454 C.2       5 UNK         0.5017 
     38 O          26.2738  -28.5574  -39.2071 O.2       5 UNK        -0.5012 
     39 N          25.2697  -30.1345  -40.4974 N.am      6 UNK        -0.4439 
     40 CA         26.4281  -30.5497  -41.2831 C.3       6 UNK         0.0297 
     41 CB         26.6622  -29.5569  -42.4442 C.3       6 UNK        -0.2006 
     42 C          26.2011  -32.0055  -41.7150 C.2       6 UNK         0.4892 
     43 O          25.9390  -32.8483  -40.8548 O.2       6 UNK        -0.5089 
     44 N          26.2696  -32.2814  -43.0262 N.am      7 UNK        -0.4243 
     45 CA         25.9378  -33.5796  -43.6279 C.3       7 UNK         0.0196 
     46 CB         26.3412  -33.5704  -45.1112 C.3       7 UNK        -0.2007 
     47 C          24.4507  -33.9543  -43.4739 C.2       7 UNK         0.5020 
     48 O          24.1251  -35.1411  -43.4381 O.2       7 UNK        -0.5147 
     49 N          23.5898  -32.9373  -43.3564 N.am      8 UNK        -0.4734 
     50 CA         22.1984  -33.0444  -42.9329 C.3       8 UNK         0.0238 
     51 CB         21.2984  -32.3966  -43.9947 C.3       8 UNK        -0.1912 
     52 C          22.0570  -32.3140  -41.5910 C.2       8 UNK         0.5038 
     53 O          22.7573  -31.3226  -41.3603 O.2       8 UNK        -0.5046 
     54 N          21.1649  -32.8239  -40.7343 N.am      9 UNK        -0.4200 
     55 CA         20.8361  -32.3024  -39.3947 C.3       9 UNK         0.0839 
     56 C          21.9898  -32.3296  -38.3453 C.2       9 UNK         0.5513 
     57 N          23.1612  -32.8793  -38.6405 N.am      9 UNK        -0.7519 
     58 O          21.8010  -31.8847  -37.2167 O.2       9 UNK        -0.4960 
     59 C59        20.1084  -30.9276  -39.4516 C.3       10 UNK        -0.0876 
     60 S60        18.4368  -31.0911  -40.1640 S.3       10 UNK        -0.2414 
     61 C61        18.2073  -29.4810  -40.9768 C.3       10 UNK         0.0169 
     62 H62        17.4042  -25.4518  -49.9933 H         1 UNK         0.0903 
     63 H63        15.7824  -25.9445  -50.4831 H         1 UNK         0.0903 
     64 H64        16.0328  -24.3799  -49.7039 H         1 UNK         0.0903 
     65 H65        18.0793  -26.4382  -48.1308 H         1 UNK         0.3096 
     66 H66        18.2379  -27.4212  -46.2073 H         1 UNK         0.1121 
     67 H67        16.1807  -28.8218  -45.2802 H         1 UNK         0.0849 
     68 H68        15.3740  -28.3655  -46.7372 H         1 UNK         0.0849 
     69 H69        16.9457  -31.4248  -45.4056 H         1 UNK         0.0865 
     70 H70        18.4669  -31.6654  -46.2238 H         1 UNK         0.0865 
     71 H71        17.1832  -30.7189  -43.1652 H         1 UNK         0.1346 
     72 H72        20.4359  -28.2220  -41.9283 H         1 UNK         0.1412 
     73 H73        20.0638  -29.3654  -46.0425 H         1 UNK         0.1426 
     74 H74        22.2042  -28.3578  -45.0901 H         1 UNK         0.0716 
     75 H75        22.1873  -27.6392  -43.4989 H         1 UNK         0.0716 
     76 H76        21.5052  -24.0745  -44.3713 H         1 UNK         0.0695 
     77 H77        22.4336  -25.2274  -43.4932 H         1 UNK         0.0695 
     78 H78        20.2502  -23.7456  -42.5435 H         1 UNK         0.0983 
     79 H79        19.1098  -26.2360  -43.5223 H         1 UNK         0.3095 
     80 H80        16.7087  -26.7140  -41.9435 H         1 UNK         0.0454 
     81 H81        15.1927  -24.8140  -41.6391 H         1 UNK         0.0851 
     82 H82        14.5247  -25.8804  -42.8619 H         1 UNK         0.0851 
     83 H83        15.3084  -24.3726  -43.3333 H         1 UNK         0.0851 
     84 H84        16.9959  -27.6828  -43.8899 H         1 UNK         0.2976 
     85 H85        22.6219  -24.2074  -41.5536 H         1 UNK         0.3116 
     86 H86        22.2825  -25.2850  -38.9066 H         1 UNK         0.0646 
     87 H87        24.8105  -24.4810  -40.4605 H         1 UNK         0.0847 
     88 H88        23.8655  -23.4174  -39.4163 H         1 UNK         0.0847 
     89 H89        24.7307  -24.7820  -38.7320 H         1 UNK         0.0847 
     90 H90        23.4282  -27.0659  -37.9908 H         1 UNK         0.3040 
     91 H91        23.1531  -29.5129  -39.3369 H         1 UNK         0.1015 
     92 H92        23.0366  -29.3003  -36.8781 H         1 UNK         0.0786 
     93 H93        24.3156  -30.4278  -37.2934 H         1 UNK         0.0786 
     94 H94        24.7256  -28.7931  -36.7995 H         1 UNK         0.0786 
     95 H95        24.3999  -30.6234  -40.7080 H         1 UNK         0.3172 
     96 H96        27.3125  -30.5515  -40.6427 H         1 UNK         0.0595 
     97 H97        25.8008  -29.4984  -43.1111 H         1 UNK         0.0839 
     98 H98        27.5357  -29.8320  -43.0367 H         1 UNK         0.0839 
     99 H99        26.8461  -28.5510  -42.0661 H         1 UNK         0.0839 
    100 H100       26.5040  -31.5329  -43.6624 H         1 UNK         0.2998 
    101 H101       26.5232  -34.3465  -43.1158 H         1 UNK         0.0822 
    102 H102       26.1302  -34.5338  -45.5780 H         1 UNK         0.0787 
    103 H103       27.4080  -33.3810  -45.2321 H         1 UNK         0.0787 
    104 H104       25.7975  -32.8102  -45.6737 H         1 UNK         0.0787 
    105 H105       23.9671  -32.0003  -43.3348 H         1 UNK         0.3055 
    106 H106       21.9100  -34.0904  -42.8054 H         1 UNK         0.1106 
    107 H107       21.5694  -31.3543  -44.1628 H         1 UNK         0.0828 
    108 H108       21.3700  -32.9187  -44.9487 H         1 UNK         0.0828 
    109 H109       20.2515  -32.4168  -43.6888 H         1 UNK         0.0828 
    110 H110       20.6470  -33.6462  -41.0077 H         1 UNK         0.2931 
    111 H111       20.1233  -33.0235  -38.9925 H         1 UNK         0.0412 
    112 H112       23.8810  -32.9125  -37.9368 H         1 UNK         0.3472 
    113 H113       23.3456  -33.2396  -39.5630 H         1 UNK         0.3472 
    114 H114       20.6920  -30.2026  -40.0211 H         1 UNK         0.0970 
    115 H115       19.9862  -30.5000  -38.4549 H         1 UNK         0.0970 
    116 H116       18.6632  -28.6927  -40.3749 H         1 UNK         0.0612 
    117 H117       17.1399  -29.2582  -41.0088 H         1 UNK         0.0612 
@<TRIPOS>BOND
     1    1    2 1    
     2    1   62 1    
     3    1   63 1    
     4    1   64 1    
     5    2    3 2    
     6    2    4 am   BACKBONE|DICT|INTERRES
     7    4    5 1    
     8    4   65 1    
     9    5    6 1    
    10    5   25 1    
    11    5   66 1    
    12    6    7 1    
    13    6   67 1    
    14    6   68 1    
    15    7    8 1    
    16    8    9 1    
    17    8   69 1    
    18    8   70 1    
    19    9   10 ar   
    20    9   14 ar   
    21   10   11 ar   
    22   10   71 1    
    23   11   12 ar   
    24   11   61 1    
    25   12   13 ar   
    26   12   72 1    
    27   13   14 ar   
    28   13   15 1    
    29   14   73 1    
    30   15   16 1    
    31   15   74 1    
    32   15   75 1    
    33   16   17 1    
    34   17   18 1    
    35   17   76 1    
    36   17   77 1    
    37   18   19 1    
    38   18   27 1    
    39   18   78 1    
    40   19   20 am   BACKBONE|DICT|INTERRES
    41   19   79 1    
    42   20   21 2    
    43   20   22 1    
    44   22   23 1    
    45   22   24 1    
    46   22   80 1    
    47   23   81 1    
    48   23   82 1    
    49   23   83 1    
    50   24   25 am   BACKBONE|DICT|INTERRES
    51   24   84 1    
    52   25   26 2    
    53   27   28 2    
    54   27   29 am   BACKBONE|DICT|INTERRES
    55   29   30 1    
    56   29   85 1    
    57   30   31 1    
    58   30   32 1    
    59   30   86 1    
    60   31   87 1    
    61   31   88 1    
    62   31   89 1    
    63   32   33 2    
    64   32   34 am   BACKBONE|DICT|INTERRES
    65   34   35 1    
    66   34   90 1    
    67   35   36 1    
    68   35   37 1    
    69   35   91 1    
    70   36   92 1    
    71   36   93 1    
    72   36   94 1    
    73   37   38 2    
    74   37   39 am   BACKBONE|DICT|INTERRES
    75   39   40 1    
    76   39   95 1    
    77   40   41 1    
    78   40   42 1    
    79   40   96 1    
    80   41   97 1    
    81   41   98 1    
    82   41   99 1    
    83   42   43 2    
    84   42   44 am   BACKBONE|DICT|INTERRES
    85   44   45 1    
    86   44  100 1    
    87   45   46 1    
    88   45   47 1    
    89   45  101 1    
    90   46  102 1    
    91   46  103 1    
    92   46  104 1    
    93   47   48 2    
    94   47   49 am   BACKBONE|DICT|INTERRES
    95   49   50 1    
    96   49  105 1    
    97   50   51 1    
    98   50   52 1    
    99   50  106 1    
   100   51  107 1    
   101   51  108 1    
   102   51  109 1    
   103   52   53 2    
   104   52   54 am   BACKBONE|DICT|INTERRES
   105   54   55 1    
   106   54  110 1    
   107   55   56 1    
   108   55   59 1    
   109   55  111 1    
   110   56   57 am   BACKBONE|DICT|INTERRES
   111   56   58 2    
   112   57  112 1    
   113   57  113 1    
   114   59   60 1    
   115   59  114 1    
   116   59  115 1    
   117   60   61 1    
   118   61  116 1    
   119   61  117 1    
@<TRIPOS>SUBSTRUCTURE
     1 UNK         1 GROUP             0       ****    0 ROOT    
