@<TRIPOS>MOLECULE
3R8
117   119    1
SMALL
USER_CHARGES


@<TRIPOS>ATOM
      1 CA         13.8712  -23.7212  -43.7433 C.3       0 UNK        -0.2013 
      2 C          14.9177  -24.3417  -44.6568 C.2       0 UNK         0.4866 
      3 O          15.7997  -23.6352  -45.1448 O.2       0 UNK        -0.5176 
      4 N          14.8242  -25.6571  -44.8950 N.am      1 UNK        -0.4884 
      5 CA         15.7603  -26.4242  -45.7285 C.3       1 UNK         0.0853 
      6 C6         15.1642  -27.8058  -46.1019 C.3       10 UNK        -0.0849 
      7 S7         15.9637  -28.5559  -47.5608 S.3       10 UNK        -0.2776 
      8 C8         16.4435  -30.2019  -46.9363 C.3       10 UNK         0.0316 
      9 C9         17.7125  -30.1995  -46.0871 C.ar      10 UNK        -0.0863 
     10 C10        17.6938  -30.7159  -44.7873 C.ar      10 UNK        -0.1009 
     11 C11        18.8775  -30.8429  -44.0507 C.ar      10 UNK        -0.0712 
     12 C12        20.0860  -30.4127  -44.6107 C.ar      10 UNK        -0.0894 
     13 C13        20.1173  -29.8812  -45.9040 C.ar      10 UNK        -0.0745 
     14 C14        18.9288  -29.7796  -46.6350 C.ar      10 UNK        -0.0972 
     15 C15        21.4383  -29.4901  -46.5529 C.3       10 UNK         0.0209 
     16 S16        21.7149  -27.6898  -46.5407 S.3       10 UNK        -0.2568 
     17 C17        22.6331  -27.4430  -44.9836 C.3       10 UNK        -0.0983 
     18 CA         21.9207  -26.4795  -43.9996 C.3       3 UNK         0.0876 
     19 N          20.6000  -26.9946  -43.6260 N.am      3 UNK        -0.4424 
     20 C          19.5709  -26.2789  -43.1622 C.2       2 UNK         0.4918 
     21 O          19.6177  -25.0690  -42.9299 O.2       2 UNK        -0.4875 
     22 CA         18.2823  -27.0641  -42.8777 C.3       2 UNK         0.0481 
     23 CB         17.8744  -26.9136  -41.4025 C.3       2 UNK        -0.1831 
     24 N          17.1489  -26.7040  -43.7303 N.am      2 UNK        -0.4498 
     25 C          17.1456  -26.5814  -45.0677 C.2       1 UNK         0.5027 
     26 O          18.1502  -26.6024  -45.7782 O.2       1 UNK        -0.4969 
     27 C          22.7938  -26.1734  -42.7582 C.2       3 UNK         0.5005 
     28 O          23.9449  -26.6089  -42.6912 O.2       3 UNK        -0.5279 
     29 N          22.2337  -25.4531  -41.7751 N.am      4 UNK        -0.4463 
     30 CA         22.7911  -25.2060  -40.4417 C.3       4 UNK         0.0283 
     31 CB         24.0038  -24.2493  -40.5143 C.3       4 UNK        -0.1875 
     32 C          23.0714  -26.5423  -39.7266 C.2       4 UNK         0.4949 
     33 O          22.1160  -27.2365  -39.3822 O.2       4 UNK        -0.5039 
     34 N          24.3519  -26.8881  -39.5481 N.am      5 UNK        -0.4663 
     35 CA         24.8024  -28.1589  -38.9769 C.3       5 UNK         0.0242 
     36 CB         25.9357  -27.8688  -37.9774 C.3       5 UNK        -0.1982 
     37 C          25.2735  -29.1670  -40.0429 C.2       5 UNK         0.5017 
     38 O          25.5758  -30.3057  -39.6793 O.2       5 UNK        -0.5012 
     39 N          25.3625  -28.7602  -41.3206 N.am      6 UNK        -0.4439 
     40 CA         25.8154  -29.6215  -42.4182 C.3       6 UNK         0.0297 
     41 CB         26.1608  -28.7757  -43.6531 C.3       6 UNK        -0.2006 
     42 C          24.7639  -30.6877  -42.7575 C.2       6 UNK         0.4892 
     43 O          23.5696  -30.4606  -42.5543 O.2       6 UNK        -0.5089 
     44 N          25.2421  -31.8491  -43.2276 N.am      7 UNK        -0.4243 
     45 CA         24.4749  -33.0849  -43.4539 C.3       7 UNK         0.0196 
     46 CB         23.4544  -32.9011  -44.5983 C.3       7 UNK        -0.2007 
     47 C          23.8285  -33.6400  -42.1642 C.2       7 UNK         0.5020 
     48 O          22.8202  -34.3429  -42.2383 O.2       7 UNK        -0.5147 
     49 N          24.4210  -33.2994  -41.0074 N.am      8 UNK        -0.4734 
     50 CA         23.9735  -33.5950  -39.6408 C.3       8 UNK         0.0238 
     51 CB         24.0501  -35.1105  -39.3545 C.3       8 UNK        -0.1912 
     52 C          22.5981  -32.9882  -39.2909 C.2       8 UNK         0.5038 
     53 O          21.8966  -33.5378  -38.4386 O.2       8 UNK        -0.5046 
     54 N          22.2311  -31.8775  -39.9475 N.am      9 UNK        -0.4200 
     55 CA         20.9786  -31.1473  -39.7056 C.3       9 UNK         0.0839 
     56 C          20.9435  -30.3977  -38.3419 C.2       9 UNK         0.5513 
     57 N          19.7799  -29.9001  -37.9463 N.am      9 UNK        -0.7519 
     58 O          21.9462  -30.2585  -37.6437 O.2       9 UNK        -0.4960 
     59 C59        20.6115  -30.2311  -40.9075 C.3       10 UNK        -0.0876 
     60 S60        18.8363  -30.3320  -41.3107 S.3       10 UNK        -0.2414 
     61 C61        18.8495  -31.5218  -42.6865 C.3       10 UNK         0.0169 
     62 H62        13.3269  -22.9399  -44.2731 H         1 UNK         0.0903 
     63 H63        13.1489  -24.4566  -43.3894 H         1 UNK         0.0903 
     64 H64        14.3513  -23.2722  -42.8741 H         1 UNK         0.0903 
     65 H65        14.0666  -26.1820  -44.4800 H         1 UNK         0.3096 
     66 H66        15.9087  -25.8556  -46.6499 H         1 UNK         0.1121 
     67 H67        15.1978  -28.4915  -45.2527 H         1 UNK         0.0849 
     68 H68        14.1075  -27.6975  -46.3523 H         1 UNK         0.0849 
     69 H69        15.6054  -30.6386  -46.3909 H         1 UNK         0.0865 
     70 H70        16.6114  -30.8554  -47.7934 H         1 UNK         0.0865 
     71 H71        16.7629  -31.0674  -44.3637 H         1 UNK         0.1346 
     72 H72        21.0080  -30.5251  -44.0580 H         1 UNK         0.1412 
     73 H73        18.9535  -29.3923  -47.6446 H         1 UNK         0.1426 
     74 H74        21.4351  -29.8269  -47.5906 H         1 UNK         0.0716 
     75 H75        22.2748  -30.0068  -46.0796 H         1 UNK         0.0716 
     76 H76        22.8192  -28.4052  -44.5025 H         1 UNK         0.0695 
     77 H77        23.6109  -27.0452  -45.2609 H         1 UNK         0.0695 
     78 H78        21.7778  -25.5270  -44.5146 H         1 UNK         0.0983 
     79 H79        20.4507  -27.9750  -43.8155 H         1 UNK         0.3095 
     80 H80        18.4786  -28.1182  -43.0714 H         1 UNK         0.0454 
     81 H81        17.5809  -25.8899  -41.1669 H         1 UNK         0.0851 
     82 H82        17.0420  -27.5706  -41.1504 H         1 UNK         0.0851 
     83 H83        18.7010  -27.1760  -40.7402 H         1 UNK         0.0851 
     84 H84        16.2583  -26.6182  -43.2639 H         1 UNK         0.2976 
     85 H85        21.2765  -25.1456  -41.9240 H         1 UNK         0.3116 
     86 H86        22.0112  -24.7064  -39.8650 H         1 UNK         0.0646 
     87 H87        24.4015  -24.0434  -39.5196 H         1 UNK         0.0847 
     88 H88        23.7147  -23.2904  -40.9444 H         1 UNK         0.0847 
     89 H89        24.8176  -24.6449  -41.1225 H         1 UNK         0.0847 
     90 H90        25.0690  -26.2642  -39.8902 H         1 UNK         0.3040 
     91 H91        23.9855  -28.6362  -38.4311 H         1 UNK         0.1015 
     92 H92        25.6032  -27.1956  -37.1870 H         1 UNK         0.0786 
     93 H93        26.7992  -27.4148  -38.4651 H         1 UNK         0.0786 
     94 H94        26.2777  -28.7857  -37.4953 H         1 UNK         0.0786 
     95 H95        24.9736  -27.8597  -41.5887 H         1 UNK         0.3172 
     96 H96        26.7280  -30.1237  -42.0895 H         1 UNK         0.0595 
     97 H97        26.8541  -27.9716  -43.4064 H         1 UNK         0.0839 
     98 H98        25.2740  -28.3289  -44.0985 H         1 UNK         0.0839 
     99 H99        26.6324  -29.3861  -44.4240 H         1 UNK         0.0839 
    100 H100       26.2404  -31.9291  -43.3680 H         1 UNK         0.2998 
    101 H101       25.1966  -33.8376  -43.7748 H         1 UNK         0.0822 
    102 H102       23.0076  -33.8551  -44.8806 H         1 UNK         0.0787 
    103 H103       22.6395  -32.2373  -44.3112 H         1 UNK         0.0787 
    104 H104       23.9257  -32.4884  -45.4902 H         1 UNK         0.0787 
    105 H105       25.2330  -32.6994  -41.0659 H         1 UNK         0.3055 
    106 H106       24.6848  -33.0993  -38.9776 H         1 UNK         0.1106 
    107 H107       23.3105  -35.6690  -39.9288 H         1 UNK         0.0828 
    108 H108       25.0347  -35.5112  -39.5948 H         1 UNK         0.0828 
    109 H109       23.8669  -35.3204  -38.3000 H         1 UNK         0.0828 
    110 H110       22.8621  -31.4799  -40.6314 H         1 UNK         0.2931 
    111 H111       20.2155  -31.9250  -39.6299 H         1 UNK         0.0412 
    112 H112       18.9589  -29.9941  -38.5246 H         1 UNK         0.3472 
    113 H113       19.7282  -29.4035  -37.0709 H         1 UNK         0.3472 
    114 H114       20.8814  -29.1895  -40.7238 H         1 UNK         0.0970 
    115 H115       21.1720  -30.5153  -41.7951 H         1 UNK         0.0970 
    116 H116       19.6960  -32.2037  -42.5882 H         1 UNK         0.0612 
    117 H117       17.9586  -32.1458  -42.6018 H         1 UNK         0.0612 
@<TRIPOS>BOND
     1    1    2 1    
     2    1   62 1    
     3    1   63 1    
     4    1   64 1    
     5    2    3 2    
     6    2    4 am   BACKBONE|DICT|INTERRES
     7    4    5 1    
     8    4   65 1    
     9    5    6 1    
    10    5   25 1    
    11    5   66 1    
    12    6    7 1    
    13    6   67 1    
    14    6   68 1    
    15    7    8 1    
    16    8    9 1    
    17    8   69 1    
    18    8   70 1    
    19    9   10 ar   
    20    9   14 ar   
    21   10   11 ar   
    22   10   71 1    
    23   11   12 ar   
    24   11   61 1    
    25   12   13 ar   
    26   12   72 1    
    27   13   14 ar   
    28   13   15 1    
    29   14   73 1    
    30   15   16 1    
    31   15   74 1    
    32   15   75 1    
    33   16   17 1    
    34   17   18 1    
    35   17   76 1    
    36   17   77 1    
    37   18   19 1    
    38   18   27 1    
    39   18   78 1    
    40   19   20 am   BACKBONE|DICT|INTERRES
    41   19   79 1    
    42   20   21 2    
    43   20   22 1    
    44   22   23 1    
    45   22   24 1    
    46   22   80 1    
    47   23   81 1    
    48   23   82 1    
    49   23   83 1    
    50   24   25 am   BACKBONE|DICT|INTERRES
    51   24   84 1    
    52   25   26 2    
    53   27   28 2    
    54   27   29 am   BACKBONE|DICT|INTERRES
    55   29   30 1    
    56   29   85 1    
    57   30   31 1    
    58   30   32 1    
    59   30   86 1    
    60   31   87 1    
    61   31   88 1    
    62   31   89 1    
    63   32   33 2    
    64   32   34 am   BACKBONE|DICT|INTERRES
    65   34   35 1    
    66   34   90 1    
    67   35   36 1    
    68   35   37 1    
    69   35   91 1    
    70   36   92 1    
    71   36   93 1    
    72   36   94 1    
    73   37   38 2    
    74   37   39 am   BACKBONE|DICT|INTERRES
    75   39   40 1    
    76   39   95 1    
    77   40   41 1    
    78   40   42 1    
    79   40   96 1    
    80   41   97 1    
    81   41   98 1    
    82   41   99 1    
    83   42   43 2    
    84   42   44 am   BACKBONE|DICT|INTERRES
    85   44   45 1    
    86   44  100 1    
    87   45   46 1    
    88   45   47 1    
    89   45  101 1    
    90   46  102 1    
    91   46  103 1    
    92   46  104 1    
    93   47   48 2    
    94   47   49 am   BACKBONE|DICT|INTERRES
    95   49   50 1    
    96   49  105 1    
    97   50   51 1    
    98   50   52 1    
    99   50  106 1    
   100   51  107 1    
   101   51  108 1    
   102   51  109 1    
   103   52   53 2    
   104   52   54 am   BACKBONE|DICT|INTERRES
   105   54   55 1    
   106   54  110 1    
   107   55   56 1    
   108   55   59 1    
   109   55  111 1    
   110   56   57 am   BACKBONE|DICT|INTERRES
   111   56   58 2    
   112   57  112 1    
   113   57  113 1    
   114   59   60 1    
   115   59  114 1    
   116   59  115 1    
   117   60   61 1    
   118   61  116 1    
   119   61  117 1    
@<TRIPOS>SUBSTRUCTURE
     1 UNK         1 GROUP             0       ****    0 ROOT    
