@<TRIPOS>MOLECULE
3R8
117   119    1
SMALL
USER_CHARGES


@<TRIPOS>ATOM
      1 CA         14.7844  -20.8695  -43.8847 C.3       0 UNK        -0.2013 
      2 C          15.2524  -22.2209  -44.4037 C.2       0 UNK         0.4866 
      3 O          15.1113  -22.4992  -45.5944 O.2       0 UNK        -0.5176 
      4 N          15.7999  -23.0632  -43.5166 N.am      1 UNK        -0.4884 
      5 CA         16.3523  -24.3859  -43.8344 C.3       1 UNK         0.0853 
      6 C6         16.5247  -25.2333  -42.5397 C.3       10 UNK        -0.0849 
      7 S7         17.6096  -26.6950  -42.6547 S.3       10 UNK        -0.2776 
      8 C8         16.4883  -27.9098  -43.4108 C.3       10 UNK         0.0316 
      9 C9         17.2879  -29.1112  -43.8806 C.ar      10 UNK        -0.0863 
     10 C10        17.3064  -30.2935  -43.1388 C.ar      10 UNK        -0.1009 
     11 C11        18.0971  -31.3725  -43.5460 C.ar      10 UNK        -0.0712 
     12 C12        18.8968  -31.2491  -44.6901 C.ar      10 UNK        -0.0894 
     13 C13        18.8820  -30.0666  -45.4420 C.ar      10 UNK        -0.0745 
     14 C14        18.0460  -29.0183  -45.0482 C.ar      10 UNK        -0.0972 
     15 C15        19.7517  -29.9199  -46.6857 C.3       10 UNK         0.0209 
     16 S16        21.3633  -29.1307  -46.3357 S.3       10 UNK        -0.2568 
     17 C17        20.9301  -27.3541  -46.1700 C.3       10 UNK        -0.0983 
     18 CA         21.4989  -26.5669  -44.9435 C.3       3 UNK         0.0876 
     19 N          20.7137  -25.3771  -44.6241 N.am      3 UNK        -0.4424 
     20 C          20.7458  -24.2419  -45.3319 C.2       2 UNK         0.4918 
     21 O          21.4552  -24.0890  -46.3282 O.2       2 UNK        -0.4875 
     22 CA         19.8547  -23.0759  -44.8457 C.3       2 UNK         0.0481 
     23 CB         19.5541  -22.0602  -45.9685 C.3       2 UNK        -0.1831 
     24 N          18.6031  -23.4789  -44.1885 N.am      2 UNK        -0.4498 
     25 C          17.6287  -24.2520  -44.6963 C.2       1 UNK         0.5027 
     26 O          17.6878  -24.8175  -45.7894 O.2       1 UNK        -0.4969 
     27 C          21.7141  -27.3464  -43.6372 C.2       3 UNK         0.5005 
     28 O          22.7395  -27.1487  -42.9812 O.2       3 UNK        -0.5279 
     29 N          20.7794  -28.2480  -43.3006 N.am      4 UNK        -0.4463 
     30 CA         20.8382  -29.2206  -42.1986 C.3       4 UNK         0.0283 
     31 CB         20.7056  -28.5064  -40.8386 C.3       4 UNK        -0.1875 
     32 C          22.0621  -30.1624  -42.2500 C.2       4 UNK         0.4949 
     33 O          22.4183  -30.7471  -41.2269 O.2       4 UNK        -0.5039 
     34 N          22.7194  -30.2513  -43.4179 N.am      5 UNK        -0.4663 
     35 CA         24.0547  -30.8165  -43.6587 C.3       5 UNK         0.0242 
     36 CB         24.0129  -32.3567  -43.6333 C.3       5 UNK        -0.1982 
     37 C          25.1376  -30.2281  -42.7262 C.2       5 UNK         0.5017 
     38 O          26.0257  -30.9600  -42.2893 O.2       5 UNK        -0.5012 
     39 N          25.0230  -28.9238  -42.4211 N.am      6 UNK        -0.4439 
     40 CA         25.8010  -28.1760  -41.4246 C.3       6 UNK         0.0297 
     41 CB         27.2997  -28.1206  -41.7930 C.3       6 UNK        -0.2006 
     42 C          25.5370  -28.6782  -39.9898 C.2       6 UNK         0.4892 
     43 O          26.4766  -28.8575  -39.2131 O.2       6 UNK        -0.5089 
     44 N          24.2468  -28.8834  -39.6816 N.am      7 UNK        -0.4243 
     45 CA         23.6833  -29.3930  -38.4253 C.3       7 UNK         0.0196 
     46 CB         23.9416  -28.4106  -37.2626 C.3       7 UNK        -0.2007 
     47 C          24.1349  -30.8340  -38.1217 C.2       7 UNK         0.5020 
     48 O          24.5983  -31.1176  -37.0152 O.2       7 UNK        -0.5147 
     49 N          23.9972  -31.7183  -39.1175 N.am      8 UNK        -0.4734 
     50 CA         24.4343  -33.1151  -39.0498 C.3       8 UNK         0.0238 
     51 CB         25.9138  -33.2081  -39.4715 C.3       8 UNK        -0.1912 
     52 C          23.5579  -34.0876  -39.8600 C.2       8 UNK         0.5038 
     53 O          23.9112  -35.2665  -39.9236 O.2       8 UNK        -0.5046 
     54 N          22.4554  -33.6222  -40.4705 N.am      9 UNK        -0.4200 
     55 CA         21.5728  -34.4596  -41.3072 C.3       9 UNK         0.0839 
     56 C          20.7492  -35.5463  -40.5510 C.2       9 UNK         0.5513 
     57 N          20.6533  -35.5081  -39.2271 N.am      9 UNK        -0.7519 
     58 O          20.1977  -36.4455  -41.1806 O.2       9 UNK        -0.4960 
     59 C59        20.6960  -33.6169  -42.2727 C.3       10 UNK        -0.0876 
     60 S60        19.3677  -32.6701  -41.4497 S.3       10 UNK        -0.2414 
     61 C61        18.0773  -32.6602  -42.7352 C.3       10 UNK         0.0169 
     62 H62        14.9589  -20.7591  -42.8147 H         1 UNK         0.0903 
     63 H63        15.3133  -20.0673  -44.3986 H         1 UNK         0.0903 
     64 H64        13.7174  -20.7461  -44.0683 H         1 UNK         0.0903 
     65 H65        15.8733  -22.7740  -42.5511 H         1 UNK         0.3096 
     66 H66        15.6204  -24.9021  -44.4601 H         1 UNK         0.1121 
     67 H67        16.9465  -24.6119  -41.7479 H         1 UNK         0.0849 
     68 H68        15.5468  -25.5467  -42.1703 H         1 UNK         0.0849 
     69 H69        15.7230  -28.2034  -42.6906 H         1 UNK         0.0865 
     70 H70        15.9679  -27.4621  -44.2589 H         1 UNK         0.0865 
     71 H71        16.7152  -30.3717  -42.2364 H         1 UNK         0.1346 
     72 H72        19.5276  -32.0731  -44.9943 H         1 UNK         0.1412 
     73 H73        17.9945  -28.1096  -45.6304 H         1 UNK         0.1426 
     74 H74        19.2243  -29.3494  -47.4520 H         1 UNK         0.0716 
     75 H75        19.9369  -30.9035  -47.1199 H         1 UNK         0.0716 
     76 H76        19.8490  -27.2484  -46.1981 H         1 UNK         0.0695 
     77 H77        21.2663  -26.8614  -47.0835 H         1 UNK         0.0695 
     78 H78        22.5002  -26.2348  -45.2288 H         1 UNK         0.0983 
     79 H79        20.1297  -25.4308  -43.8006 H         1 UNK         0.3095 
     80 H80        20.4381  -22.5566  -44.0843 H         1 UNK         0.0454 
     81 H81        20.4733  -21.6376  -46.3761 H         1 UNK         0.0851 
     82 H82        18.9543  -21.2275  -45.6013 H         1 UNK         0.0851 
     83 H83        19.0136  -22.5228  -46.7951 H         1 UNK         0.0851 
     84 H84        18.4465  -23.0770  -43.2746 H         1 UNK         0.2976 
     85 H85        19.9809  -28.3549  -43.9143 H         1 UNK         0.3116 
     86 H86        19.9670  -29.8601  -42.3096 H         1 UNK         0.0646 
     87 H87        21.5606  -27.8650  -40.6266 H         1 UNK         0.0847 
     88 H88        19.8095  -27.8871  -40.8069 H         1 UNK         0.0847 
     89 H89        20.6208  -29.2273  -40.0249 H         1 UNK         0.0847 
     90 H90        22.3118  -29.7644  -44.2064 H         1 UNK         0.3040 
     91 H91        24.3361  -30.5142  -44.6689 H         1 UNK         0.1015 
     92 H92        24.9663  -32.7783  -43.9539 H         1 UNK         0.0786 
     93 H93        23.2479  -32.7463  -44.3044 H         1 UNK         0.0786 
     94 H94        23.8159  -32.7349  -42.6324 H         1 UNK         0.0786 
     95 H95        24.2373  -28.4100  -42.8140 H         1 UNK         0.3172 
     96 H96        25.4226  -27.1532  -41.4591 H         1 UNK         0.0595 
     97 H97        27.7784  -29.0966  -41.7099 H         1 UNK         0.0839 
     98 H98        27.8368  -27.4426  -41.1287 H         1 UNK         0.0839 
     99 H99        27.4460  -27.7595  -42.8108 H         1 UNK         0.0839 
    100 H100       23.5768  -28.7588  -40.4270 H         1 UNK         0.2998 
    101 H101       22.6039  -29.4438  -38.5718 H         1 UNK         0.0822 
    102 H102       23.4256  -28.7343  -36.3578 H         1 UNK         0.0787 
    103 H103       23.5798  -27.4105  -37.5009 H         1 UNK         0.0787 
    104 H104       25.0022  -28.3354  -37.0208 H         1 UNK         0.0787 
    105 H105       23.5869  -31.3973  -39.9936 H         1 UNK         0.3055 
    106 H106       24.3561  -33.4571  -38.0153 H         1 UNK         0.1106 
    107 H107       26.5433  -32.5523  -38.8699 H         1 UNK         0.0828 
    108 H108       26.2978  -34.2216  -39.3496 H         1 UNK         0.0828 
    109 H109       26.0479  -32.9325  -40.5175 H         1 UNK         0.0828 
    110 H110       22.2118  -32.6413  -40.4080 H         1 UNK         0.2931 
    111 H111       22.2441  -35.0279  -41.9545 H         1 UNK         0.0412 
    112 H112       20.1225  -36.2182  -38.7476 H         1 UNK         0.3472 
    113 H113       21.0974  -34.7692  -38.7065 H         1 UNK         0.3472 
    114 H114       21.3144  -32.9205  -42.8363 H         1 UNK         0.0970 
    115 H115       20.2590  -34.2795  -43.0212 H         1 UNK         0.0970 
    116 H116       18.1707  -33.5245  -43.3934 H         1 UNK         0.0612 
    117 H117       17.1087  -32.7684  -42.2450 H         1 UNK         0.0612 
@<TRIPOS>BOND
     1    1    2 1    
     2    1   62 1    
     3    1   63 1    
     4    1   64 1    
     5    2    3 2    
     6    2    4 am   BACKBONE|DICT|INTERRES
     7    4    5 1    
     8    4   65 1    
     9    5    6 1    
    10    5   25 1    
    11    5   66 1    
    12    6    7 1    
    13    6   67 1    
    14    6   68 1    
    15    7    8 1    
    16    8    9 1    
    17    8   69 1    
    18    8   70 1    
    19    9   10 ar   
    20    9   14 ar   
    21   10   11 ar   
    22   10   71 1    
    23   11   12 ar   
    24   11   61 1    
    25   12   13 ar   
    26   12   72 1    
    27   13   14 ar   
    28   13   15 1    
    29   14   73 1    
    30   15   16 1    
    31   15   74 1    
    32   15   75 1    
    33   16   17 1    
    34   17   18 1    
    35   17   76 1    
    36   17   77 1    
    37   18   19 1    
    38   18   27 1    
    39   18   78 1    
    40   19   20 am   BACKBONE|DICT|INTERRES
    41   19   79 1    
    42   20   21 2    
    43   20   22 1    
    44   22   23 1    
    45   22   24 1    
    46   22   80 1    
    47   23   81 1    
    48   23   82 1    
    49   23   83 1    
    50   24   25 am   BACKBONE|DICT|INTERRES
    51   24   84 1    
    52   25   26 2    
    53   27   28 2    
    54   27   29 am   BACKBONE|DICT|INTERRES
    55   29   30 1    
    56   29   85 1    
    57   30   31 1    
    58   30   32 1    
    59   30   86 1    
    60   31   87 1    
    61   31   88 1    
    62   31   89 1    
    63   32   33 2    
    64   32   34 am   BACKBONE|DICT|INTERRES
    65   34   35 1    
    66   34   90 1    
    67   35   36 1    
    68   35   37 1    
    69   35   91 1    
    70   36   92 1    
    71   36   93 1    
    72   36   94 1    
    73   37   38 2    
    74   37   39 am   BACKBONE|DICT|INTERRES
    75   39   40 1    
    76   39   95 1    
    77   40   41 1    
    78   40   42 1    
    79   40   96 1    
    80   41   97 1    
    81   41   98 1    
    82   41   99 1    
    83   42   43 2    
    84   42   44 am   BACKBONE|DICT|INTERRES
    85   44   45 1    
    86   44  100 1    
    87   45   46 1    
    88   45   47 1    
    89   45  101 1    
    90   46  102 1    
    91   46  103 1    
    92   46  104 1    
    93   47   48 2    
    94   47   49 am   BACKBONE|DICT|INTERRES
    95   49   50 1    
    96   49  105 1    
    97   50   51 1    
    98   50   52 1    
    99   50  106 1    
   100   51  107 1    
   101   51  108 1    
   102   51  109 1    
   103   52   53 2    
   104   52   54 am   BACKBONE|DICT|INTERRES
   105   54   55 1    
   106   54  110 1    
   107   55   56 1    
   108   55   59 1    
   109   55  111 1    
   110   56   57 am   BACKBONE|DICT|INTERRES
   111   56   58 2    
   112   57  112 1    
   113   57  113 1    
   114   59   60 1    
   115   59  114 1    
   116   59  115 1    
   117   60   61 1    
   118   61  116 1    
   119   61  117 1    
@<TRIPOS>SUBSTRUCTURE
     1 UNK         1 GROUP             0       ****    0 ROOT    
