@<TRIPOS>MOLECULE
3R8
117   119    1
SMALL
USER_CHARGES


@<TRIPOS>ATOM
      1 CA         14.4736  -25.6700  -49.3201 C.3       0 UNK        -0.2013 
      2 C          14.9160  -26.0871  -47.9252 C.2       0 UNK         0.4866 
      3 O          14.5912  -25.4018  -46.9559 O.2       0 UNK        -0.5176 
      4 N          15.6464  -27.2071  -47.8260 N.am      1 UNK        -0.4884 
      5 CA         16.2118  -27.7827  -46.5982 C.3       1 UNK         0.0853 
      6 C6         15.1283  -28.2350  -45.5780 C.3       10 UNK        -0.0849 
      7 S7         15.6530  -29.7100  -44.6371 S.3       10 UNK        -0.2776 
      8 C8         15.2302  -29.2702  -42.9196 C.3       10 UNK         0.0316 
      9 C9         16.4467  -28.8374  -42.1115 C.ar      10 UNK        -0.0863 
     10 C10        17.3868  -29.7905  -41.7052 C.ar      10 UNK        -0.1009 
     11 C11        18.4738  -29.4205  -40.9082 C.ar      10 UNK        -0.0712 
     12 C12        18.6072  -28.0923  -40.4994 C.ar      10 UNK        -0.0894 
     13 C13        17.6916  -27.1254  -40.9188 C.ar      10 UNK        -0.0745 
     14 C14        16.6126  -27.5021  -41.7270 C.ar      10 UNK        -0.0972 
     15 C15        17.8673  -25.6782  -40.4857 C.3       10 UNK         0.0209 
     16 S16        18.7665  -24.7028  -41.7308 S.3       10 UNK        -0.2568 
     17 C17        20.4819  -25.3245  -41.5828 C.3       10 UNK        -0.0983 
     18 CA         20.8767  -26.3574  -42.6776 C.3       3 UNK         0.0876 
     19 N          20.4954  -25.8912  -44.0159 N.am      3 UNK        -0.4424 
     20 C          20.2239  -26.6727  -45.0646 C.2       2 UNK         0.4918 
     21 O          20.4438  -27.8854  -45.0961 O.2       2 UNK        -0.4875 
     22 CA         19.5994  -25.9858  -46.2894 C.3       2 UNK         0.0481 
     23 CB         20.6127  -25.9081  -47.4422 C.3       2 UNK        -0.1831 
     24 N          18.4051  -26.7083  -46.7324 N.am      2 UNK        -0.4498 
     25 C          17.2915  -26.8572  -45.9978 C.2       1 UNK         0.5027 
     26 O          17.0994  -26.2776  -44.9274 O.2       1 UNK        -0.4969 
     27 C          22.3715  -26.7543  -42.6016 C.2       3 UNK         0.5005 
     28 O          23.0853  -26.2829  -41.7137 O.2       3 UNK        -0.5279 
     29 N          22.8230  -27.5854  -43.5538 N.am      4 UNK        -0.4463 
     30 CA         24.2002  -28.0334  -43.7888 C.3       4 UNK         0.0283 
     31 CB         24.1979  -29.1090  -44.8875 C.3       4 UNK        -0.1875 
     32 C          24.9050  -28.5403  -42.5198 C.2       4 UNK         0.4949 
     33 O          24.5975  -29.6328  -42.0367 O.2       4 UNK        -0.5039 
     34 N          25.7902  -27.6937  -41.9721 N.am      5 UNK        -0.4663 
     35 CA         26.5639  -27.8659  -40.7317 C.3       5 UNK         0.0242 
     36 CB         27.5976  -28.9987  -40.9114 C.3       5 UNK        -0.1982 
     37 C          25.7148  -28.0758  -39.4579 C.2       5 UNK         0.5017 
     38 O          26.2751  -28.4321  -38.4204 O.2       5 UNK        -0.5012 
     39 N          24.3875  -27.8984  -39.5647 N.am      6 UNK        -0.4439 
     40 CA         23.3486  -28.3129  -38.6150 C.3       6 UNK         0.0297 
     41 CB         23.3480  -27.3876  -37.3808 C.3       6 UNK        -0.2006 
     42 C          23.4217  -29.8130  -38.2412 C.2       6 UNK         0.4892 
     43 O          23.0537  -30.1746  -37.1216 O.2       6 UNK        -0.5089 
     44 N          23.9114  -30.6565  -39.1643 N.am      7 UNK        -0.4243 
     45 CA         24.1798  -32.0755  -38.9195 C.3       7 UNK         0.0196 
     46 CB         25.5040  -32.2481  -38.1511 C.3       7 UNK        -0.2007 
     47 C          24.1926  -32.8964  -40.2124 C.2       7 UNK         0.5020 
     48 O          23.5442  -33.9415  -40.2651 O.2       7 UNK        -0.5147 
     49 N          24.9051  -32.4187  -41.2441 N.am      8 UNK        -0.4734 
     50 CA         24.9990  -33.0724  -42.5588 C.3       8 UNK         0.0238 
     51 CB         26.1167  -32.4138  -43.3836 C.3       8 UNK        -0.1912 
     52 C          23.6671  -33.0663  -43.3313 C.2       8 UNK         0.5038 
     53 O          23.4491  -33.9319  -44.1795 O.2       8 UNK        -0.5046 
     54 N          22.7956  -32.1134  -42.9865 N.am      9 UNK        -0.4200 
     55 CA         21.3776  -32.0477  -43.3563 C.3       9 UNK         0.0839 
     56 C          20.4887  -33.1996  -42.7982 C.2       9 UNK         0.5513 
     57 N          20.9407  -33.9996  -41.8385 N.am      9 UNK        -0.7519 
     58 O          19.3617  -33.3724  -43.2541 O.2       9 UNK        -0.4960 
     59 C59        20.7873  -30.6564  -43.0098 C.3       10 UNK        -0.0876 
     60 S60        21.1132  -30.1351  -41.2861 S.3       10 UNK        -0.2414 
     61 C61        19.5113  -30.4464  -40.4841 C.3       10 UNK         0.0169 
     62 H62        14.8192  -26.3654  -50.0848 H         1 UNK         0.0903 
     63 H63        13.3860  -25.6248  -49.3706 H         1 UNK         0.0903 
     64 H64        14.8669  -24.6821  -49.5582 H         1 UNK         0.0903 
     65 H65        15.8710  -27.7111  -48.6736 H         1 UNK         0.3096 
     66 H66        16.7383  -28.6791  -46.9319 H         1 UNK         0.1121 
     67 H67        14.8309  -27.4225  -44.9129 H         1 UNK         0.0849 
     68 H68        14.2175  -28.5192  -46.1074 H         1 UNK         0.0849 
     69 H69        14.4536  -28.5043  -42.9000 H         1 UNK         0.0865 
     70 H70        14.7889  -30.1459  -42.4413 H         1 UNK         0.0865 
     71 H71        17.2693  -30.8216  -42.0108 H         1 UNK         0.1346 
     72 H72        19.4433  -27.8092  -39.8748 H         1 UNK         0.1412 
     73 H73        15.8997  -26.7553  -42.0496 H         1 UNK         0.1426 
     74 H74        18.3861  -25.6202  -39.5275 H         1 UNK         0.0716 
     75 H75        16.8880  -25.2242  -40.3271 H         1 UNK         0.0716 
     76 H76        20.6288  -25.7473  -40.5875 H         1 UNK         0.0695 
     77 H77        21.1370  -24.4528  -41.6354 H         1 UNK         0.0695 
     78 H78        20.3143  -27.2720  -42.4808 H         1 UNK         0.0983 
     79 H79        20.2896  -24.9052  -44.0834 H         1 UNK         0.3095 
     80 H80        19.3005  -24.9701  -46.0214 H         1 UNK         0.0454 
     81 H81        20.9378  -26.8988  -47.7631 H         1 UNK         0.0851 
     82 H82        21.5039  -25.3559  -47.1410 H         1 UNK         0.0851 
     83 H83        20.1927  -25.3951  -48.3075 H         1 UNK         0.0851 
     84 H84        18.4811  -27.2110  -47.6045 H         1 UNK         0.2976 
     85 H85        22.1293  -27.9044  -44.2244 H         1 UNK         0.3116 
     86 H86        24.7535  -27.1734  -44.1708 H         1 UNK         0.0646 
     87 H87        23.7840  -28.7247  -45.8199 H         1 UNK         0.0847 
     88 H88        25.2112  -29.4510  -45.1016 H         1 UNK         0.0847 
     89 H89        23.6138  -29.9823  -44.5989 H         1 UNK         0.0847 
     90 H90        25.9091  -26.7965  -42.4235 H         1 UNK         0.3040 
     91 H91        27.1103  -26.9342  -40.5764 H         1 UNK         0.1015 
     92 H92        27.1192  -29.9734  -41.0094 H         1 UNK         0.0786 
     93 H93        28.2741  -29.0545  -40.0576 H         1 UNK         0.0786 
     94 H94        28.2125  -28.8376  -41.7968 H         1 UNK         0.0786 
     95 H95        24.0422  -27.5362  -40.4497 H         1 UNK         0.3172 
     96 H96        22.3976  -28.1765  -39.1319 H         1 UNK         0.0595 
     97 H97        24.2529  -27.5104  -36.7849 H         1 UNK         0.0839 
     98 H98        22.4984  -27.6003  -36.7308 H         1 UNK         0.0839 
     99 H99        23.2765  -26.3396  -37.6714 H         1 UNK         0.0839 
    100 H100       24.1302  -30.2917  -40.0857 H         1 UNK         0.2998 
    101 H101       23.3715  -32.4778  -38.3044 H         1 UNK         0.0822 
    102 H102       25.7366  -33.3033  -38.0010 H         1 UNK         0.0787 
    103 H103       26.3416  -31.7987  -38.6861 H         1 UNK         0.0787 
    104 H104       25.4545  -31.7859  -37.1651 H         1 UNK         0.0787 
    105 H105       25.3588  -31.5184  -41.1633 H         1 UNK         0.3055 
    106 H106       25.2677  -34.1184  -42.3943 H         1 UNK         0.1106 
    107 H107       27.0771  -32.4748  -42.8715 H         1 UNK         0.0828 
    108 H108       26.2327  -32.9103  -44.3479 H         1 UNK         0.0828 
    109 H109       25.9096  -31.3631  -43.5834 H         1 UNK         0.0828 
    110 H110       23.0964  -31.4278  -42.3064 H         1 UNK         0.2931 
    111 H111       21.3389  -32.1504  -44.4423 H         1 UNK         0.0412 
    112 H112       21.8636  -33.8757  -41.4391 H         1 UNK         0.3472 
    113 H113       20.3472  -34.7395  -41.4991 H         1 UNK         0.3472 
    114 H114       21.2447  -29.9142  -43.6613 H         1 UNK         0.0970 
    115 H115       19.7199  -30.6078  -43.2319 H         1 UNK         0.0970 
    116 H116       19.1791  -31.4613  -40.7064 H         1 UNK         0.0612 
    117 H117       19.6453  -30.3956  -39.4026 H         1 UNK         0.0612 
@<TRIPOS>BOND
     1    1    2 1    
     2    1   62 1    
     3    1   63 1    
     4    1   64 1    
     5    2    3 2    
     6    2    4 am   BACKBONE|DICT|INTERRES
     7    4    5 1    
     8    4   65 1    
     9    5    6 1    
    10    5   25 1    
    11    5   66 1    
    12    6    7 1    
    13    6   67 1    
    14    6   68 1    
    15    7    8 1    
    16    8    9 1    
    17    8   69 1    
    18    8   70 1    
    19    9   10 ar   
    20    9   14 ar   
    21   10   11 ar   
    22   10   71 1    
    23   11   12 ar   
    24   11   61 1    
    25   12   13 ar   
    26   12   72 1    
    27   13   14 ar   
    28   13   15 1    
    29   14   73 1    
    30   15   16 1    
    31   15   74 1    
    32   15   75 1    
    33   16   17 1    
    34   17   18 1    
    35   17   76 1    
    36   17   77 1    
    37   18   19 1    
    38   18   27 1    
    39   18   78 1    
    40   19   20 am   BACKBONE|DICT|INTERRES
    41   19   79 1    
    42   20   21 2    
    43   20   22 1    
    44   22   23 1    
    45   22   24 1    
    46   22   80 1    
    47   23   81 1    
    48   23   82 1    
    49   23   83 1    
    50   24   25 am   BACKBONE|DICT|INTERRES
    51   24   84 1    
    52   25   26 2    
    53   27   28 2    
    54   27   29 am   BACKBONE|DICT|INTERRES
    55   29   30 1    
    56   29   85 1    
    57   30   31 1    
    58   30   32 1    
    59   30   86 1    
    60   31   87 1    
    61   31   88 1    
    62   31   89 1    
    63   32   33 2    
    64   32   34 am   BACKBONE|DICT|INTERRES
    65   34   35 1    
    66   34   90 1    
    67   35   36 1    
    68   35   37 1    
    69   35   91 1    
    70   36   92 1    
    71   36   93 1    
    72   36   94 1    
    73   37   38 2    
    74   37   39 am   BACKBONE|DICT|INTERRES
    75   39   40 1    
    76   39   95 1    
    77   40   41 1    
    78   40   42 1    
    79   40   96 1    
    80   41   97 1    
    81   41   98 1    
    82   41   99 1    
    83   42   43 2    
    84   42   44 am   BACKBONE|DICT|INTERRES
    85   44   45 1    
    86   44  100 1    
    87   45   46 1    
    88   45   47 1    
    89   45  101 1    
    90   46  102 1    
    91   46  103 1    
    92   46  104 1    
    93   47   48 2    
    94   47   49 am   BACKBONE|DICT|INTERRES
    95   49   50 1    
    96   49  105 1    
    97   50   51 1    
    98   50   52 1    
    99   50  106 1    
   100   51  107 1    
   101   51  108 1    
   102   51  109 1    
   103   52   53 2    
   104   52   54 am   BACKBONE|DICT|INTERRES
   105   54   55 1    
   106   54  110 1    
   107   55   56 1    
   108   55   59 1    
   109   55  111 1    
   110   56   57 am   BACKBONE|DICT|INTERRES
   111   56   58 2    
   112   57  112 1    
   113   57  113 1    
   114   59   60 1    
   115   59  114 1    
   116   59  115 1    
   117   60   61 1    
   118   61  116 1    
   119   61  117 1    
@<TRIPOS>SUBSTRUCTURE
     1 UNK         1 GROUP             0       ****    0 ROOT    
