@<TRIPOS>MOLECULE
3R8
117   119    1
SMALL
USER_CHARGES


@<TRIPOS>ATOM
      1 CA         16.2022  -22.9101  -46.8486 C.3       0 UNK        -0.2013 
      2 C          16.9125  -24.1064  -46.2341 C.2       0 UNK         0.4866 
      3 O          18.1061  -24.2994  -46.4683 O.2       0 UNK        -0.5176 
      4 N          16.1969  -24.9068  -45.4339 N.am      1 UNK        -0.4884 
      5 CA         16.6820  -26.1289  -44.7746 C.3       1 UNK         0.0853 
      6 C6         15.5176  -27.1079  -44.4700 C.3       10 UNK        -0.0849 
      7 S7         14.7063  -27.6702  -46.0079 S.3       10 UNK        -0.2776 
      8 C8         14.7542  -29.4901  -45.8495 C.3       10 UNK         0.0316 
      9 C9         16.1507  -30.0835  -45.6659 C.ar      10 UNK        -0.0863 
     10 C10        16.3243  -31.1544  -44.7823 C.ar      10 UNK        -0.1009 
     11 C11        17.5836  -31.7313  -44.5980 C.ar      10 UNK        -0.0712 
     12 C12        18.6784  -31.2330  -45.3063 C.ar      10 UNK        -0.0894 
     13 C13        18.5247  -30.1584  -46.1857 C.ar      10 UNK        -0.0745 
     14 C14        17.2574  -29.5974  -46.3744 C.ar      10 UNK        -0.0972 
     15 C15        19.7330  -29.6044  -46.9258 C.3       10 UNK         0.0209 
     16 S16        20.4286  -28.1440  -46.0898 S.3       10 UNK        -0.2568 
     17 C17        21.0623  -28.8648  -44.5335 C.3       10 UNK        -0.0983 
     18 CA         21.6009  -27.7955  -43.5538 C.3       3 UNK         0.0876 
     19 N          20.6101  -26.7354  -43.3378 N.am      3 UNK        -0.4424 
     20 C          20.7416  -25.6012  -42.6380 C.2       2 UNK         0.4918 
     21 O          21.7277  -25.3381  -41.9495 O.2       2 UNK        -0.4875 
     22 CA         19.5782  -24.5915  -42.7224 C.3       2 UNK         0.0481 
     23 CB         20.0978  -23.1837  -43.0590 C.3       2 UNK        -0.1831 
     24 N          18.5686  -24.9704  -43.7180 N.am      2 UNK        -0.4498 
     25 C          17.5392  -25.8061  -43.5277 C.2       1 UNK         0.5027 
     26 O          17.2783  -26.3177  -42.4380 O.2       1 UNK        -0.4969 
     27 C          22.1351  -28.4564  -42.2634 C.2       3 UNK         0.5005 
     28 O          23.1752  -29.1135  -42.3119 O.2       3 UNK        -0.5279 
     29 N          21.4720  -28.2421  -41.1178 N.am      4 UNK        -0.4463 
     30 CA         21.9820  -28.5761  -39.7842 C.3       4 UNK         0.0283 
     31 CB         20.9194  -28.2341  -38.7291 C.3       4 UNK        -0.1875 
     32 C          23.3168  -27.8787  -39.4548 C.2       4 UNK         0.4949 
     33 O          24.1523  -28.4744  -38.7764 O.2       4 UNK        -0.5039 
     34 N          23.5314  -26.6696  -39.9981 N.am      5 UNK        -0.4663 
     35 CA         24.8000  -25.9359  -39.9191 C.3       5 UNK         0.0242 
     36 CB         24.5707  -24.4813  -40.3598 C.3       5 UNK        -0.1982 
     37 C          25.9305  -26.5768  -40.7482 C.2       5 UNK         0.5017 
     38 O          27.1006  -26.3325  -40.4542 O.2       5 UNK        -0.5012 
     39 N          25.5675  -27.3958  -41.7457 N.am      6 UNK        -0.4439 
     40 CA         26.4768  -28.2067  -42.5591 C.3       6 UNK         0.0297 
     41 CB         25.9931  -28.1828  -44.0207 C.3       6 UNK        -0.2006 
     42 C          26.5894  -29.6524  -42.0320 C.2       6 UNK         0.4892 
     43 O          27.2180  -30.4789  -42.6944 O.2       6 UNK        -0.5089 
     44 N          25.9903  -29.9304  -40.8621 N.am      7 UNK        -0.4243 
     45 CA         25.9446  -31.2153  -40.1590 C.3       7 UNK         0.0196 
     46 CB         27.3557  -31.6492  -39.7049 C.3       7 UNK        -0.2007 
     47 C          25.1869  -32.3126  -40.9319 C.2       7 UNK         0.5020 
     48 O          25.6199  -33.4668  -40.9330 O.2       7 UNK        -0.5147 
     49 N          24.0608  -31.9428  -41.5613 N.am      8 UNK        -0.4734 
     50 CA         23.1090  -32.8755  -42.1744 C.3       8 UNK         0.0238 
     51 CB         22.3841  -32.1690  -43.3391 C.3       8 UNK        -0.1912 
     52 C          22.1601  -33.4622  -41.1047 C.2       8 UNK         0.5038 
     53 O          22.6308  -34.0619  -40.1369 O.2       8 UNK        -0.5046 
     54 N          20.8444  -33.2917  -41.2868 N.am      9 UNK        -0.4200 
     55 CA         19.7899  -33.7326  -40.3571 C.3       9 UNK         0.0839 
     56 C          19.7003  -32.9389  -39.0191 C.2       9 UNK         0.5513 
     57 N          20.4008  -31.8237  -38.8566 N.am      9 UNK        -0.7519 
     58 O          18.9902  -33.3544  -38.1069 O.2       9 UNK        -0.4960 
     59 C59        18.4115  -33.8330  -41.0645 C.3       10 UNK        -0.0876 
     60 S60        17.9213  -32.2945  -41.9226 S.3       10 UNK        -0.2414 
     61 C61        17.7650  -32.8903  -43.6327 C.3       10 UNK         0.0169 
     62 H62        16.2483  -22.9655  -47.9359 H         1 UNK         0.0903 
     63 H63        15.1535  -22.8635  -46.5557 H         1 UNK         0.0903 
     64 H64        16.6844  -21.9851  -46.5336 H         1 UNK         0.0903 
     65 H65        15.2243  -24.6892  -45.2675 H         1 UNK         0.3096 
     66 H66        17.3559  -26.6405  -45.4665 H         1 UNK         0.1121 
     67 H67        14.7711  -26.6352  -43.8293 H         1 UNK         0.0849 
     68 H68        15.8798  -27.9781  -43.9192 H         1 UNK         0.0849 
     69 H69        14.1089  -29.7726  -45.0160 H         1 UNK         0.0865 
     70 H70        14.3078  -29.9287  -46.7428 H         1 UNK         0.0865 
     71 H71        15.4787  -31.5428  -44.2305 H         1 UNK         0.1346 
     72 H72        19.6560  -31.6719  -45.1620 H         1 UNK         0.1412 
     73 H73        17.1377  -28.7734  -47.0644 H         1 UNK         0.1426 
     74 H74        20.5073  -30.3666  -47.0275 H         1 UNK         0.0716 
     75 H75        19.4446  -29.3258  -47.9404 H         1 UNK         0.0716 
     76 H76        21.8447  -29.5817  -44.7889 H         1 UNK         0.0695 
     77 H77        20.2609  -29.4276  -44.0537 H         1 UNK         0.0695 
     78 H78        22.4637  -27.3179  -44.0227 H         1 UNK         0.0983 
     79 H79        19.7657  -26.8398  -43.8792 H         1 UNK         0.3095 
     80 H80        19.1108  -24.5536  -41.7366 H         1 UNK         0.0454 
     81 H81        20.6016  -23.1603  -44.0261 H         1 UNK         0.0851 
     82 H82        19.2855  -22.4573  -43.0864 H         1 UNK         0.0851 
     83 H83        20.8122  -22.8377  -42.3106 H         1 UNK         0.0851 
     84 H84        18.6900  -24.6020  -44.6589 H         1 UNK         0.2976 
     85 H85        20.6241  -27.6954  -41.1591 H         1 UNK         0.3116 
     86 H86        22.1625  -29.6522  -39.7587 H         1 UNK         0.0646 
     87 H87        19.9905  -28.7758  -38.9087 H         1 UNK         0.0847 
     88 H88        21.2624  -28.5041  -37.7293 H         1 UNK         0.0847 
     89 H89        20.6898  -27.1678  -38.7172 H         1 UNK         0.0847 
     90 H90        22.8025  -26.2475  -40.5678 H         1 UNK         0.3040 
     91 H91        25.1246  -25.9313  -38.8760 H         1 UNK         0.1015 
     92 H92        24.2621  -24.4201  -41.4043 H         1 UNK         0.0786 
     93 H93        25.4831  -23.8928  -40.2547 H         1 UNK         0.0786 
     94 H94        23.8026  -23.9989  -39.7551 H         1 UNK         0.0786 
     95 H95        24.5814  -27.5843  -41.8806 H         1 UNK         0.3172 
     96 H96        27.4796  -27.7758  -42.5312 H         1 UNK         0.0595 
     97 H97        25.0274  -28.6747  -44.1385 H         1 UNK         0.0839 
     98 H98        26.6987  -28.6981  -44.6736 H         1 UNK         0.0839 
     99 H99        25.8986  -27.1623  -44.3920 H         1 UNK         0.0839 
    100 H100       25.4907  -29.1797  -40.4021 H         1 UNK         0.2998 
    101 H101       25.3582  -31.0370  -39.2563 H         1 UNK         0.0822 
    102 H102       27.3051  -32.5258  -39.0579 H         1 UNK         0.0787 
    103 H103       27.9935  -31.9076  -40.5507 H         1 UNK         0.0787 
    104 H104       27.8507  -30.8597  -39.1394 H         1 UNK         0.0787 
    105 H105       23.8069  -30.9600  -41.5764 H         1 UNK         0.3055 
    106 H106       23.6615  -33.7179  -42.5967 H         1 UNK         0.1106 
    107 H107       23.0996  -31.7477  -44.0458 H         1 UNK         0.0828 
    108 H108       21.7608  -32.8675  -43.8992 H         1 UNK         0.0828 
    109 H109       21.7477  -31.3553  -42.9927 H         1 UNK         0.0828 
    110 H110       20.5233  -32.7710  -42.0887 H         1 UNK         0.2931 
    111 H111       20.0524  -34.7492  -40.0573 H         1 UNK         0.0412 
    112 H112       20.3397  -31.3284  -37.9816 H         1 UNK         0.3472 
    113 H113       20.9864  -31.4824  -39.5989 H         1 UNK         0.3472 
    114 H114       18.4391  -34.6549  -41.7813 H         1 UNK         0.0970 
    115 H115       17.6258  -34.1032  -40.3563 H         1 UNK         0.0970 
    116 H116       16.9160  -33.5721  -43.7030 H         1 UNK         0.0612 
    117 H117       18.6513  -33.4676  -43.9016 H         1 UNK         0.0612 
@<TRIPOS>BOND
     1    1    2 1    
     2    1   62 1    
     3    1   63 1    
     4    1   64 1    
     5    2    3 2    
     6    2    4 am   BACKBONE|DICT|INTERRES
     7    4    5 1    
     8    4   65 1    
     9    5    6 1    
    10    5   25 1    
    11    5   66 1    
    12    6    7 1    
    13    6   67 1    
    14    6   68 1    
    15    7    8 1    
    16    8    9 1    
    17    8   69 1    
    18    8   70 1    
    19    9   10 ar   
    20    9   14 ar   
    21   10   11 ar   
    22   10   71 1    
    23   11   12 ar   
    24   11   61 1    
    25   12   13 ar   
    26   12   72 1    
    27   13   14 ar   
    28   13   15 1    
    29   14   73 1    
    30   15   16 1    
    31   15   74 1    
    32   15   75 1    
    33   16   17 1    
    34   17   18 1    
    35   17   76 1    
    36   17   77 1    
    37   18   19 1    
    38   18   27 1    
    39   18   78 1    
    40   19   20 am   BACKBONE|DICT|INTERRES
    41   19   79 1    
    42   20   21 2    
    43   20   22 1    
    44   22   23 1    
    45   22   24 1    
    46   22   80 1    
    47   23   81 1    
    48   23   82 1    
    49   23   83 1    
    50   24   25 am   BACKBONE|DICT|INTERRES
    51   24   84 1    
    52   25   26 2    
    53   27   28 2    
    54   27   29 am   BACKBONE|DICT|INTERRES
    55   29   30 1    
    56   29   85 1    
    57   30   31 1    
    58   30   32 1    
    59   30   86 1    
    60   31   87 1    
    61   31   88 1    
    62   31   89 1    
    63   32   33 2    
    64   32   34 am   BACKBONE|DICT|INTERRES
    65   34   35 1    
    66   34   90 1    
    67   35   36 1    
    68   35   37 1    
    69   35   91 1    
    70   36   92 1    
    71   36   93 1    
    72   36   94 1    
    73   37   38 2    
    74   37   39 am   BACKBONE|DICT|INTERRES
    75   39   40 1    
    76   39   95 1    
    77   40   41 1    
    78   40   42 1    
    79   40   96 1    
    80   41   97 1    
    81   41   98 1    
    82   41   99 1    
    83   42   43 2    
    84   42   44 am   BACKBONE|DICT|INTERRES
    85   44   45 1    
    86   44  100 1    
    87   45   46 1    
    88   45   47 1    
    89   45  101 1    
    90   46  102 1    
    91   46  103 1    
    92   46  104 1    
    93   47   48 2    
    94   47   49 am   BACKBONE|DICT|INTERRES
    95   49   50 1    
    96   49  105 1    
    97   50   51 1    
    98   50   52 1    
    99   50  106 1    
   100   51  107 1    
   101   51  108 1    
   102   51  109 1    
   103   52   53 2    
   104   52   54 am   BACKBONE|DICT|INTERRES
   105   54   55 1    
   106   54  110 1    
   107   55   56 1    
   108   55   59 1    
   109   55  111 1    
   110   56   57 am   BACKBONE|DICT|INTERRES
   111   56   58 2    
   112   57  112 1    
   113   57  113 1    
   114   59   60 1    
   115   59  114 1    
   116   59  115 1    
   117   60   61 1    
   118   61  116 1    
   119   61  117 1    
@<TRIPOS>SUBSTRUCTURE
     1 UNK         1 GROUP             0       ****    0 ROOT    
