@<TRIPOS>MOLECULE
3R8
117   119    1
SMALL
USER_CHARGES


@<TRIPOS>ATOM
      1 CA         12.7296  -23.2341  -46.2994 C.3       0 UNK        -0.2013 
      2 C          14.0518  -23.9799  -46.4019 C.2       0 UNK         0.4866 
      3 O          14.7180  -23.9064  -47.4354 O.2       0 UNK        -0.5176 
      4 N          14.4320  -24.7053  -45.3434 N.am      1 UNK        -0.4884 
      5 CA         15.6937  -25.4460  -45.2505 C.3       1 UNK         0.0853 
      6 C6         15.7050  -26.4223  -44.0485 C.3       10 UNK        -0.0849 
      7 S7         14.4428  -27.7387  -44.1105 S.3       10 UNK        -0.2776 
      8 C8         15.4568  -29.2499  -44.3447 C.3       10 UNK         0.0316 
      9 C9         16.5257  -29.5468  -43.2827 C.ar      10 UNK        -0.0863 
     10 C10        17.4377  -30.5790  -43.5326 C.ar      10 UNK        -0.1009 
     11 C11        18.4645  -30.8688  -42.6276 C.ar      10 UNK        -0.0712 
     12 C12        18.5949  -30.1013  -41.4681 C.ar      10 UNK        -0.0894 
     13 C13        17.6998  -29.0627  -41.2049 C.ar      10 UNK        -0.0745 
     14 C14        16.6480  -28.8183  -42.0911 C.ar      10 UNK        -0.0972 
     15 C15        17.8809  -28.1738  -39.9849 C.3       10 UNK         0.0209 
     16 S16        18.5669  -26.5498  -40.4538 S.3       10 UNK        -0.2568 
     17 C17        20.3156  -26.9545  -40.7905 C.3       10 UNK        -0.0983 
     18 CA         20.6519  -27.1114  -42.3010 C.3       3 UNK         0.0876 
     19 N          20.2650  -25.9197  -43.0741 N.am      3 UNK        -0.4424 
     20 C          19.9833  -25.9036  -44.3814 C.2       2 UNK         0.4918 
     21 O          20.1428  -26.8726  -45.1263 O.2       2 UNK        -0.4875 
     22 CA         19.3781  -24.6203  -44.9590 C.3       2 UNK         0.0481 
     23 CB         20.2396  -24.0496  -46.0976 C.3       2 UNK        -0.1831 
     24 N          18.0767  -25.0273  -45.4723 N.am      2 UNK        -0.4498 
     25 C          16.9059  -24.5042  -45.0971 C.2       1 UNK         0.5027 
     26 O          16.7811  -23.4062  -44.5474 O.2       1 UNK        -0.4969 
     27 C          22.1260  -27.5409  -42.5229 C.2       3 UNK         0.5005 
     28 O          22.7842  -27.9474  -41.5653 O.2       3 UNK        -0.5279 
     29 N          22.6174  -27.4426  -43.7692 N.am      4 UNK        -0.4463 
     30 CA         23.9528  -27.8175  -44.2553 C.3       4 UNK         0.0283 
     31 CB         24.0377  -29.3542  -44.3863 C.3       4 UNK        -0.1875 
     32 C          25.1078  -27.2009  -43.4328 C.2       4 UNK         0.4949 
     33 O          24.9771  -26.0781  -42.9403 O.2       4 UNK        -0.5039 
     34 N          26.2248  -27.9320  -43.3122 N.am      5 UNK        -0.4663 
     35 CA         27.3457  -27.5960  -42.4274 C.3       5 UNK         0.0242 
     36 CB         28.6261  -28.2560  -42.9653 C.3       5 UNK        -0.1982 
     37 C          27.0890  -28.0295  -40.9713 C.2       5 UNK         0.5017 
     38 O          27.6933  -27.4666  -40.0578 O.2       5 UNK        -0.5012 
     39 N          26.2042  -29.0146  -40.7840 N.am      6 UNK        -0.4439 
     40 CA         25.7324  -29.5410  -39.5107 C.3       6 UNK         0.0297 
     41 CB         26.7282  -30.5727  -38.9522 C.3       6 UNK        -0.2006 
     42 C          24.3661  -30.1773  -39.7781 C.2       6 UNK         0.4892 
     43 O          24.1736  -30.7537  -40.8523 O.2       6 UNK        -0.5089 
     44 N          23.4580  -30.0819  -38.7979 N.am      7 UNK        -0.4243 
     45 CA         22.0336  -30.4270  -38.9127 C.3       7 UNK         0.0196 
     46 CB         21.2953  -29.9351  -37.6563 C.3       7 UNK        -0.2007 
     47 C          21.7052  -31.9047  -39.2025 C.2       7 UNK         0.5020 
     48 O          20.5430  -32.2163  -39.4592 O.2       7 UNK        -0.5147 
     49 N          22.7092  -32.7891  -39.1781 N.am      8 UNK        -0.4734 
     50 CA         22.6008  -34.1619  -39.6766 C.3       8 UNK         0.0238 
     51 CB         23.7931  -34.9812  -39.1562 C.3       8 UNK        -0.1912 
     52 C          22.5283  -34.2357  -41.2156 C.2       8 UNK         0.5038 
     53 O          21.9934  -35.2159  -41.7361 O.2       8 UNK        -0.5046 
     54 N          23.0650  -33.2164  -41.9053 N.am      9 UNK        -0.4200 
     55 CA         23.2006  -33.1199  -43.3677 C.3       9 UNK         0.0839 
     56 C          24.0833  -34.2530  -43.9808 C.2       9 UNK         0.5513 
     57 N          24.0150  -34.4898  -45.2848 N.am      9 UNK        -0.7519 
     58 O          24.8835  -34.8886  -43.2965 O.2       9 UNK        -0.4960 
     59 C59        21.8344  -32.9096  -44.0865 C.3       10 UNK        -0.0876 
     60 S60        21.0018  -31.3635  -43.5847 S.3       10 UNK        -0.2414 
     61 C61        19.4413  -32.0007  -42.9077 C.3       10 UNK         0.0169 
     62 H62        12.0504  -23.5643  -47.0850 H         1 UNK         0.0903 
     63 H63        12.2419  -23.3984  -45.3386 H         1 UNK         0.0903 
     64 H64        12.8932  -22.1632  -46.4177 H         1 UNK         0.0903 
     65 H65        13.8515  -24.7274  -44.5170 H         1 UNK         0.3096 
     66 H66        15.8174  -26.0189  -46.1727 H         1 UNK         0.1121 
     67 H67        15.5650  -25.8743  -43.1140 H         1 UNK         0.0849 
     68 H68        16.6867  -26.8921  -43.9674 H         1 UNK         0.0849 
     69 H69        14.7810  -30.1045  -44.3991 H         1 UNK         0.0865 
     70 H70        15.9399  -29.1815  -45.3207 H         1 UNK         0.0865 
     71 H71        17.3540  -31.1568  -44.4433 H         1 UNK         0.1346 
     72 H72        19.4056  -30.3024  -40.7829 H         1 UNK         0.1412 
     73 H73        15.9568  -28.0222  -41.8574 H         1 UNK         0.1426 
     74 H74        18.5221  -28.6496  -39.2411 H         1 UNK         0.0716 
     75 H75        16.9144  -28.0222  -39.5023 H         1 UNK         0.0716 
     76 H76        20.5637  -27.8640  -40.2429 H         1 UNK         0.0695 
     77 H77        20.9293  -26.1664  -40.3506 H         1 UNK         0.0695 
     78 H78        20.0544  -27.9462  -42.6742 H         1 UNK         0.0983 
     79 H79        20.1115  -25.0820  -42.5315 H         1 UNK         0.3095 
     80 H80        19.2803  -23.8724  -44.1690 H         1 UNK         0.0454 
     81 H81        19.7828  -23.1576  -46.5264 H         1 UNK         0.0851 
     82 H82        20.3817  -24.7709  -46.9034 H         1 UNK         0.0851 
     83 H83        21.2278  -23.7662  -45.7335 H         1 UNK         0.0851 
     84 H84        18.0811  -25.9441  -45.9015 H         1 UNK         0.2976 
     85 H85        21.9670  -27.1191  -44.4782 H         1 UNK         0.3116 
     86 H86        24.0386  -27.3940  -45.2568 H         1 UNK         0.0646 
     87 H87        24.0049  -29.8396  -43.4105 H         1 UNK         0.0847 
     88 H88        23.2039  -29.7415  -44.9719 H         1 UNK         0.0847 
     89 H89        24.9471  -29.6736  -44.8956 H         1 UNK         0.0847 
     90 H90        26.2711  -28.8230  -43.7853 H         1 UNK         0.3040 
     91 H91        27.4922  -26.5133  -42.4278 H         1 UNK         0.1015 
     92 H92        29.4854  -28.0034  -42.3423 H         1 UNK         0.0786 
     93 H93        28.8515  -27.9183  -43.9771 H         1 UNK         0.0786 
     94 H94        28.5456  -29.3437  -42.9829 H         1 UNK         0.0786 
     95 H95        25.7023  -29.3862  -41.5809 H         1 UNK         0.3172 
     96 H96        25.6128  -28.7173  -38.8036 H         1 UNK         0.0595 
     97 H97        26.8691  -31.4085  -39.6391 H         1 UNK         0.0839 
     98 H98        26.3771  -30.9827  -38.0045 H         1 UNK         0.0839 
     99 H99        27.7043  -30.1238  -38.7679 H         1 UNK         0.0839 
    100 H100       23.7320  -29.6255  -37.9395 H         1 UNK         0.2998 
    101 H101       21.6500  -29.8703  -39.7692 H         1 UNK         0.0822 
    102 H102       20.2249  -30.1351  -37.7243 H         1 UNK         0.0787 
    103 H103       21.4102  -28.8590  -37.5239 H         1 UNK         0.0787 
    104 H104       21.6624  -30.4286  -36.7556 H         1 UNK         0.0787 
    105 H105       23.6339  -32.4497  -38.9572 H         1 UNK         0.3055 
    106 H106       21.6815  -34.6034  -39.2842 H         1 UNK         0.1106 
    107 H107       23.8233  -34.9923  -38.0666 H         1 UNK         0.0828 
    108 H108       23.7265  -36.0184  -39.4879 H         1 UNK         0.0828 
    109 H109       24.7436  -34.5855  -39.5169 H         1 UNK         0.0828 
    110 H110       23.4659  -32.4366  -41.3916 H         1 UNK         0.2931 
    111 H111       23.7904  -32.2176  -43.5264 H         1 UNK         0.0412 
    112 H112       23.3976  -33.9667  -45.8848 H         1 UNK         0.3472 
    113 H113       24.6035  -35.2073  -45.6795 H         1 UNK         0.3472 
    114 H114       21.1807  -33.7672  -43.9208 H         1 UNK         0.0970 
    115 H115       21.9667  -32.8386  -45.1662 H         1 UNK         0.0970 
    116 H116       19.0023  -32.7087  -43.6122 H         1 UNK         0.0612 
    117 H117       19.6445  -32.5582  -41.9925 H         1 UNK         0.0612 
@<TRIPOS>BOND
     1    1    2 1    
     2    1   62 1    
     3    1   63 1    
     4    1   64 1    
     5    2    3 2    
     6    2    4 am   BACKBONE|DICT|INTERRES
     7    4    5 1    
     8    4   65 1    
     9    5    6 1    
    10    5   25 1    
    11    5   66 1    
    12    6    7 1    
    13    6   67 1    
    14    6   68 1    
    15    7    8 1    
    16    8    9 1    
    17    8   69 1    
    18    8   70 1    
    19    9   10 ar   
    20    9   14 ar   
    21   10   11 ar   
    22   10   71 1    
    23   11   12 ar   
    24   11   61 1    
    25   12   13 ar   
    26   12   72 1    
    27   13   14 ar   
    28   13   15 1    
    29   14   73 1    
    30   15   16 1    
    31   15   74 1    
    32   15   75 1    
    33   16   17 1    
    34   17   18 1    
    35   17   76 1    
    36   17   77 1    
    37   18   19 1    
    38   18   27 1    
    39   18   78 1    
    40   19   20 am   BACKBONE|DICT|INTERRES
    41   19   79 1    
    42   20   21 2    
    43   20   22 1    
    44   22   23 1    
    45   22   24 1    
    46   22   80 1    
    47   23   81 1    
    48   23   82 1    
    49   23   83 1    
    50   24   25 am   BACKBONE|DICT|INTERRES
    51   24   84 1    
    52   25   26 2    
    53   27   28 2    
    54   27   29 am   BACKBONE|DICT|INTERRES
    55   29   30 1    
    56   29   85 1    
    57   30   31 1    
    58   30   32 1    
    59   30   86 1    
    60   31   87 1    
    61   31   88 1    
    62   31   89 1    
    63   32   33 2    
    64   32   34 am   BACKBONE|DICT|INTERRES
    65   34   35 1    
    66   34   90 1    
    67   35   36 1    
    68   35   37 1    
    69   35   91 1    
    70   36   92 1    
    71   36   93 1    
    72   36   94 1    
    73   37   38 2    
    74   37   39 am   BACKBONE|DICT|INTERRES
    75   39   40 1    
    76   39   95 1    
    77   40   41 1    
    78   40   42 1    
    79   40   96 1    
    80   41   97 1    
    81   41   98 1    
    82   41   99 1    
    83   42   43 2    
    84   42   44 am   BACKBONE|DICT|INTERRES
    85   44   45 1    
    86   44  100 1    
    87   45   46 1    
    88   45   47 1    
    89   45  101 1    
    90   46  102 1    
    91   46  103 1    
    92   46  104 1    
    93   47   48 2    
    94   47   49 am   BACKBONE|DICT|INTERRES
    95   49   50 1    
    96   49  105 1    
    97   50   51 1    
    98   50   52 1    
    99   50  106 1    
   100   51  107 1    
   101   51  108 1    
   102   51  109 1    
   103   52   53 2    
   104   52   54 am   BACKBONE|DICT|INTERRES
   105   54   55 1    
   106   54  110 1    
   107   55   56 1    
   108   55   59 1    
   109   55  111 1    
   110   56   57 am   BACKBONE|DICT|INTERRES
   111   56   58 2    
   112   57  112 1    
   113   57  113 1    
   114   59   60 1    
   115   59  114 1    
   116   59  115 1    
   117   60   61 1    
   118   61  116 1    
   119   61  117 1    
@<TRIPOS>SUBSTRUCTURE
     1 UNK         1 GROUP             0       ****    0 ROOT    
