@<TRIPOS>MOLECULE
3R8
117   119    1
SMALL
USER_CHARGES


@<TRIPOS>ATOM
      1 CA         20.3979  -28.1970  -46.9451 C.3       0 UNK        -0.2013 
      2 C          20.0889  -26.8305  -47.5490 C.2       0 UNK         0.4866 
      3 O          20.7878  -26.4065  -48.4666 O.2       0 UNK        -0.5176 
      4 N          19.0754  -26.0946  -47.0716 N.am      1 UNK        -0.4884 
      5 CA         18.1455  -26.4384  -45.9846 C.3       1 UNK         0.0853 
      6 C6         16.6640  -26.2600  -46.4039 C.3       10 UNK        -0.0849 
      7 S7         16.1807  -27.5086  -47.6409 S.3       10 UNK        -0.2776 
      8 C8         15.2693  -28.7078  -46.6088 C.3       10 UNK         0.0316 
      9 C9         16.1337  -29.3471  -45.5252 C.ar      10 UNK        -0.0863 
     10 C10        17.2504  -30.1128  -45.8758 C.ar      10 UNK        -0.1009 
     11 C11        18.0241  -30.7309  -44.8902 C.ar      10 UNK        -0.0712 
     12 C12        17.6468  -30.6160  -43.5495 C.ar      10 UNK        -0.0894 
     13 C13        16.5510  -29.8324  -43.1750 C.ar      10 UNK        -0.0745 
     14 C14        15.7999  -29.1997  -44.1729 C.ar      10 UNK        -0.0972 
     15 C15        16.1311  -29.6994  -41.7093 C.3       10 UNK         0.0209 
     16 S16        17.5128  -29.6767  -40.5068 S.3       10 UNK        -0.2568 
     17 C17        18.3342  -28.0988  -40.9012 C.3       10 UNK        -0.0983 
     18 CA         19.7272  -28.3101  -41.5602 C.3       3 UNK         0.0876 
     19 N          20.0853  -27.1986  -42.4405 N.am      3 UNK        -0.4424 
     20 C          20.3148  -25.9235  -42.0897 C.2       2 UNK         0.4918 
     21 O          20.4547  -25.5476  -40.9256 O.2       2 UNK        -0.4875 
     22 CA         20.3533  -24.8824  -43.2324 C.3       2 UNK         0.0481 
     23 CB         21.7773  -24.3607  -43.4810 C.3       2 UNK        -0.1831 
     24 N          19.7970  -25.3950  -44.4914 N.am      2 UNK        -0.4498 
     25 C          18.4985  -25.6729  -44.6933 C.2       1 UNK         0.5027 
     26 O          17.6170  -25.3922  -43.8803 O.2       1 UNK        -0.4969 
     27 C          20.8846  -28.6424  -40.6000 C.2       3 UNK         0.5005 
     28 O          21.8920  -29.1877  -41.0547 O.2       3 UNK        -0.5279 
     29 N          20.7723  -28.2733  -39.3164 N.am      4 UNK        -0.4463 
     30 CA         21.8399  -28.3905  -38.3163 C.3       4 UNK         0.0283 
     31 CB         21.3164  -27.9300  -36.9476 C.3       4 UNK        -0.1875 
     32 C          23.1141  -27.6137  -38.6967 C.2       4 UNK         0.4949 
     33 O          24.2161  -28.1002  -38.4464 O.2       4 UNK        -0.5039 
     34 N          22.9445  -26.4561  -39.3521 N.am      5 UNK        -0.4663 
     35 CA         24.0384  -25.6419  -39.8896 C.3       5 UNK         0.0242 
     36 CB         23.5864  -24.1752  -39.9744 C.3       5 UNK        -0.1982 
     37 C          24.5889  -26.1601  -41.2345 C.2       5 UNK         0.5017 
     38 O          25.6287  -25.6713  -41.6752 O.2       5 UNK        -0.5012 
     39 N          23.9318  -27.1643  -41.8358 N.am      6 UNK        -0.4439 
     40 CA         24.4327  -27.9531  -42.9675 C.3       6 UNK         0.0297 
     41 CB         23.3053  -28.1567  -43.9987 C.3       6 UNK        -0.2006 
     42 C          25.0213  -29.2946  -42.4792 C.2       6 UNK         0.4892 
     43 O          24.9947  -30.2789  -43.2188 O.2       6 UNK        -0.5089 
     44 N          25.5342  -29.3073  -41.2379 N.am      7 UNK        -0.4243 
     45 CA         26.1336  -30.4382  -40.5205 C.3       7 UNK         0.0196 
     46 CB         27.4180  -30.9267  -41.2253 C.3       7 UNK        -0.2007 
     47 C          25.1372  -31.5752  -40.2206 C.2       7 UNK         0.5020 
     48 O          25.5420  -32.7376  -40.1701 O.2       7 UNK        -0.5147 
     49 N          23.8629  -31.2134  -40.0020 N.am      8 UNK        -0.4734 
     50 CA         22.7269  -32.0908  -39.6960 C.3       8 UNK         0.0238 
     51 CB         22.9076  -32.7770  -38.3249 C.3       8 UNK        -0.1912 
     52 C          22.4448  -33.0760  -40.8423 C.2       8 UNK         0.5038 
     53 O          22.5014  -34.2916  -40.6449 O.2       8 UNK        -0.5046 
     54 N          22.1594  -32.5193  -42.0269 N.am      9 UNK        -0.4200 
     55 CA         21.8385  -33.2666  -43.2549 C.3       9 UNK         0.0839 
     56 C          20.5495  -34.1409  -43.2000 C.2       9 UNK         0.5513 
     57 N          19.6411  -33.9347  -42.2534 N.am      9 UNK        -0.7519 
     58 O          20.3749  -35.0237  -44.0359 O.2       9 UNK        -0.4960 
     59 C59        21.8642  -32.3541  -44.5127 C.3       10 UNK        -0.0876 
     60 S60        20.7411  -30.9178  -44.4092 S.3       10 UNK        -0.2414 
     61 C61        19.2555  -31.5427  -45.2625 C.3       10 UNK         0.0169 
     62 H62        20.5266  -28.1388  -45.8654 H         1 UNK         0.0903 
     63 H63        19.5992  -28.9021  -47.1699 H         1 UNK         0.0903 
     64 H64        21.3207  -28.6005  -47.3618 H         1 UNK         0.0903 
     65 H65        18.9121  -25.1900  -47.4925 H         1 UNK         0.3096 
     66 H66        18.2620  -27.4849  -45.7053 H         1 UNK         0.1121 
     67 H67        16.4963  -25.2643  -46.8180 H         1 UNK         0.0849 
     68 H68        15.9878  -26.3491  -45.5515 H         1 UNK         0.0849 
     69 H69        14.3998  -28.2128  -46.1733 H         1 UNK         0.0865 
     70 H70        14.8761  -29.4954  -47.2530 H         1 UNK         0.0865 
     71 H71        17.5139  -30.2239  -46.9188 H         1 UNK         0.1346 
     72 H72        18.2251  -31.1321  -42.7959 H         1 UNK         0.1412 
     73 H73        14.9368  -28.6093  -43.8962 H         1 UNK         0.1426 
     74 H74        15.4794  -30.5392  -41.4658 H         1 UNK         0.0716 
     75 H75        15.5342  -28.7972  -41.5658 H         1 UNK         0.0716 
     76 H76        18.3793  -27.4716  -40.0103 H         1 UNK         0.0695 
     77 H77        17.6858  -27.5543  -41.5903 H         1 UNK         0.0695 
     78 H78        19.6524  -29.1704  -42.2247 H         1 UNK         0.0983 
     79 H79        20.0486  -27.4084  -43.4250 H         1 UNK         0.3095 
     80 H80        19.7391  -24.0352  -42.9204 H         1 UNK         0.0454 
     81 H81        22.4984  -25.1656  -43.6099 H         1 UNK         0.0851 
     82 H82        22.1168  -23.7521  -42.6451 H         1 UNK         0.0851 
     83 H83        21.8220  -23.7246  -44.3651 H         1 UNK         0.0851 
     84 H84        20.4521  -25.5993  -45.2324 H         1 UNK         0.2976 
     85 H85        19.9213  -27.8152  -39.0234 H         1 UNK         0.3116 
     86 H86        22.1086  -29.4451  -38.2372 H         1 UNK         0.0646 
     87 H87        20.4655  -28.5301  -36.6248 H         1 UNK         0.0847 
     88 H88        22.0879  -28.0285  -36.1824 H         1 UNK         0.0847 
     89 H89        21.0052  -26.8847  -36.9630 H         1 UNK         0.0847 
     90 H90        22.0019  -26.1450  -39.5635 H         1 UNK         0.3040 
     91 H91        24.8759  -25.6811  -39.1889 H         1 UNK         0.1015 
     92 H92        22.6464  -24.0692  -40.5110 H         1 UNK         0.0786 
     93 H93        24.3293  -23.5552  -40.4784 H         1 UNK         0.0786 
     94 H94        23.4412  -23.7558  -38.9788 H         1 UNK         0.0786 
     95 H95        23.1146  -27.5509  -41.3760 H         1 UNK         0.3172 
     96 H96        25.2441  -27.4209  -43.4675 H         1 UNK         0.0595 
     97 H97        22.4504  -28.6705  -43.5627 H         1 UNK         0.0839 
     98 H98        23.6447  -28.7568  -44.8440 H         1 UNK         0.0839 
     99 H99        22.9582  -27.2111  -44.4089 H         1 UNK         0.0839 
    100 H100       25.4773  -28.4497  -40.7065 H         1 UNK         0.2998 
    101 H101       26.4282  -30.0457  -39.5459 H         1 UNK         0.0822 
    102 H102       27.9478  -31.6561  -40.6115 H         1 UNK         0.0787 
    103 H103       27.1993  -31.4057  -42.1801 H         1 UNK         0.0787 
    104 H104       28.1065  -30.1027  -41.4123 H         1 UNK         0.0787 
    105 H105       23.6231  -30.2390  -40.1408 H         1 UNK         0.3055 
    106 H106       21.8444  -31.4546  -39.6206 H         1 UNK         0.1106 
    107 H107       22.0212  -33.3550  -38.0608 H         1 UNK         0.0828 
    108 H108       23.7540  -33.4643  -38.3183 H         1 UNK         0.0828 
    109 H109       23.0643  -32.0445  -37.5332 H         1 UNK         0.0828 
    110 H110       22.1457  -31.5110  -42.1047 H         1 UNK         0.2931 
    111 H111       22.6545  -33.9809  -43.3817 H         1 UNK         0.0412 
    112 H112       18.8155  -34.5119  -42.2281 H         1 UNK         0.3472 
    113 H113       19.7784  -33.2180  -41.5605 H         1 UNK         0.3472 
    114 H114       21.6527  -32.9252  -45.4187 H         1 UNK         0.0970 
    115 H115       22.8747  -31.9641  -44.6475 H         1 UNK         0.0970 
    116 H116       19.0716  -32.5834  -44.9997 H         1 UNK         0.0612 
    117 H117       19.4326  -31.5196  -46.3388 H         1 UNK         0.0612 
@<TRIPOS>BOND
     1    1    2 1    
     2    1   62 1    
     3    1   63 1    
     4    1   64 1    
     5    2    3 2    
     6    2    4 am   BACKBONE|DICT|INTERRES
     7    4    5 1    
     8    4   65 1    
     9    5    6 1    
    10    5   25 1    
    11    5   66 1    
    12    6    7 1    
    13    6   67 1    
    14    6   68 1    
    15    7    8 1    
    16    8    9 1    
    17    8   69 1    
    18    8   70 1    
    19    9   10 ar   
    20    9   14 ar   
    21   10   11 ar   
    22   10   71 1    
    23   11   12 ar   
    24   11   61 1    
    25   12   13 ar   
    26   12   72 1    
    27   13   14 ar   
    28   13   15 1    
    29   14   73 1    
    30   15   16 1    
    31   15   74 1    
    32   15   75 1    
    33   16   17 1    
    34   17   18 1    
    35   17   76 1    
    36   17   77 1    
    37   18   19 1    
    38   18   27 1    
    39   18   78 1    
    40   19   20 am   BACKBONE|DICT|INTERRES
    41   19   79 1    
    42   20   21 2    
    43   20   22 1    
    44   22   23 1    
    45   22   24 1    
    46   22   80 1    
    47   23   81 1    
    48   23   82 1    
    49   23   83 1    
    50   24   25 am   BACKBONE|DICT|INTERRES
    51   24   84 1    
    52   25   26 2    
    53   27   28 2    
    54   27   29 am   BACKBONE|DICT|INTERRES
    55   29   30 1    
    56   29   85 1    
    57   30   31 1    
    58   30   32 1    
    59   30   86 1    
    60   31   87 1    
    61   31   88 1    
    62   31   89 1    
    63   32   33 2    
    64   32   34 am   BACKBONE|DICT|INTERRES
    65   34   35 1    
    66   34   90 1    
    67   35   36 1    
    68   35   37 1    
    69   35   91 1    
    70   36   92 1    
    71   36   93 1    
    72   36   94 1    
    73   37   38 2    
    74   37   39 am   BACKBONE|DICT|INTERRES
    75   39   40 1    
    76   39   95 1    
    77   40   41 1    
    78   40   42 1    
    79   40   96 1    
    80   41   97 1    
    81   41   98 1    
    82   41   99 1    
    83   42   43 2    
    84   42   44 am   BACKBONE|DICT|INTERRES
    85   44   45 1    
    86   44  100 1    
    87   45   46 1    
    88   45   47 1    
    89   45  101 1    
    90   46  102 1    
    91   46  103 1    
    92   46  104 1    
    93   47   48 2    
    94   47   49 am   BACKBONE|DICT|INTERRES
    95   49   50 1    
    96   49  105 1    
    97   50   51 1    
    98   50   52 1    
    99   50  106 1    
   100   51  107 1    
   101   51  108 1    
   102   51  109 1    
   103   52   53 2    
   104   52   54 am   BACKBONE|DICT|INTERRES
   105   54   55 1    
   106   54  110 1    
   107   55   56 1    
   108   55   59 1    
   109   55  111 1    
   110   56   57 am   BACKBONE|DICT|INTERRES
   111   56   58 2    
   112   57  112 1    
   113   57  113 1    
   114   59   60 1    
   115   59  114 1    
   116   59  115 1    
   117   60   61 1    
   118   61  116 1    
   119   61  117 1    
@<TRIPOS>SUBSTRUCTURE
     1 UNK         1 GROUP             0       ****    0 ROOT    
