@<TRIPOS>MOLECULE
3R8
117   119    1
SMALL
USER_CHARGES


@<TRIPOS>ATOM
      1 CA         21.0179  -24.2553  -40.2813 C.3       0 UNK        -0.2013 
      2 C          20.0255  -24.0049  -41.4060 C.2       0 UNK         0.4866 
      3 O          19.4325  -22.9275  -41.4727 O.2       0 UNK        -0.5176 
      4 N          19.8333  -24.9960  -42.2817 N.am      1 UNK        -0.4884 
      5 CA         18.9260  -24.9365  -43.4292 C.3       1 UNK         0.0853 
      6 C6         18.2862  -26.3204  -43.7183 C.3       10 UNK        -0.0849 
      7 S7         17.4272  -27.0271  -42.2720 S.3       10 UNK        -0.2776 
      8 C8         16.4087  -28.3164  -43.0554 C.3       10 UNK         0.0316 
      9 C9         17.2515  -29.4003  -43.7152 C.ar      10 UNK        -0.0863 
     10 C10        17.8915  -30.3676  -42.9343 C.ar      10 UNK        -0.1009 
     11 C11        18.6272  -31.3933  -43.5363 C.ar      10 UNK        -0.0712 
     12 C12        18.7347  -31.4370  -44.9300 C.ar      10 UNK        -0.0894 
     13 C13        18.1052  -30.4719  -45.7219 C.ar      10 UNK        -0.0745 
     14 C14        17.3608  -29.4590  -45.1081 C.ar      10 UNK        -0.0972 
     15 C15        18.1968  -30.5483  -47.2409 C.3       10 UNK         0.0209 
     16 S16        19.7622  -29.8720  -47.8800 S.3       10 UNK        -0.2568 
     17 C17        19.5418  -28.0932  -47.5357 C.3       10 UNK        -0.0983 
     18 CA         20.8129  -27.2162  -47.7249 C.3       3 UNK         0.0876 
     19 N          20.5895  -25.8424  -47.2872 N.am      3 UNK        -0.4424 
     20 C          19.7521  -24.9583  -47.8356 C.2       2 UNK         0.4918 
     21 O          19.1430  -25.1522  -48.8887 O.2       2 UNK        -0.4875 
     22 CA         19.5187  -23.6655  -47.0229 C.3       2 UNK         0.0481 
     23 CB         18.5683  -22.6829  -47.7316 C.3       2 UNK        -0.1831 
     24 N          18.9832  -23.9738  -45.6895 N.am      2 UNK        -0.4498 
     25 C          19.7054  -24.4521  -44.6663 C.2       1 UNK         0.5027 
     26 O          20.9313  -24.5935  -44.7220 O.2       1 UNK        -0.4969 
     27 C          22.0336  -27.7416  -46.9504 C.2       3 UNK         0.5005 
     28 O          23.0683  -28.0270  -47.5558 O.2       3 UNK        -0.5279 
     29 N          21.8945  -27.8310  -45.6227 N.am      4 UNK        -0.4463 
     30 CA         22.8894  -28.3323  -44.6829 C.3       4 UNK         0.0283 
     31 CB         22.8586  -29.8704  -44.6695 C.3       4 UNK        -0.1875 
     32 C          22.5688  -27.7623  -43.2981 C.2       4 UNK         0.4949 
     33 O          21.4352  -27.3410  -43.0528 O.2       4 UNK        -0.5039 
     34 N          23.5610  -27.7650  -42.4015 N.am      5 UNK        -0.4663 
     35 CA         23.4861  -27.1738  -41.0611 C.3       5 UNK         0.0242 
     36 CB         24.9111  -26.8560  -40.5697 C.3       5 UNK        -0.1982 
     37 C          22.6602  -27.9987  -40.0477 C.2       5 UNK         0.5017 
     38 O          23.1472  -28.2786  -38.9516 O.2       5 UNK        -0.5012 
     39 N          21.4223  -28.3475  -40.4289 N.am      6 UNK        -0.4439 
     40 CA         20.3514  -28.9740  -39.6435 C.3       6 UNK         0.0297 
     41 CB         19.6975  -27.9264  -38.7175 C.3       6 UNK        -0.2006 
     42 C          20.7913  -30.2492  -38.8997 C.2       6 UNK         0.4892 
     43 O          20.7500  -31.3336  -39.4780 O.2       6 UNK        -0.5089 
     44 N          21.2287  -30.0998  -37.6413 N.am      7 UNK        -0.4243 
     45 CA         21.7667  -31.1690  -36.7935 C.3       7 UNK         0.0196 
     46 CB         22.0040  -30.6125  -35.3802 C.3       7 UNK        -0.2007 
     47 C          23.0524  -31.8226  -37.3392 C.2       7 UNK         0.5020 
     48 O          23.3823  -32.9320  -36.9205 O.2       7 UNK        -0.5147 
     49 N          23.7492  -31.1439  -38.2621 N.am      8 UNK        -0.4734 
     50 CA         24.9240  -31.6573  -38.9711 C.3       8 UNK         0.0238 
     51 CB         25.6224  -30.4939  -39.6902 C.3       8 UNK        -0.1912 
     52 C          24.6182  -32.7891  -39.9721 C.2       8 UNK         0.5038 
     53 O          25.5558  -33.4807  -40.3732 O.2       8 UNK        -0.5046 
     54 N          23.3487  -32.9554  -40.3747 N.am      9 UNK        -0.4200 
     55 CA         22.8888  -34.0394  -41.2577 C.3       9 UNK         0.0839 
     56 C          23.1229  -35.4489  -40.6460 C.2       9 UNK         0.5513 
     57 N          23.5492  -36.4120  -41.4516 N.am      9 UNK        -0.7519 
     58 O          22.8734  -35.6864  -39.4662 O.2       9 UNK        -0.4960 
     59 C59        21.3972  -33.8751  -41.6392 C.3       10 UNK        -0.0876 
     60 S60        21.0645  -32.3833  -42.6303 S.3       10 UNK        -0.2414 
     61 C61        19.2511  -32.4902  -42.6872 C.3       10 UNK         0.0169 
     62 H62        22.0175  -23.9429  -40.5819 H         1 UNK         0.0903 
     63 H63        20.7366  -23.6889  -39.3937 H         1 UNK         0.0903 
     64 H64        21.0443  -25.3086  -40.0054 H         1 UNK         0.0903 
     65 H65        20.4097  -25.8309  -42.2564 H         1 UNK         0.3096 
     66 H66        18.1262  -24.2207  -43.2260 H         1 UNK         0.1121 
     67 H67        19.0386  -27.0415  -44.0414 H         1 UNK         0.0849 
     68 H68        17.5696  -26.2418  -44.5380 H         1 UNK         0.0849 
     69 H69        15.7335  -27.8548  -43.7778 H         1 UNK         0.0865 
     70 H70        15.7709  -28.7700  -42.2953 H         1 UNK         0.0865 
     71 H71        17.7980  -30.3314  -41.8575 H         1 UNK         0.1346 
     72 H72        19.3000  -32.2311  -45.3986 H         1 UNK         0.1412 
     73 H73        16.8598  -28.7194  -45.7178 H         1 UNK         0.1426 
     74 H74        17.3604  -30.0228  -47.7046 H         1 UNK         0.0716 
     75 H75        18.1112  -31.5893  -47.5562 H         1 UNK         0.0716 
     76 H76        19.1751  -27.9803  -46.5157 H         1 UNK         0.0695 
     77 H77        18.7405  -27.7330  -48.1819 H         1 UNK         0.0695 
     78 H78        21.0733  -27.2007  -48.7854 H         1 UNK         0.0983 
     79 H79        21.0588  -25.5667  -46.4284 H         1 UNK         0.3095 
     80 H80        20.4850  -23.1688  -46.9127 H         1 UNK         0.0454 
     81 H81        18.4560  -21.7596  -47.1631 H         1 UNK         0.0851 
     82 H82        17.5757  -23.1110  -47.8767 H         1 UNK         0.0851 
     83 H83        18.9522  -22.4099  -48.7154 H         1 UNK         0.0851 
     84 H84        17.9795  -23.9125  -45.5904 H         1 UNK         0.2976 
     85 H85        21.0375  -27.5308  -45.1757 H         1 UNK         0.3116 
     86 H86        23.8801  -27.9817  -44.9793 H         1 UNK         0.0646 
     87 H87        23.5242  -30.2801  -43.9089 H         1 UNK         0.0847 
     88 H88        23.1706  -30.2821  -45.6293 H         1 UNK         0.0847 
     89 H89        21.8542  -30.2411  -44.4626 H         1 UNK         0.0847 
     90 H90        24.4515  -28.1608  -42.6675 H         1 UNK         0.3040 
     91 H91        22.9725  -26.2161  -41.1551 H         1 UNK         0.1015 
     92 H92        25.5298  -27.7491  -40.4997 H         1 UNK         0.0786 
     93 H93        24.8942  -26.3913  -39.5827 H         1 UNK         0.0786 
     94 H94        25.4119  -26.1575  -41.2404 H         1 UNK         0.0786 
     95 H95        21.1744  -28.1098  -41.3870 H         1 UNK         0.3172 
     96 H96        19.5939  -29.2887  -40.3632 H         1 UNK         0.0595 
     97 H97        20.4189  -27.4499  -38.0530 H         1 UNK         0.0839 
     98 H98        18.9212  -28.3775  -38.0978 H         1 UNK         0.0839 
     99 H99        19.2197  -27.1391  -39.3012 H         1 UNK         0.0839 
    100 H100       21.2804  -29.1617  -37.2712 H         1 UNK         0.2998 
    101 H101       21.0095  -31.9535  -36.7331 H         1 UNK         0.0822 
    102 H102       21.0823  -30.2260  -34.9447 H         1 UNK         0.0787 
    103 H103       22.3748  -31.3902  -34.7109 H         1 UNK         0.0787 
    104 H104       22.7397  -29.8071  -35.3834 H         1 UNK         0.0787 
    105 H105       23.4312  -30.2122  -38.5150 H         1 UNK         0.3055 
    106 H106       25.6127  -32.0643  -38.2273 H         1 UNK         0.1106 
    107 H107       26.5522  -30.8229  -40.1565 H         1 UNK         0.0828 
    108 H108       24.9926  -30.0794  -40.4778 H         1 UNK         0.0828 
    109 H109       25.8742  -29.6914  -38.9967 H         1 UNK         0.0828 
    110 H110       22.6269  -32.3515  -39.9999 H         1 UNK         0.2931 
    111 H111       23.4786  -33.9695  -42.1741 H         1 UNK         0.0412 
    112 H112       23.7465  -36.2291  -42.4236 H         1 UNK         0.3472 
    113 H113       23.6900  -37.3381  -41.0782 H         1 UNK         0.3472 
    114 H114       20.7781  -33.8498  -40.7399 H         1 UNK         0.0970 
    115 H115       21.0556  -34.7337  -42.2212 H         1 UNK         0.0970 
    116 H116       18.9602  -33.4613  -43.0904 H         1 UNK         0.0612 
    117 H117       18.8647  -32.4502  -41.6673 H         1 UNK         0.0612 
@<TRIPOS>BOND
     1    1    2 1    
     2    1   62 1    
     3    1   63 1    
     4    1   64 1    
     5    2    3 2    
     6    2    4 am   BACKBONE|DICT|INTERRES
     7    4    5 1    
     8    4   65 1    
     9    5    6 1    
    10    5   25 1    
    11    5   66 1    
    12    6    7 1    
    13    6   67 1    
    14    6   68 1    
    15    7    8 1    
    16    8    9 1    
    17    8   69 1    
    18    8   70 1    
    19    9   10 ar   
    20    9   14 ar   
    21   10   11 ar   
    22   10   71 1    
    23   11   12 ar   
    24   11   61 1    
    25   12   13 ar   
    26   12   72 1    
    27   13   14 ar   
    28   13   15 1    
    29   14   73 1    
    30   15   16 1    
    31   15   74 1    
    32   15   75 1    
    33   16   17 1    
    34   17   18 1    
    35   17   76 1    
    36   17   77 1    
    37   18   19 1    
    38   18   27 1    
    39   18   78 1    
    40   19   20 am   BACKBONE|DICT|INTERRES
    41   19   79 1    
    42   20   21 2    
    43   20   22 1    
    44   22   23 1    
    45   22   24 1    
    46   22   80 1    
    47   23   81 1    
    48   23   82 1    
    49   23   83 1    
    50   24   25 am   BACKBONE|DICT|INTERRES
    51   24   84 1    
    52   25   26 2    
    53   27   28 2    
    54   27   29 am   BACKBONE|DICT|INTERRES
    55   29   30 1    
    56   29   85 1    
    57   30   31 1    
    58   30   32 1    
    59   30   86 1    
    60   31   87 1    
    61   31   88 1    
    62   31   89 1    
    63   32   33 2    
    64   32   34 am   BACKBONE|DICT|INTERRES
    65   34   35 1    
    66   34   90 1    
    67   35   36 1    
    68   35   37 1    
    69   35   91 1    
    70   36   92 1    
    71   36   93 1    
    72   36   94 1    
    73   37   38 2    
    74   37   39 am   BACKBONE|DICT|INTERRES
    75   39   40 1    
    76   39   95 1    
    77   40   41 1    
    78   40   42 1    
    79   40   96 1    
    80   41   97 1    
    81   41   98 1    
    82   41   99 1    
    83   42   43 2    
    84   42   44 am   BACKBONE|DICT|INTERRES
    85   44   45 1    
    86   44  100 1    
    87   45   46 1    
    88   45   47 1    
    89   45  101 1    
    90   46  102 1    
    91   46  103 1    
    92   46  104 1    
    93   47   48 2    
    94   47   49 am   BACKBONE|DICT|INTERRES
    95   49   50 1    
    96   49  105 1    
    97   50   51 1    
    98   50   52 1    
    99   50  106 1    
   100   51  107 1    
   101   51  108 1    
   102   51  109 1    
   103   52   53 2    
   104   52   54 am   BACKBONE|DICT|INTERRES
   105   54   55 1    
   106   54  110 1    
   107   55   56 1    
   108   55   59 1    
   109   55  111 1    
   110   56   57 am   BACKBONE|DICT|INTERRES
   111   56   58 2    
   112   57  112 1    
   113   57  113 1    
   114   59   60 1    
   115   59  114 1    
   116   59  115 1    
   117   60   61 1    
   118   61  116 1    
   119   61  117 1    
@<TRIPOS>SUBSTRUCTURE
     1 UNK         1 GROUP             0       ****    0 ROOT    
