@<TRIPOS>MOLECULE
3R8
117   119    1
SMALL
USER_CHARGES


@<TRIPOS>ATOM
      1 CA         20.2235  -26.5327  -50.1745 C.3       0 UNK        -0.2013 
      2 C          20.6447  -26.8596  -48.7495 C.2       0 UNK         0.4866 
      3 O          21.6993  -26.4062  -48.3033 O.2       0 UNK        -0.5176 
      4 N          19.8335  -27.6493  -48.0359 N.am      1 UNK        -0.4884 
      5 CA         20.0381  -28.0092  -46.6294 C.3       1 UNK         0.0853 
      6 C6         19.2510  -29.2905  -46.2414 C.3       10 UNK        -0.0849 
      7 S7         17.4632  -29.2112  -46.6152 S.3       10 UNK        -0.2776 
      8 C8         16.8606  -30.7630  -45.8748 C.3       10 UNK         0.0316 
      9 C9         16.8771  -30.7195  -44.3528 C.ar      10 UNK        -0.0863 
     10 C10        17.7575  -31.5297  -43.6291 C.ar      10 UNK        -0.1009 
     11 C11        17.7763  -31.4859  -42.2315 C.ar      10 UNK        -0.0712 
     12 C12        16.8873  -30.6444  -41.5573 C.ar      10 UNK        -0.0894 
     13 C13        16.0005  -29.8334  -42.2686 C.ar      10 UNK        -0.0745 
     14 C14        15.9983  -29.8763  -43.6659 C.ar      10 UNK        -0.0972 
     15 C15        15.0431  -28.9112  -41.5315 C.3       10 UNK         0.0209 
     16 S16        15.7183  -27.2280  -41.3943 S.3       10 UNK        -0.2568 
     17 C17        16.8644  -27.3697  -39.9767 C.3       10 UNK        -0.0983 
     18 CA         18.3528  -27.5803  -40.3674 C.3       3 UNK         0.0876 
     19 N          18.7717  -26.7075  -41.4688 N.am      3 UNK        -0.4424 
     20 C          19.9452  -26.7779  -42.1058 C.2       2 UNK         0.4918 
     21 O          20.8923  -27.4825  -41.7503 O.2       2 UNK        -0.4875 
     22 CA         20.0693  -25.9473  -43.3830 C.3       2 UNK         0.0481 
     23 CB         21.2286  -24.9405  -43.3002 C.3       2 UNK        -0.1831 
     24 N          20.2977  -26.8877  -44.4732 N.am      2 UNK        -0.4498 
     25 C          19.7308  -26.8277  -45.6829 C.2       1 UNK         0.5027 
     26 O          18.9870  -25.9120  -46.0473 O.2       1 UNK        -0.4969 
     27 C          19.2504  -27.4538  -39.1206 C.2       3 UNK         0.5005 
     28 O          19.5742  -28.4624  -38.4924 O.2       3 UNK        -0.5279 
     29 N          19.6378  -26.2127  -38.7941 N.am      4 UNK        -0.4463 
     30 CA         20.4667  -25.8759  -37.6344 C.3       4 UNK         0.0283 
     31 CB         20.2816  -24.3860  -37.3030 C.3       4 UNK        -0.1875 
     32 C          21.9590  -26.1961  -37.8271 C.2       4 UNK         0.4949 
     33 O          22.6751  -26.3120  -36.8323 O.2       4 UNK        -0.5039 
     34 N          22.4125  -26.3107  -39.0839 N.am      5 UNK        -0.4663 
     35 CA         23.8135  -26.5714  -39.4247 C.3       5 UNK         0.0242 
     36 CB         24.0764  -26.1406  -40.8755 C.3       5 UNK        -0.1982 
     37 C          24.2175  -28.0394  -39.2227 C.2       5 UNK         0.5017 
     38 O          25.3924  -28.3018  -38.9642 O.2       5 UNK        -0.5012 
     39 N          23.2537  -28.9626  -39.3696 N.am      6 UNK        -0.4439 
     40 CA         23.3439  -30.4271  -39.2432 C.3       6 UNK         0.0297 
     41 CB         23.7717  -30.8464  -37.8239 C.3       6 UNK        -0.2006 
     42 C          24.2145  -31.1180  -40.3113 C.2       6 UNK         0.4892 
     43 O          23.7888  -32.1215  -40.8804 O.2       6 UNK        -0.5089 
     44 N          25.3993  -30.5655  -40.5962 N.am      7 UNK        -0.4243 
     45 CA         26.3131  -31.0170  -41.6494 C.3       7 UNK         0.0196 
     46 CB         27.6803  -30.3447  -41.4462 C.3       7 UNK        -0.2007 
     47 C          25.7838  -30.7414  -43.0690 C.2       7 UNK         0.5020 
     48 O          26.2053  -31.4111  -44.0114 O.2       7 UNK        -0.5147 
     49 N          24.8749  -29.7650  -43.1985 N.am      8 UNK        -0.4734 
     50 CA         24.2303  -29.3816  -44.4564 C.3       8 UNK         0.0238 
     51 CB         23.7175  -27.9378  -44.3304 C.3       8 UNK        -0.1912 
     52 C          23.0851  -30.3215  -44.8760 C.2       8 UNK         0.5038 
     53 O          22.6352  -30.2233  -46.0173 O.2       8 UNK        -0.5046 
     54 N          22.6101  -31.1814  -43.9642 N.am      9 UNK        -0.4200 
     55 CA         21.5456  -32.1646  -44.2121 C.3       9 UNK         0.0839 
     56 C          21.9357  -33.2053  -45.2980 C.2       9 UNK         0.5513 
     57 N          21.0049  -33.5775  -46.1661 N.am      9 UNK        -0.7519 
     58 O          23.0554  -33.7114  -45.3276 O.2       9 UNK        -0.4960 
     59 C59        21.1244  -32.8886  -42.9087 C.3       10 UNK        -0.0876 
     60 S60        20.4652  -31.7590  -41.6315 S.3       10 UNK        -0.2414 
     61 C61        18.7513  -32.3453  -41.4423 C.3       10 UNK         0.0169 
     62 H62        20.9851  -26.8688  -50.8777 H         1 UNK         0.0903 
     63 H63        19.2812  -27.0110  -50.4413 H         1 UNK         0.0903 
     64 H64        20.1023  -25.4562  -50.2917 H         1 UNK         0.0903 
     65 H65        18.9590  -27.9648  -48.4322 H         1 UNK         0.3096 
     66 H66        21.1007  -28.2281  -46.5120 H         1 UNK         0.1121 
     67 H67        19.6698  -30.1434  -46.7784 H         1 UNK         0.0849 
     68 H68        19.3856  -29.5183  -45.1823 H         1 UNK         0.0849 
     69 H69        15.8384  -30.9395  -46.2126 H         1 UNK         0.0865 
     70 H70        17.4526  -31.5984  -46.2518 H         1 UNK         0.0865 
     71 H71        18.4339  -32.1912  -44.1502 H         1 UNK         0.1346 
     72 H72        16.8925  -30.6107  -40.4763 H         1 UNK         0.1412 
     73 H73        15.3171  -29.2459  -44.2215 H         1 UNK         0.1426 
     74 H74        14.8054  -29.3040  -40.5418 H         1 UNK         0.0716 
     75 H75        14.0964  -28.8639  -42.0719 H         1 UNK         0.0716 
     76 H76        16.7510  -26.4499  -39.3993 H         1 UNK         0.0695 
     77 H77        16.5295  -28.1739  -39.3191 H         1 UNK         0.0695 
     78 H78        18.4707  -28.6027  -40.7294 H         1 UNK         0.0983 
     79 H79        18.0432  -26.1217  -41.8517 H         1 UNK         0.3095 
     80 H80        19.1381  -25.3985  -43.5402 H         1 UNK         0.0454 
     81 H81        22.1924  -25.4362  -43.1878 H         1 UNK         0.0851 
     82 H82        21.2772  -24.3244  -44.1980 H         1 UNK         0.0851 
     83 H83        21.1041  -24.2676  -42.4510 H         1 UNK         0.0851 
     84 H84        20.8459  -27.6979  -44.2191 H         1 UNK         0.2976 
     85 H85        19.3246  -25.4459  -39.3725 H         1 UNK         0.3116 
     86 H86        20.1162  -26.4588  -36.7796 H         1 UNK         0.0646 
     87 H87        20.8598  -24.1078  -36.4206 H         1 UNK         0.0847 
     88 H88        19.2385  -24.1521  -37.0892 H         1 UNK         0.0847 
     89 H89        20.6104  -23.7445  -38.1216 H         1 UNK         0.0847 
     90 H90        21.7565  -26.2385  -39.8493 H         1 UNK         0.3040 
     91 H91        24.4481  -25.9665  -38.7725 H         1 UNK         0.1015 
     92 H92        23.8447  -25.0861  -41.0262 H         1 UNK         0.0786 
     93 H93        23.4798  -26.7205  -41.5775 H         1 UNK         0.0786 
     94 H94        25.1245  -26.2831  -41.1427 H         1 UNK         0.0786 
     95 H95        22.3349  -28.6159  -39.6150 H         1 UNK         0.3172 
     96 H96        22.3257  -30.7896  -39.3915 H         1 UNK         0.0595 
     97 H97        23.1091  -30.4214  -37.0698 H         1 UNK         0.0839 
     98 H98        24.7895  -30.5320  -37.5913 H         1 UNK         0.0839 
     99 H99        23.7356  -31.9310  -37.7128 H         1 UNK         0.0839 
    100 H100       25.6682  -29.7432  -40.0596 H         1 UNK         0.2998 
    101 H101       26.4402  -32.0972  -41.5504 H         1 UNK         0.0822 
    102 H102       28.1023  -30.5912  -40.4717 H         1 UNK         0.0787 
    103 H103       28.3951  -30.6756  -42.2010 H         1 UNK         0.0787 
    104 H104       27.6098  -29.2583  -41.5163 H         1 UNK         0.0787 
    105 H105       24.5924  -29.2671  -42.3674 H         1 UNK         0.3055 
    106 H106       24.9770  -29.4107  -45.2536 H         1 UNK         0.1106 
    107 H107       23.2942  -27.5874  -45.2729 H         1 UNK         0.0828 
    108 H108       22.9410  -27.8567  -43.5707 H         1 UNK         0.0828 
    109 H109       24.5213  -27.2503  -44.0666 H         1 UNK         0.0828 
    110 H110       23.0456  -31.2218  -43.0536 H         1 UNK         0.2931 
    111 H111       20.6851  -31.6037  -44.5799 H         1 UNK         0.0412 
    112 H112       20.0801  -33.1790  -46.1495 H         1 UNK         0.3472 
    113 H113       21.2387  -34.2651  -46.8656 H         1 UNK         0.3472 
    114 H114       20.3838  -33.6584  -43.1300 H         1 UNK         0.0970 
    115 H115       21.9769  -33.4190  -42.4800 H         1 UNK         0.0970 
    116 H116       18.6539  -33.3896  -41.7399 H         1 UNK         0.0612 
    117 H117       18.5044  -32.3168  -40.3800 H         1 UNK         0.0612 
@<TRIPOS>BOND
     1    1    2 1    
     2    1   62 1    
     3    1   63 1    
     4    1   64 1    
     5    2    3 2    
     6    2    4 am   BACKBONE|DICT|INTERRES
     7    4    5 1    
     8    4   65 1    
     9    5    6 1    
    10    5   25 1    
    11    5   66 1    
    12    6    7 1    
    13    6   67 1    
    14    6   68 1    
    15    7    8 1    
    16    8    9 1    
    17    8   69 1    
    18    8   70 1    
    19    9   10 ar   
    20    9   14 ar   
    21   10   11 ar   
    22   10   71 1    
    23   11   12 ar   
    24   11   61 1    
    25   12   13 ar   
    26   12   72 1    
    27   13   14 ar   
    28   13   15 1    
    29   14   73 1    
    30   15   16 1    
    31   15   74 1    
    32   15   75 1    
    33   16   17 1    
    34   17   18 1    
    35   17   76 1    
    36   17   77 1    
    37   18   19 1    
    38   18   27 1    
    39   18   78 1    
    40   19   20 am   BACKBONE|DICT|INTERRES
    41   19   79 1    
    42   20   21 2    
    43   20   22 1    
    44   22   23 1    
    45   22   24 1    
    46   22   80 1    
    47   23   81 1    
    48   23   82 1    
    49   23   83 1    
    50   24   25 am   BACKBONE|DICT|INTERRES
    51   24   84 1    
    52   25   26 2    
    53   27   28 2    
    54   27   29 am   BACKBONE|DICT|INTERRES
    55   29   30 1    
    56   29   85 1    
    57   30   31 1    
    58   30   32 1    
    59   30   86 1    
    60   31   87 1    
    61   31   88 1    
    62   31   89 1    
    63   32   33 2    
    64   32   34 am   BACKBONE|DICT|INTERRES
    65   34   35 1    
    66   34   90 1    
    67   35   36 1    
    68   35   37 1    
    69   35   91 1    
    70   36   92 1    
    71   36   93 1    
    72   36   94 1    
    73   37   38 2    
    74   37   39 am   BACKBONE|DICT|INTERRES
    75   39   40 1    
    76   39   95 1    
    77   40   41 1    
    78   40   42 1    
    79   40   96 1    
    80   41   97 1    
    81   41   98 1    
    82   41   99 1    
    83   42   43 2    
    84   42   44 am   BACKBONE|DICT|INTERRES
    85   44   45 1    
    86   44  100 1    
    87   45   46 1    
    88   45   47 1    
    89   45  101 1    
    90   46  102 1    
    91   46  103 1    
    92   46  104 1    
    93   47   48 2    
    94   47   49 am   BACKBONE|DICT|INTERRES
    95   49   50 1    
    96   49  105 1    
    97   50   51 1    
    98   50   52 1    
    99   50  106 1    
   100   51  107 1    
   101   51  108 1    
   102   51  109 1    
   103   52   53 2    
   104   52   54 am   BACKBONE|DICT|INTERRES
   105   54   55 1    
   106   54  110 1    
   107   55   56 1    
   108   55   59 1    
   109   55  111 1    
   110   56   57 am   BACKBONE|DICT|INTERRES
   111   56   58 2    
   112   57  112 1    
   113   57  113 1    
   114   59   60 1    
   115   59  114 1    
   116   59  115 1    
   117   60   61 1    
   118   61  116 1    
   119   61  117 1    
@<TRIPOS>SUBSTRUCTURE
     1 UNK         1 GROUP             0       ****    0 ROOT    
