@<TRIPOS>MOLECULE
3R8
117   119    1
SMALL
USER_CHARGES


@<TRIPOS>ATOM
      1 CA         15.2406  -25.3636  -48.6872 C.3       0 UNK        -0.2013 
      2 C          15.1225  -26.3842  -47.5583 C.2       0 UNK         0.4866 
      3 O          14.0074  -26.7202  -47.1638 O.2       0 UNK        -0.5176 
      4 N          16.2256  -26.9153  -47.0132 N.am      1 UNK        -0.4884 
      5 CA         17.6225  -26.5805  -47.3178 C.3       1 UNK         0.0853 
      6 C6         18.5380  -27.8350  -47.1764 C.3       10 UNK        -0.0849 
      7 S7         19.0430  -28.2689  -45.4736 S.3       10 UNK        -0.2776 
      8 C8         17.7672  -29.4670  -44.9788 C.3       10 UNK         0.0316 
      9 C9         17.6547  -29.5167  -43.4636 C.ar      10 UNK        -0.0863 
     10 C10        18.0556  -30.6516  -42.7509 C.ar      10 UNK        -0.1009 
     11 C11        17.9636  -30.6807  -41.3549 C.ar      10 UNK        -0.0712 
     12 C12        17.4798  -29.5581  -40.6750 C.ar      10 UNK        -0.0894 
     13 C13        17.0959  -28.4117  -41.3770 C.ar      10 UNK        -0.0745 
     14 C14        17.1620  -28.4061  -42.7716 C.ar      10 UNK        -0.0972 
     15 C15        16.6347  -27.1732  -40.6254 C.3       10 UNK         0.0209 
     16 S16        18.0532  -26.1960  -40.0310 S.3       10 UNK        -0.2568 
     17 C17        18.5673  -25.2648  -41.5192 C.3       10 UNK        -0.0983 
     18 CA         19.7199  -25.9315  -42.3246 C.3       3 UNK         0.0876 
     19 N          19.7544  -25.4978  -43.7282 N.am      3 UNK        -0.4424 
     20 C          20.0057  -24.2554  -44.1719 C.2       2 UNK         0.4918 
     21 O          20.2223  -23.2948  -43.4330 O.2       2 UNK        -0.4875 
     22 CA         20.0473  -24.0363  -45.6995 C.3       2 UNK         0.0481 
     23 CB         21.5030  -23.8822  -46.1705 C.3       2 UNK        -0.1831 
     24 N          19.4043  -25.0976  -46.4828 N.am      2 UNK        -0.4498 
     25 C          18.0865  -25.3451  -46.5035 C.2       1 UNK         0.5027 
     26 O          17.2637  -24.6525  -45.8989 O.2       1 UNK        -0.4969 
     27 C          21.1169  -25.8425  -41.6634 C.2       3 UNK         0.5005 
     28 O          21.2433  -25.5061  -40.4839 O.2       3 UNK        -0.5279 
     29 N          22.1600  -26.1833  -42.4363 N.am      4 UNK        -0.4463 
     30 CA         23.5387  -26.3538  -41.9717 C.3       4 UNK         0.0283 
     31 CB         24.4956  -26.1808  -43.1657 C.3       4 UNK        -0.1875 
     32 C          23.6780  -27.7311  -41.3021 C.2       4 UNK         0.4949 
     33 O          24.3026  -28.6304  -41.8663 O.2       4 UNK        -0.5039 
     34 N          23.0156  -27.8843  -40.1473 N.am      5 UNK        -0.4663 
     35 CA         22.6774  -29.1477  -39.4798 C.3       5 UNK         0.0242 
     36 CB         21.9928  -28.8409  -38.1390 C.3       5 UNK        -0.1982 
     37 C          23.8245  -30.1504  -39.2821 C.2       5 UNK         0.5017 
     38 O          23.5867  -31.3548  -39.3725 O.2       5 UNK        -0.5012 
     39 N          25.0451  -29.6410  -39.0657 N.am      6 UNK        -0.4439 
     40 CA         26.2787  -30.4254  -38.9474 C.3       6 UNK         0.0297 
     41 CB         27.4439  -29.4844  -38.6015 C.3       6 UNK        -0.2006 
     42 C          26.6175  -31.2616  -40.1981 C.2       6 UNK         0.4892 
     43 O          27.2779  -32.2925  -40.0626 O.2       6 UNK        -0.5089 
     44 N          26.1582  -30.8143  -41.3742 N.am      7 UNK        -0.4243 
     45 CA         26.2663  -31.5300  -42.6438 C.3       7 UNK         0.0196 
     46 CB         26.9100  -30.6070  -43.6920 C.3       7 UNK        -0.2007 
     47 C          24.8872  -32.0051  -43.1224 C.2       7 UNK         0.5020 
     48 O          24.7633  -33.1476  -43.5635 O.2       7 UNK        -0.5147 
     49 N          23.8773  -31.1268  -43.0380 N.am      8 UNK        -0.4734 
     50 CA         22.5345  -31.3338  -43.5887 C.3       8 UNK         0.0238 
     51 CB         21.7439  -30.0174  -43.5210 C.3       8 UNK        -0.1912 
     52 C          21.7332  -32.4643  -42.9261 C.2       8 UNK         0.5038 
     53 O          20.9160  -33.0846  -43.6081 O.2       8 UNK        -0.5046 
     54 N          21.9684  -32.7065  -41.6309 N.am      9 UNK        -0.4200 
     55 CA         21.2795  -33.7408  -40.8420 C.3       9 UNK         0.0839 
     56 C          22.1323  -35.0264  -40.6443 C.2       9 UNK         0.5513 
     57 N          23.2856  -35.1685  -41.2887 N.am      9 UNK        -0.7519 
     58 O          21.7336  -35.9231  -39.9054 O.2       9 UNK        -0.4960 
     59 C59        20.7228  -33.1932  -39.4957 C.3       10 UNK        -0.0876 
     60 S60        19.9066  -31.5624  -39.6162 S.3       10 UNK        -0.2414 
     61 C61        18.4044  -31.9142  -40.5785 C.3       10 UNK         0.0169 
     62 H62        14.2572  -24.9804  -48.9591 H         1 UNK         0.0903 
     63 H63        15.8524  -24.5134  -48.3878 H         1 UNK         0.0903 
     64 H64        15.6756  -25.8192  -49.5762 H         1 UNK         0.0903 
     65 H65        16.1045  -27.5502  -46.2392 H         1 UNK         0.3096 
     66 H66        17.6834  -26.2800  -48.3652 H         1 UNK         0.1121 
     67 H67        18.0659  -28.7015  -47.6432 H         1 UNK         0.0849 
     68 H68        19.4542  -27.6810  -47.7490 H         1 UNK         0.0849 
     69 H69        16.7995  -29.1914  -45.3976 H         1 UNK         0.0865 
     70 H70        18.0154  -30.4471  -45.3894 H         1 UNK         0.0865 
     71 H71        18.4469  -31.5099  -43.2807 H         1 UNK         0.1346 
     72 H72        17.4306  -29.5679  -39.5945 H         1 UNK         0.1412 
     73 H73        16.8665  -27.5212  -43.3193 H         1 UNK         0.1426 
     74 H74        16.0332  -27.4745  -39.7665 H         1 UNK         0.0716 
     75 H75        15.9857  -26.5549  -41.2474 H         1 UNK         0.0716 
     76 H76        17.6917  -25.1426  -42.1585 H         1 UNK         0.0695 
     77 H77        18.8481  -24.2553  -41.2144 H         1 UNK         0.0695 
     78 H78        19.5075  -27.0002  -42.3684 H         1 UNK         0.0983 
     79 H79        19.5798  -26.2218  -44.4137 H         1 UNK         0.3095 
     80 H80        19.5234  -23.1009  -45.9070 H         1 UNK         0.0454 
     81 H81        22.0819  -24.7915  -46.0041 H         1 UNK         0.0851 
     82 H82        21.5542  -23.6395  -47.2320 H         1 UNK         0.0851 
     83 H83        22.0047  -23.0757  -45.6336 H         1 UNK         0.0851 
     84 H84        20.0205  -25.7092  -46.9989 H         1 UNK         0.2976 
     85 H85        21.9729  -26.4589  -43.3891 H         1 UNK         0.3116 
     86 H86        23.7763  -25.5871  -41.2311 H         1 UNK         0.0646 
     87 H87        25.5333  -26.3028  -42.8527 H         1 UNK         0.0847 
     88 H88        24.4051  -25.1875  -43.6055 H         1 UNK         0.0847 
     89 H89        24.3054  -26.9138  -43.9509 H         1 UNK         0.0847 
     90 H90        22.5101  -27.0681  -39.8182 H         1 UNK         0.3040 
     91 H91        21.9491  -29.6399  -40.1243 H         1 UNK         0.1015 
     92 H92        21.0807  -28.2611  -38.2843 H         1 UNK         0.0786 
     93 H93        22.6470  -28.2802  -37.4704 H         1 UNK         0.0786 
     94 H94        21.7086  -29.7606  -37.6250 H         1 UNK         0.0786 
     95 H95        25.1339  -28.6358  -39.0280 H         1 UNK         0.3172 
     96 H96        26.1435  -31.1225  -38.1179 H         1 UNK         0.0595 
     97 H97        27.2634  -28.9529  -37.6670 H         1 UNK         0.0839 
     98 H98        27.6111  -28.7437  -39.3847 H         1 UNK         0.0839 
     99 H99        28.3730  -30.0431  -38.4789 H         1 UNK         0.0839 
    100 H100       25.6030  -29.9634  -41.3835 H         1 UNK         0.2998 
    101 H101       26.8997  -32.4132  -42.5354 H         1 UNK         0.0822 
    102 H102       27.9172  -30.3154  -43.3939 H         1 UNK         0.0787 
    103 H103       26.9896  -31.1079  -44.6578 H         1 UNK         0.0787 
    104 H104       26.3296  -29.6953  -43.8418 H         1 UNK         0.0787 
    105 H105       24.0650  -30.2026  -42.6529 H         1 UNK         0.3055 
    106 H106       22.6535  -31.6029  -44.6406 H         1 UNK         0.1106 
    107 H107       21.5780  -29.6944  -42.4936 H         1 UNK         0.0828 
    108 H108       22.2548  -29.2144  -44.0521 H         1 UNK         0.0828 
    109 H109       20.7631  -30.1368  -43.9810 H         1 UNK         0.0828 
    110 H110       22.6637  -32.1641  -41.1325 H         1 UNK         0.2931 
    111 H111       20.4138  -34.0899  -41.4054 H         1 UNK         0.0412 
    112 H112       23.8247  -36.0097  -41.1557 H         1 UNK         0.3472 
    113 H113       23.6123  -34.4543  -41.9241 H         1 UNK         0.3472 
    114 H114       21.5337  -33.0909  -38.7722 H         1 UNK         0.0970 
    115 H115       20.0190  -33.9033  -39.0578 H         1 UNK         0.0970 
    116 H116       18.5810  -32.7438  -41.2627 H         1 UNK         0.0612 
    117 H117       17.6092  -32.2320  -39.9029 H         1 UNK         0.0612 
@<TRIPOS>BOND
     1    1    2 1    
     2    1   62 1    
     3    1   63 1    
     4    1   64 1    
     5    2    3 2    
     6    2    4 am   BACKBONE|DICT|INTERRES
     7    4    5 1    
     8    4   65 1    
     9    5    6 1    
    10    5   25 1    
    11    5   66 1    
    12    6    7 1    
    13    6   67 1    
    14    6   68 1    
    15    7    8 1    
    16    8    9 1    
    17    8   69 1    
    18    8   70 1    
    19    9   10 ar   
    20    9   14 ar   
    21   10   11 ar   
    22   10   71 1    
    23   11   12 ar   
    24   11   61 1    
    25   12   13 ar   
    26   12   72 1    
    27   13   14 ar   
    28   13   15 1    
    29   14   73 1    
    30   15   16 1    
    31   15   74 1    
    32   15   75 1    
    33   16   17 1    
    34   17   18 1    
    35   17   76 1    
    36   17   77 1    
    37   18   19 1    
    38   18   27 1    
    39   18   78 1    
    40   19   20 am   BACKBONE|DICT|INTERRES
    41   19   79 1    
    42   20   21 2    
    43   20   22 1    
    44   22   23 1    
    45   22   24 1    
    46   22   80 1    
    47   23   81 1    
    48   23   82 1    
    49   23   83 1    
    50   24   25 am   BACKBONE|DICT|INTERRES
    51   24   84 1    
    52   25   26 2    
    53   27   28 2    
    54   27   29 am   BACKBONE|DICT|INTERRES
    55   29   30 1    
    56   29   85 1    
    57   30   31 1    
    58   30   32 1    
    59   30   86 1    
    60   31   87 1    
    61   31   88 1    
    62   31   89 1    
    63   32   33 2    
    64   32   34 am   BACKBONE|DICT|INTERRES
    65   34   35 1    
    66   34   90 1    
    67   35   36 1    
    68   35   37 1    
    69   35   91 1    
    70   36   92 1    
    71   36   93 1    
    72   36   94 1    
    73   37   38 2    
    74   37   39 am   BACKBONE|DICT|INTERRES
    75   39   40 1    
    76   39   95 1    
    77   40   41 1    
    78   40   42 1    
    79   40   96 1    
    80   41   97 1    
    81   41   98 1    
    82   41   99 1    
    83   42   43 2    
    84   42   44 am   BACKBONE|DICT|INTERRES
    85   44   45 1    
    86   44  100 1    
    87   45   46 1    
    88   45   47 1    
    89   45  101 1    
    90   46  102 1    
    91   46  103 1    
    92   46  104 1    
    93   47   48 2    
    94   47   49 am   BACKBONE|DICT|INTERRES
    95   49   50 1    
    96   49  105 1    
    97   50   51 1    
    98   50   52 1    
    99   50  106 1    
   100   51  107 1    
   101   51  108 1    
   102   51  109 1    
   103   52   53 2    
   104   52   54 am   BACKBONE|DICT|INTERRES
   105   54   55 1    
   106   54  110 1    
   107   55   56 1    
   108   55   59 1    
   109   55  111 1    
   110   56   57 am   BACKBONE|DICT|INTERRES
   111   56   58 2    
   112   57  112 1    
   113   57  113 1    
   114   59   60 1    
   115   59  114 1    
   116   59  115 1    
   117   60   61 1    
   118   61  116 1    
   119   61  117 1    
@<TRIPOS>SUBSTRUCTURE
     1 UNK         1 GROUP             0       ****    0 ROOT    
