@<TRIPOS>MOLECULE
3R8
117   119    1
SMALL
USER_CHARGES


@<TRIPOS>ATOM
      1 CA         15.7156  -22.8300  -41.0918 C.3       0 UNK        -0.2013 
      2 C          16.3033  -23.1800  -42.4506 C.2       0 UNK         0.4866 
      3 O          16.8315  -22.3028  -43.1347 O.2       0 UNK        -0.5176 
      4 N          16.2078  -24.4532  -42.8514 N.am      1 UNK        -0.4884 
      5 CA         16.7781  -24.9975  -44.0859 C.3       1 UNK         0.0853 
      6 C6         16.1457  -26.3600  -44.4790 C.3       10 UNK        -0.0849 
      7 S7         15.8924  -27.5320  -43.0944 S.3       10 UNK        -0.2776 
      8 C8         15.2961  -29.0130  -43.9722 C.3       10 UNK         0.0316 
      9 C9         16.4556  -29.8197  -44.5342 C.ar      10 UNK        -0.0863 
     10 C10        17.0382  -30.8380  -43.7761 C.ar      10 UNK        -0.1009 
     11 C11        18.1427  -31.5486  -44.2613 C.ar      10 UNK        -0.0712 
     12 C12        18.6583  -31.2297  -45.5237 C.ar      10 UNK        -0.0894 
     13 C13        18.0659  -30.2298  -46.3024 C.ar      10 UNK        -0.0745 
     14 C14        16.9542  -29.5438  -45.8077 C.ar      10 UNK        -0.0972 
     15 C15        18.5917  -29.9038  -47.6930 C.3       10 UNK         0.0209 
     16 S16        19.0562  -28.1468  -47.8540 S.3       10 UNK        -0.2568 
     17 C17        20.8670  -28.1787  -47.6236 C.3       10 UNK        -0.0983 
     18 CA         21.3720  -27.6092  -46.2719 C.3       3 UNK         0.0876 
     19 N          20.7446  -26.3269  -45.9301 N.am      3 UNK        -0.4424 
     20 C          21.2672  -25.4145  -45.1011 C.2       2 UNK         0.4918 
     21 O          22.3325  -25.5649  -44.5057 O.2       2 UNK        -0.4875 
     22 CA         20.4556  -24.1289  -44.8728 C.3       2 UNK         0.0481 
     23 CB         20.8409  -23.0631  -45.9107 C.3       2 UNK        -0.1831 
     24 N          19.0013  -24.3212  -44.8854 N.am      2 UNK        -0.4498 
     25 C          18.3184  -25.0557  -43.9943 C.2       1 UNK         0.5027 
     26 O          18.8567  -25.7407  -43.1227 O.2       1 UNK        -0.4969 
     27 C          21.3566  -28.6517  -45.1310 C.2       3 UNK         0.5005 
     28 O          22.0092  -29.6881  -45.2699 O.2       3 UNK        -0.5279 
     29 N          20.6674  -28.3641  -44.0155 N.am      4 UNK        -0.4463 
     30 CA         20.7631  -29.1443  -42.7803 C.3       4 UNK         0.0283 
     31 CB         19.6001  -28.7741  -41.8475 C.3       4 UNK        -0.1875 
     32 C          22.1043  -28.9291  -42.0575 C.2       4 UNK         0.4949 
     33 O          22.6102  -29.8592  -41.4288 O.2       4 UNK        -0.5039 
     34 N          22.6503  -27.7084  -42.1439 N.am      5 UNK        -0.4663 
     35 CA         23.9153  -27.3155  -41.5241 C.3       5 UNK         0.0242 
     36 CB         23.9244  -25.7840  -41.3724 C.3       5 UNK        -0.1982 
     37 C          25.1187  -27.7845  -42.3683 C.2       5 UNK         0.5017 
     38 O          24.9774  -27.9383  -43.5814 O.2       5 UNK        -0.5012 
     39 N          26.3091  -27.9806  -41.7820 N.am      6 UNK        -0.4439 
     40 CA         26.6487  -27.8830  -40.3554 C.3       6 UNK         0.0297 
     41 CB         28.1136  -27.4293  -40.2359 C.3       6 UNK        -0.2006 
     42 C          26.4368  -29.2038  -39.5893 C.2       6 UNK         0.4892 
     43 O          26.5984  -29.2190  -38.3692 O.2       6 UNK        -0.5089 
     44 N          26.0991  -30.2854  -40.3053 N.am      7 UNK        -0.4243 
     45 CA         25.9549  -31.6425  -39.7702 C.3       7 UNK         0.0196 
     46 CB         25.9485  -32.6333  -40.9472 C.3       7 UNK        -0.2007 
     47 C          24.7094  -31.8638  -38.8931 C.2       7 UNK         0.5020 
     48 O          24.6436  -32.8883  -38.2137 O.2       7 UNK        -0.5147 
     49 N          23.7246  -30.9549  -38.9674 N.am      8 UNK        -0.4734 
     50 CA         22.3774  -31.0592  -38.3840 C.3       8 UNK         0.0238 
     51 CB         22.4313  -31.0225  -36.8418 C.3       8 UNK        -0.1912 
     52 C          21.6176  -32.2800  -38.9407 C.2       8 UNK         0.5038 
     53 O          20.9650  -33.0054  -38.1880 O.2       8 UNK        -0.5046 
     54 N          21.7749  -32.4960  -40.2537 N.am      9 UNK        -0.4200 
     55 CA         21.3169  -33.6630  -41.0261 C.3       9 UNK         0.0839 
     56 C          22.0225  -35.0077  -40.6684 C.2       9 UNK         0.5513 
     57 N          23.0714  -35.0272  -39.8536 N.am      9 UNK        -0.7519 
     58 O          21.6335  -36.0589  -41.1710 O.2       9 UNK        -0.4960 
     59 C59        19.7688  -33.8049  -41.0753 C.3       10 UNK        -0.0876 
     60 S60        18.9453  -32.2956  -41.6807 S.3       10 UNK        -0.2414 
     61 C61        18.7616  -32.6853  -43.4519 C.3       10 UNK         0.0169 
     62 H62        15.2727  -23.6980  -40.6035 H         1 UNK         0.0903 
     63 H63        16.4921  -22.4330  -40.4385 H         1 UNK         0.0903 
     64 H64        14.9414  -22.0712  -41.2018 H         1 UNK         0.0903 
     65 H65        15.7941  -25.1454  -42.2413 H         1 UNK         0.3096 
     66 H66        16.5269  -24.2973  -44.8862 H         1 UNK         0.1121 
     67 H67        15.1676  -26.1780  -44.9270 H         1 UNK         0.0849 
     68 H68        16.7396  -26.8363  -45.2592 H         1 UNK         0.0849 
     69 H69        14.7211  -29.6263  -43.2766 H         1 UNK         0.0865 
     70 H70        14.6042  -28.7266  -44.7658 H         1 UNK         0.0865 
     71 H71        16.6372  -31.0682  -42.7987 H         1 UNK         0.1346 
     72 H72        19.5127  -31.7706  -45.9071 H         1 UNK         0.1412 
     73 H73        16.4892  -28.7794  -46.4144 H         1 UNK         0.1426 
     74 H74        17.8039  -30.1183  -48.4163 H         1 UNK         0.0716 
     75 H75        19.4299  -30.5479  -47.9615 H         1 UNK         0.0716 
     76 H76        21.2566  -29.1824  -47.8021 H         1 UNK         0.0695 
     77 H77        21.2855  -27.5727  -48.4285 H         1 UNK         0.0695 
     78 H78        22.4347  -27.3989  -46.4165 H         1 UNK         0.0983 
     79 H79        19.8558  -26.1406  -46.3719 H         1 UNK         0.3095 
     80 H80        20.7244  -23.7477  -43.8853 H         1 UNK         0.0454 
     81 H81        21.9170  -22.8835  -45.9044 H         1 UNK         0.0851 
     82 H82        20.5676  -23.3645  -46.9226 H         1 UNK         0.0851 
     83 H83        20.3559  -22.1097  -45.7005 H         1 UNK         0.0851 
     84 H84        18.4850  -23.7756  -45.5610 H         1 UNK         0.2976 
     85 H85        20.1341  -27.5049  -43.9719 H         1 UNK         0.3116 
     86 H86        20.6800  -30.2033  -43.0319 H         1 UNK         0.0646 
     87 H87        19.6489  -27.7326  -41.5290 H         1 UNK         0.0847 
     88 H88        18.6370  -28.9302  -42.3328 H         1 UNK         0.0847 
     89 H89        19.6134  -29.3892  -40.9471 H         1 UNK         0.0847 
     90 H90        22.2288  -27.0300  -42.7654 H         1 UNK         0.3040 
     91 H91        23.9548  -27.7713  -40.5340 H         1 UNK         0.1015 
     92 H92        23.0775  -25.4391  -40.7789 H         1 UNK         0.0786 
     93 H93        23.8795  -25.2836  -42.3403 H         1 UNK         0.0786 
     94 H94        24.8295  -25.4345  -40.8755 H         1 UNK         0.0786 
     95 H95        27.0737  -28.2537  -42.3835 H         1 UNK         0.3172 
     96 H96        26.0371  -27.1235  -39.8687 H         1 UNK         0.0595 
     97 H97        28.4012  -27.3011  -39.1912 H         1 UNK         0.0839 
     98 H98        28.2744  -26.4715  -40.7311 H         1 UNK         0.0839 
     99 H99        28.8005  -28.1542  -40.6747 H         1 UNK         0.0839 
    100 H100       25.9791  -30.1781  -41.3022 H         1 UNK         0.2998 
    101 H101       26.8268  -31.8548  -39.1477 H         1 UNK         0.0822 
    102 H102       26.8604  -32.5542  -41.5393 H         1 UNK         0.0787 
    103 H103       25.8849  -33.6636  -40.5934 H         1 UNK         0.0787 
    104 H104       25.0992  -32.4652  -41.6111 H         1 UNK         0.0787 
    105 H105       23.8404  -30.2037  -39.6361 H         1 UNK         0.3055 
    106 H106       21.8229  -30.1802  -38.7173 H         1 UNK         0.1106 
    107 H107       22.9139  -31.9089  -36.4293 H         1 UNK         0.0828 
    108 H108       22.9749  -30.1478  -36.4852 H         1 UNK         0.0828 
    109 H109       21.4272  -30.9750  -36.4187 H         1 UNK         0.0828 
    110 H110       22.2961  -31.8013  -40.7772 H         1 UNK         0.2931 
    111 H111       21.6453  -33.4559  -42.0452 H         1 UNK         0.0412 
    112 H112       23.4034  -34.1860  -39.4001 H         1 UNK         0.3472 
    113 H113       23.5142  -35.9096  -39.6514 H         1 UNK         0.3472 
    114 H114       19.4751  -34.6413  -41.7121 H         1 UNK         0.0970 
    115 H115       19.3757  -34.0360  -40.0843 H         1 UNK         0.0970 
    116 H116       19.7445  -32.9415  -43.8505 H         1 UNK         0.0612 
    117 H117       18.1354  -33.5716  -43.5604 H         1 UNK         0.0612 
@<TRIPOS>BOND
     1    1    2 1    
     2    1   62 1    
     3    1   63 1    
     4    1   64 1    
     5    2    3 2    
     6    2    4 am   BACKBONE|DICT|INTERRES
     7    4    5 1    
     8    4   65 1    
     9    5    6 1    
    10    5   25 1    
    11    5   66 1    
    12    6    7 1    
    13    6   67 1    
    14    6   68 1    
    15    7    8 1    
    16    8    9 1    
    17    8   69 1    
    18    8   70 1    
    19    9   10 ar   
    20    9   14 ar   
    21   10   11 ar   
    22   10   71 1    
    23   11   12 ar   
    24   11   61 1    
    25   12   13 ar   
    26   12   72 1    
    27   13   14 ar   
    28   13   15 1    
    29   14   73 1    
    30   15   16 1    
    31   15   74 1    
    32   15   75 1    
    33   16   17 1    
    34   17   18 1    
    35   17   76 1    
    36   17   77 1    
    37   18   19 1    
    38   18   27 1    
    39   18   78 1    
    40   19   20 am   BACKBONE|DICT|INTERRES
    41   19   79 1    
    42   20   21 2    
    43   20   22 1    
    44   22   23 1    
    45   22   24 1    
    46   22   80 1    
    47   23   81 1    
    48   23   82 1    
    49   23   83 1    
    50   24   25 am   BACKBONE|DICT|INTERRES
    51   24   84 1    
    52   25   26 2    
    53   27   28 2    
    54   27   29 am   BACKBONE|DICT|INTERRES
    55   29   30 1    
    56   29   85 1    
    57   30   31 1    
    58   30   32 1    
    59   30   86 1    
    60   31   87 1    
    61   31   88 1    
    62   31   89 1    
    63   32   33 2    
    64   32   34 am   BACKBONE|DICT|INTERRES
    65   34   35 1    
    66   34   90 1    
    67   35   36 1    
    68   35   37 1    
    69   35   91 1    
    70   36   92 1    
    71   36   93 1    
    72   36   94 1    
    73   37   38 2    
    74   37   39 am   BACKBONE|DICT|INTERRES
    75   39   40 1    
    76   39   95 1    
    77   40   41 1    
    78   40   42 1    
    79   40   96 1    
    80   41   97 1    
    81   41   98 1    
    82   41   99 1    
    83   42   43 2    
    84   42   44 am   BACKBONE|DICT|INTERRES
    85   44   45 1    
    86   44  100 1    
    87   45   46 1    
    88   45   47 1    
    89   45  101 1    
    90   46  102 1    
    91   46  103 1    
    92   46  104 1    
    93   47   48 2    
    94   47   49 am   BACKBONE|DICT|INTERRES
    95   49   50 1    
    96   49  105 1    
    97   50   51 1    
    98   50   52 1    
    99   50  106 1    
   100   51  107 1    
   101   51  108 1    
   102   51  109 1    
   103   52   53 2    
   104   52   54 am   BACKBONE|DICT|INTERRES
   105   54   55 1    
   106   54  110 1    
   107   55   56 1    
   108   55   59 1    
   109   55  111 1    
   110   56   57 am   BACKBONE|DICT|INTERRES
   111   56   58 2    
   112   57  112 1    
   113   57  113 1    
   114   59   60 1    
   115   59  114 1    
   116   59  115 1    
   117   60   61 1    
   118   61  116 1    
   119   61  117 1    
@<TRIPOS>SUBSTRUCTURE
     1 UNK         1 GROUP             0       ****    0 ROOT    
