@<TRIPOS>MOLECULE
3R8
117   119    1
SMALL
USER_CHARGES


@<TRIPOS>ATOM
      1 CA         18.3450  -24.0176  -49.1309 C.3       0 UNK        -0.2013 
      2 C          19.1383  -25.1010  -48.4154 C.2       0 UNK         0.4866 
      3 O          20.3687  -25.0946  -48.4684 O.2       0 UNK        -0.5176 
      4 N          18.4445  -26.0359  -47.7537 N.am      1 UNK        -0.4884 
      5 CA         19.0445  -27.1052  -46.9487 C.3       1 UNK         0.0853 
      6 C6         18.0382  -28.2594  -46.7269 C.3       10 UNK        -0.0849 
      7 S7         18.8584  -29.8692  -46.4670 S.3       10 UNK        -0.2776 
      8 C8         17.5028  -30.8550  -45.7517 C.3       10 UNK         0.0316 
      9 C9         17.3795  -30.6193  -44.2542 C.ar      10 UNK        -0.0863 
     10 C10        18.0764  -31.4286  -43.3545 C.ar      10 UNK        -0.1009 
     11 C11        17.9992  -31.1957  -41.9776 C.ar      10 UNK        -0.0712 
     12 C12        17.2264  -30.1301  -41.5020 C.ar      10 UNK        -0.0894 
     13 C13        16.5183  -29.3184  -42.3947 C.ar      10 UNK        -0.0745 
     14 C14        16.5774  -29.5879  -43.7641 C.ar      10 UNK        -0.0972 
     15 C15        15.6824  -28.1463  -41.9037 C.3       10 UNK         0.0209 
     16 S16        16.3321  -26.5668  -42.5422 S.3       10 UNK        -0.2568 
     17 C17        17.3914  -25.9994  -41.1741 C.3       10 UNK        -0.0983 
     18 CA         18.7909  -26.6624  -41.1105 C.3       3 UNK         0.0876 
     19 N          19.5386  -26.5507  -42.3689 N.am      3 UNK        -0.4424 
     20 C          20.7558  -27.0640  -42.5942 C.2       2 UNK         0.4918 
     21 O          21.3599  -27.7752  -41.7860 O.2       2 UNK        -0.4875 
     22 CA         21.4206  -26.6952  -43.9355 C.3       2 UNK         0.0481 
     23 CB         22.8580  -27.2319  -44.0464 C.3       2 UNK        -0.1831 
     24 N          20.6629  -27.1509  -45.1029 N.am      2 UNK        -0.4498 
     25 C          19.5882  -26.5408  -45.6166 C.2       1 UNK         0.5027 
     26 O          19.0367  -25.5725  -45.0844 O.2       1 UNK        -0.4969 
     27 C          19.5860  -26.0409  -39.9436 C.2       3 UNK         0.5005 
     28 O          20.1845  -24.9760  -40.1209 O.2       3 UNK        -0.5279 
     29 N          19.5850  -26.7120  -38.7823 N.am      4 UNK        -0.4463 
     30 CA         20.2745  -26.3712  -37.5248 C.3       4 UNK         0.0283 
     31 CB         19.7953  -25.0191  -36.9606 C.3       4 UNK        -0.1875 
     32 C          21.8141  -26.4278  -37.5915 C.2       4 UNK         0.4949 
     33 O          22.4349  -26.8932  -36.6360 O.2       4 UNK        -0.5039 
     34 N          22.4024  -25.9809  -38.7084 N.am      5 UNK        -0.4663 
     35 CA         23.8325  -26.0645  -39.0151 C.3       5 UNK         0.0242 
     36 CB         24.1277  -25.2433  -40.2805 C.3       5 UNK        -0.1982 
     37 C          24.3195  -27.5136  -39.1833 C.2       5 UNK         0.5017 
     38 O          25.4417  -27.8209  -38.7809 O.2       5 UNK        -0.5012 
     39 N          23.4575  -28.3688  -39.7558 N.am      6 UNK        -0.4439 
     40 CA         23.6259  -29.8147  -39.9336 C.3       6 UNK         0.0297 
     41 CB         23.6476  -30.5397  -38.5716 C.3       6 UNK        -0.2006 
     42 C          24.8056  -30.2037  -40.8451 C.2       6 UNK         0.4892 
     43 O          25.4081  -31.2609  -40.6543 O.2       6 UNK        -0.5089 
     44 N          25.0943  -29.3557  -41.8430 N.am      7 UNK        -0.4243 
     45 CA         26.0682  -29.6282  -42.9071 C.3       7 UNK         0.0196 
     46 CB         26.4940  -28.3024  -43.5589 C.3       7 UNK        -0.2007 
     47 C          25.5303  -30.6113  -43.9663 C.2       7 UNK         0.5020 
     48 O          26.3221  -31.1887  -44.7117 O.2       7 UNK        -0.5147 
     49 N          24.2027  -30.7788  -44.0092 N.am      8 UNK        -0.4734 
     50 CA         23.4840  -31.7679  -44.8072 C.3       8 UNK         0.0238 
     51 CB         22.3448  -31.0540  -45.5677 C.3       8 UNK        -0.1912 
     52 C          23.0125  -32.8800  -43.8520 C.2       8 UNK         0.5038 
     53 O          23.8472  -33.4550  -43.1504 O.2       8 UNK        -0.5046 
     54 N          21.6991  -33.1395  -43.8117 N.am      9 UNK        -0.4200 
     55 CA         21.0283  -34.0808  -42.8980 C.3       9 UNK         0.0839 
     56 C          21.4420  -35.5678  -43.1290 C.2       9 UNK         0.5513 
     57 N          21.2150  -36.4568  -42.1703 N.am      9 UNK        -0.7519 
     58 O          21.9162  -35.9424  -44.2001 O.2       9 UNK        -0.4960 
     59 C59        21.0976  -33.6218  -41.4073 C.3       10 UNK        -0.0876 
     60 S60        20.5428  -31.8986  -41.1502 S.3       10 UNK        -0.2414 
     61 C61        18.7404  -32.1083  -41.0117 C.3       10 UNK         0.0169 
     62 H62        17.2700  -24.1539  -49.0140 H         1 UNK         0.0903 
     63 H63        18.6073  -23.0373  -48.7339 H         1 UNK         0.0903 
     64 H64        18.5737  -24.0264  -50.1963 H         1 UNK         0.0903 
     65 H65        17.4375  -25.9666  -47.7119 H         1 UNK         0.3096 
     66 H66        19.8918  -27.4919  -47.5209 H         1 UNK         0.1121 
     67 H67        17.3640  -28.0260  -45.9041 H         1 UNK         0.0849 
     68 H68        17.4026  -28.3785  -47.6062 H         1 UNK         0.0849 
     69 H69        16.5637  -30.6233  -46.2569 H         1 UNK         0.0865 
     70 H70        17.6965  -31.9112  -45.9453 H         1 UNK         0.0865 
     71 H71        18.6865  -32.2375  -43.7276 H         1 UNK         0.1346 
     72 H72        17.1714  -29.9379  -40.4393 H         1 UNK         0.1412 
     73 H73        16.0127  -28.9697  -44.4472 H         1 UNK         0.1426 
     74 H74        15.6278  -28.1239  -40.8144 H         1 UNK         0.0716 
     75 H75        14.6586  -28.2722  -42.2586 H         1 UNK         0.0716 
     76 H76        16.8521  -26.1497  -40.2368 H         1 UNK         0.0695 
     77 H77        17.4946  -24.9179  -41.2859 H         1 UNK         0.0695 
     78 H78        18.6657  -27.7283  -40.9144 H         1 UNK         0.0983 
     79 H79        19.1111  -25.9984  -43.1045 H         1 UNK         0.3095 
     80 H80        21.4810  -25.6052  -43.9671 H         1 UNK         0.0454 
     81 H81        22.8803  -28.3204  -44.0266 H         1 UNK         0.0851 
     82 H82        23.4742  -26.8718  -43.2226 H         1 UNK         0.0851 
     83 H83        23.3346  -26.9030  -44.9699 H         1 UNK         0.0851 
     84 H84        21.0089  -27.9794  -45.5651 H         1 UNK         0.2976 
     85 H85        19.0831  -27.5892  -38.7530 H         1 UNK         0.3116 
     86 H86        19.9714  -27.1415  -36.8136 H         1 UNK         0.0646 
     87 H87        20.0836  -24.1825  -37.5975 H         1 UNK         0.0847 
     88 H88        20.2269  -24.8359  -35.9758 H         1 UNK         0.0847 
     89 H89        18.7115  -24.9972  -36.8478 H         1 UNK         0.0847 
     90 H90        21.7932  -25.5711  -39.4134 H         1 UNK         0.3040 
     91 H91        24.3837  -25.6269  -38.1797 H         1 UNK         0.1015 
     92 H92        23.8897  -24.1899  -40.1313 H         1 UNK         0.0786 
     93 H93        23.5504  -25.5969  -41.1352 H         1 UNK         0.0786 
     94 H94        25.1836  -25.3014  -40.5491 H         1 UNK         0.0786 
     95 H95        22.5881  -27.9918  -40.1211 H         1 UNK         0.3172 
     96 H96        22.7315  -30.1431  -40.4614 H         1 UNK         0.0595 
     97 H97        24.5499  -30.3087  -38.0046 H         1 UNK         0.0839 
     98 H98        23.6138  -31.6218  -38.7044 H         1 UNK         0.0839 
     99 H99        22.7873  -30.2634  -37.9620 H         1 UNK         0.0839 
    100 H100       24.5708  -28.4952  -41.9033 H         1 UNK         0.2998 
    101 H101       26.9530  -30.0844  -42.4573 H         1 UNK         0.0822 
    102 H102       27.2777  -28.4697  -44.2991 H         1 UNK         0.0787 
    103 H103       25.6656  -27.8151  -44.0722 H         1 UNK         0.0787 
    104 H104       26.8916  -27.6054  -42.8208 H         1 UNK         0.0787 
    105 H105       23.6566  -30.3025  -43.3073 H         1 UNK         0.3055 
    106 H106       24.1507  -32.2322  -45.5375 H         1 UNK         0.1106 
    107 H107       21.8003  -31.7460  -46.2118 H         1 UNK         0.0828 
    108 H108       22.7416  -30.2716  -46.2149 H         1 UNK         0.0828 
    109 H109       21.6266  -30.5859  -44.8925 H         1 UNK         0.0828 
    110 H110       21.0943  -32.6375  -44.4431 H         1 UNK         0.2931 
    111 H111       19.9793  -34.0550  -43.1909 H         1 UNK         0.0412 
    112 H112       21.4636  -37.4206  -42.3328 H         1 UNK         0.3472 
    113 H113       20.8004  -36.1915  -41.2913 H         1 UNK         0.3472 
    114 H114       20.4990  -34.2694  -40.7657 H         1 UNK         0.0970 
    115 H115       22.1213  -33.7021  -41.0375 H         1 UNK         0.0970 
    116 H116       18.4568  -33.1409  -41.2188 H         1 UNK         0.0612 
    117 H117       18.4431  -31.9099  -39.9810 H         1 UNK         0.0612 
@<TRIPOS>BOND
     1    1    2 1    
     2    1   62 1    
     3    1   63 1    
     4    1   64 1    
     5    2    3 2    
     6    2    4 am   BACKBONE|DICT|INTERRES
     7    4    5 1    
     8    4   65 1    
     9    5    6 1    
    10    5   25 1    
    11    5   66 1    
    12    6    7 1    
    13    6   67 1    
    14    6   68 1    
    15    7    8 1    
    16    8    9 1    
    17    8   69 1    
    18    8   70 1    
    19    9   10 ar   
    20    9   14 ar   
    21   10   11 ar   
    22   10   71 1    
    23   11   12 ar   
    24   11   61 1    
    25   12   13 ar   
    26   12   72 1    
    27   13   14 ar   
    28   13   15 1    
    29   14   73 1    
    30   15   16 1    
    31   15   74 1    
    32   15   75 1    
    33   16   17 1    
    34   17   18 1    
    35   17   76 1    
    36   17   77 1    
    37   18   19 1    
    38   18   27 1    
    39   18   78 1    
    40   19   20 am   BACKBONE|DICT|INTERRES
    41   19   79 1    
    42   20   21 2    
    43   20   22 1    
    44   22   23 1    
    45   22   24 1    
    46   22   80 1    
    47   23   81 1    
    48   23   82 1    
    49   23   83 1    
    50   24   25 am   BACKBONE|DICT|INTERRES
    51   24   84 1    
    52   25   26 2    
    53   27   28 2    
    54   27   29 am   BACKBONE|DICT|INTERRES
    55   29   30 1    
    56   29   85 1    
    57   30   31 1    
    58   30   32 1    
    59   30   86 1    
    60   31   87 1    
    61   31   88 1    
    62   31   89 1    
    63   32   33 2    
    64   32   34 am   BACKBONE|DICT|INTERRES
    65   34   35 1    
    66   34   90 1    
    67   35   36 1    
    68   35   37 1    
    69   35   91 1    
    70   36   92 1    
    71   36   93 1    
    72   36   94 1    
    73   37   38 2    
    74   37   39 am   BACKBONE|DICT|INTERRES
    75   39   40 1    
    76   39   95 1    
    77   40   41 1    
    78   40   42 1    
    79   40   96 1    
    80   41   97 1    
    81   41   98 1    
    82   41   99 1    
    83   42   43 2    
    84   42   44 am   BACKBONE|DICT|INTERRES
    85   44   45 1    
    86   44  100 1    
    87   45   46 1    
    88   45   47 1    
    89   45  101 1    
    90   46  102 1    
    91   46  103 1    
    92   46  104 1    
    93   47   48 2    
    94   47   49 am   BACKBONE|DICT|INTERRES
    95   49   50 1    
    96   49  105 1    
    97   50   51 1    
    98   50   52 1    
    99   50  106 1    
   100   51  107 1    
   101   51  108 1    
   102   51  109 1    
   103   52   53 2    
   104   52   54 am   BACKBONE|DICT|INTERRES
   105   54   55 1    
   106   54  110 1    
   107   55   56 1    
   108   55   59 1    
   109   55  111 1    
   110   56   57 am   BACKBONE|DICT|INTERRES
   111   56   58 2    
   112   57  112 1    
   113   57  113 1    
   114   59   60 1    
   115   59  114 1    
   116   59  115 1    
   117   60   61 1    
   118   61  116 1    
   119   61  117 1    
@<TRIPOS>SUBSTRUCTURE
     1 UNK         1 GROUP             0       ****    0 ROOT    
