@<TRIPOS>MOLECULE
3R8
117   119    1
SMALL
USER_CHARGES


@<TRIPOS>ATOM
      1 CA         17.1847  -23.8291  -40.0038 C.3       0 UNK        -0.2013 
      2 C          17.0212  -24.3310  -41.4307 C.2       0 UNK         0.4866 
      3 O          17.4600  -23.6638  -42.3674 O.2       0 UNK        -0.5176 
      4 N          16.3885  -25.4998  -41.6028 N.am      1 UNK        -0.4884 
      5 CA         16.1648  -26.1478  -42.9025 C.3       1 UNK         0.0853 
      6 C6         15.1248  -27.2912  -42.7795 C.3       10 UNK        -0.0849 
      7 S7         14.3713  -27.7557  -44.3758 S.3       10 UNK        -0.2776 
      8 C8         14.8088  -29.5238  -44.5220 C.3       10 UNK         0.0316 
      9 C9         16.1954  -29.7781  -45.1102 C.ar      10 UNK        -0.0863 
     10 C10        17.0922  -30.6359  -44.4617 C.ar      10 UNK        -0.1009 
     11 C11        18.3196  -30.9719  -45.0536 C.ar      10 UNK        -0.0712 
     12 C12        18.6505  -30.4113  -46.2906 C.ar      10 UNK        -0.0894 
     13 C13        17.7801  -29.5314  -46.9374 C.ar      10 UNK        -0.0745 
     14 C14        16.5506  -29.2273  -46.3463 C.ar      10 UNK        -0.0972 
     15 C15        18.1445  -28.9469  -48.2957 C.3       10 UNK         0.0209 
     16 S16        19.0510  -27.3719  -48.1554 S.3       10 UNK        -0.2568 
     17 C17        20.7490  -27.9234  -47.7694 C.3       10 UNK        -0.0983 
     18 CA         21.2629  -27.3916  -46.4084 C.3       3 UNK         0.0876 
     19 N          20.3836  -27.7692  -45.2932 N.am      3 UNK        -0.4424 
     20 C          20.4843  -27.3071  -44.0402 C.2       2 UNK         0.4918 
     21 O          21.3025  -26.4578  -43.6847 O.2       2 UNK        -0.4875 
     22 CA         19.5636  -27.9670  -43.0006 C.3       2 UNK         0.0481 
     23 CB         20.3294  -28.2631  -41.6997 C.3       2 UNK        -0.1831 
     24 N          18.3542  -27.2100  -42.6773 N.am      2 UNK        -0.4498 
     25 C          17.4744  -26.6637  -43.5316 C.2       1 UNK         0.5027 
     26 O          17.6358  -26.5704  -44.7472 O.2       1 UNK        -0.4969 
     27 C          22.7265  -27.8332  -46.1734 C.2       3 UNK         0.5005 
     28 O          23.6454  -27.2141  -46.7105 O.2       3 UNK        -0.5279 
     29 N          22.9128  -28.8720  -45.3440 N.am      4 UNK        -0.4463 
     30 CA         24.2005  -29.3658  -44.8510 C.3       4 UNK         0.0283 
     31 CB         24.0243  -30.8287  -44.4104 C.3       4 UNK        -0.1875 
     32 C          24.8044  -28.5105  -43.7140 C.2       4 UNK         0.4949 
     33 O          25.8880  -28.8457  -43.2338 O.2       4 UNK        -0.5039 
     34 N          24.1123  -27.4362  -43.3001 N.am      5 UNK        -0.4663 
     35 CA         24.5212  -26.4325  -42.3131 C.3       5 UNK         0.0242 
     36 CB         25.6810  -25.5732  -42.8683 C.3       5 UNK        -0.1982 
     37 C          24.7940  -27.0502  -40.9302 C.2       5 UNK         0.5017 
     38 O          23.8560  -27.5460  -40.3042 O.2       5 UNK        -0.5012 
     39 N          26.0588  -27.0193  -40.4849 N.am      6 UNK        -0.4439 
     40 CA         26.5392  -27.4650  -39.1708 C.3       6 UNK         0.0297 
     41 CB         28.0448  -27.1724  -39.0645 C.3       6 UNK        -0.2006 
     42 C          26.2553  -28.9392  -38.8243 C.2       6 UNK         0.4892 
     43 O          26.2636  -29.2835  -37.6419 O.2       6 UNK        -0.5089 
     44 N          25.9889  -29.7753  -39.8380 N.am      7 UNK        -0.4243 
     45 CA         25.5332  -31.1584  -39.6726 C.3       7 UNK         0.0196 
     46 CB         25.6540  -31.8880  -41.0184 C.3       7 UNK        -0.2007 
     47 C          24.0938  -31.2718  -39.1311 C.2       7 UNK         0.5020 
     48 O          23.7185  -32.3483  -38.6654 O.2       7 UNK        -0.5147 
     49 N          23.3036  -30.1879  -39.2266 N.am      8 UNK        -0.4734 
     50 CA         21.9278  -30.0320  -38.7271 C.3       8 UNK         0.0238 
     51 CB         21.9160  -30.0454  -37.1841 C.3       8 UNK        -0.1912 
     52 C          20.9112  -31.0270  -39.3256 C.2       8 UNK         0.5038 
     53 O          19.8577  -31.2543  -38.7290 O.2       8 UNK        -0.5046 
     54 N          21.2454  -31.5991  -40.4905 N.am      9 UNK        -0.4200 
     55 CA         20.5273  -32.6996  -41.1492 C.3       9 UNK         0.0839 
     56 C          20.5712  -34.0489  -40.3618 C.2       9 UNK         0.5513 
     57 N          21.5184  -34.2495  -39.4512 N.am      9 UNK        -0.7519 
     58 O          19.7567  -34.9396  -40.5883 O.2       9 UNK        -0.4960 
     59 C59        19.1034  -32.2797  -41.6261 C.3       10 UNK        -0.0876 
     60 S60        18.6334  -33.0966  -43.1882 S.3       10 UNK        -0.2414 
     61 C61        19.3232  -31.9343  -44.4148 C.3       10 UNK         0.0169 
     62 H62        16.7046  -22.8573  -39.8909 H         1 UNK         0.0903 
     63 H63        16.7437  -24.5109  -39.2769 H         1 UNK         0.0903 
     64 H64        18.2419  -23.7164  -39.7650 H         1 UNK         0.0903 
     65 H65        16.0321  -25.9913  -40.7947 H         1 UNK         0.3096 
     66 H66        15.7616  -25.3871  -43.5757 H         1 UNK         0.1121 
     67 H67        14.3028  -26.9721  -42.1366 H         1 UNK         0.0849 
     68 H68        15.5561  -28.1670  -42.2905 H         1 UNK         0.0849 
     69 H69        14.6964  -30.0087  -43.5510 H         1 UNK         0.0865 
     70 H70        14.0770  -29.9999  -45.1760 H         1 UNK         0.0865 
     71 H71        16.8144  -31.0641  -43.5093 H         1 UNK         0.1346 
     72 H72        19.5880  -30.6754  -46.7601 H         1 UNK         0.1412 
     73 H73        15.8615  -28.5663  -46.8544 H         1 UNK         0.1426 
     74 H74        17.2350  -28.7695  -48.8718 H         1 UNK         0.0716 
     75 H75        18.7293  -29.6615  -48.8769 H         1 UNK         0.0716 
     76 H76        21.3925  -27.5667  -48.5761 H         1 UNK         0.0695 
     77 H77        20.8054  -29.0117  -47.8071 H         1 UNK         0.0695 
     78 H78        21.2692  -26.3002  -46.4546 H         1 UNK         0.0983 
     79 H79        19.6094  -28.3780  -45.5249 H         1 UNK         0.3095 
     80 H80        19.2335  -28.9240  -43.4037 H         1 UNK         0.0454 
     81 H81        20.6486  -27.3472  -41.2001 H         1 UNK         0.0851 
     82 H82        21.2267  -28.8515  -41.8965 H         1 UNK         0.0851 
     83 H83        19.7151  -28.8287  -40.9999 H         1 UNK         0.0851 
     84 H84        18.1163  -27.1656  -41.6978 H         1 UNK         0.2976 
     85 H85        22.0901  -29.3190  -44.9685 H         1 UNK         0.3116 
     86 H86        24.9142  -29.3457  -45.6772 H         1 UNK         0.0646 
     87 H87        23.6183  -31.4406  -45.2162 H         1 UNK         0.0847 
     88 H88        23.3571  -30.9171  -43.5524 H         1 UNK         0.0847 
     89 H89        24.9828  -31.2687  -44.1329 H         1 UNK         0.0847 
     90 H90        23.2022  -27.2647  -43.7123 H         1 UNK         0.3040 
     91 H91        23.6626  -25.7725  -42.1764 H         1 UNK         0.1015 
     92 H92        26.5728  -26.1631  -43.0830 H         1 UNK         0.0786 
     93 H93        25.9602  -24.7840  -42.1686 H         1 UNK         0.0786 
     94 H94        25.3869  -25.0818  -43.7961 H         1 UNK         0.0786 
     95 H95        26.7535  -26.6240  -41.1023 H         1 UNK         0.3172 
     96 H96        26.0224  -26.8611  -38.4222 H         1 UNK         0.0595 
     97 H97        28.6162  -27.7215  -39.8141 H         1 UNK         0.0839 
     98 H98        28.4317  -27.4605  -38.0858 H         1 UNK         0.0839 
     99 H99        28.2551  -26.1102  -39.1910 H         1 UNK         0.0839 
    100 H100       26.0171  -29.4094  -40.7812 H         1 UNK         0.2998 
    101 H101       26.1910  -31.6517  -38.9537 H         1 UNK         0.0822 
    102 H102       26.6776  -31.8674  -41.3931 H         1 UNK         0.0787 
    103 H103       25.3635  -32.9356  -40.9254 H         1 UNK         0.0787 
    104 H104       25.0113  -31.4357  -41.7718 H         1 UNK         0.0787 
    105 H105       23.6951  -29.3459  -39.6439 H         1 UNK         0.3055 
    106 H106       21.6013  -29.0417  -39.0486 H         1 UNK         0.1106 
    107 H107       22.1699  -31.0287  -36.7869 H         1 UNK         0.0828 
    108 H108       20.9319  -29.7817  -36.7948 H         1 UNK         0.0828 
    109 H109       22.6261  -29.3257  -36.7765 H         1 UNK         0.0828 
    110 H110       22.1447  -31.3640  -40.8818 H         1 UNK         0.2931 
    111 H111       21.1277  -32.8912  -42.0393 H         1 UNK         0.0412 
    112 H112       21.5422  -35.1264  -38.9553 H         1 UNK         0.3472 
    113 H113       22.2088  -33.5358  -39.2412 H         1 UNK         0.3472 
    114 H114       19.0470  -31.2015  -41.7812 H         1 UNK         0.0970 
    115 H115       18.3549  -32.5019  -40.8634 H         1 UNK         0.0970 
    116 H116       19.7795  -32.5397  -45.1996 H         1 UNK         0.0612 
    117 H117       20.1354  -31.3596  -43.9680 H         1 UNK         0.0612 
@<TRIPOS>BOND
     1    1    2 1    
     2    1   62 1    
     3    1   63 1    
     4    1   64 1    
     5    2    3 2    
     6    2    4 am   BACKBONE|DICT|INTERRES
     7    4    5 1    
     8    4   65 1    
     9    5    6 1    
    10    5   25 1    
    11    5   66 1    
    12    6    7 1    
    13    6   67 1    
    14    6   68 1    
    15    7    8 1    
    16    8    9 1    
    17    8   69 1    
    18    8   70 1    
    19    9   10 ar   
    20    9   14 ar   
    21   10   11 ar   
    22   10   71 1    
    23   11   12 ar   
    24   11   61 1    
    25   12   13 ar   
    26   12   72 1    
    27   13   14 ar   
    28   13   15 1    
    29   14   73 1    
    30   15   16 1    
    31   15   74 1    
    32   15   75 1    
    33   16   17 1    
    34   17   18 1    
    35   17   76 1    
    36   17   77 1    
    37   18   19 1    
    38   18   27 1    
    39   18   78 1    
    40   19   20 am   BACKBONE|DICT|INTERRES
    41   19   79 1    
    42   20   21 2    
    43   20   22 1    
    44   22   23 1    
    45   22   24 1    
    46   22   80 1    
    47   23   81 1    
    48   23   82 1    
    49   23   83 1    
    50   24   25 am   BACKBONE|DICT|INTERRES
    51   24   84 1    
    52   25   26 2    
    53   27   28 2    
    54   27   29 am   BACKBONE|DICT|INTERRES
    55   29   30 1    
    56   29   85 1    
    57   30   31 1    
    58   30   32 1    
    59   30   86 1    
    60   31   87 1    
    61   31   88 1    
    62   31   89 1    
    63   32   33 2    
    64   32   34 am   BACKBONE|DICT|INTERRES
    65   34   35 1    
    66   34   90 1    
    67   35   36 1    
    68   35   37 1    
    69   35   91 1    
    70   36   92 1    
    71   36   93 1    
    72   36   94 1    
    73   37   38 2    
    74   37   39 am   BACKBONE|DICT|INTERRES
    75   39   40 1    
    76   39   95 1    
    77   40   41 1    
    78   40   42 1    
    79   40   96 1    
    80   41   97 1    
    81   41   98 1    
    82   41   99 1    
    83   42   43 2    
    84   42   44 am   BACKBONE|DICT|INTERRES
    85   44   45 1    
    86   44  100 1    
    87   45   46 1    
    88   45   47 1    
    89   45  101 1    
    90   46  102 1    
    91   46  103 1    
    92   46  104 1    
    93   47   48 2    
    94   47   49 am   BACKBONE|DICT|INTERRES
    95   49   50 1    
    96   49  105 1    
    97   50   51 1    
    98   50   52 1    
    99   50  106 1    
   100   51  107 1    
   101   51  108 1    
   102   51  109 1    
   103   52   53 2    
   104   52   54 am   BACKBONE|DICT|INTERRES
   105   54   55 1    
   106   54  110 1    
   107   55   56 1    
   108   55   59 1    
   109   55  111 1    
   110   56   57 am   BACKBONE|DICT|INTERRES
   111   56   58 2    
   112   57  112 1    
   113   57  113 1    
   114   59   60 1    
   115   59  114 1    
   116   59  115 1    
   117   60   61 1    
   118   61  116 1    
   119   61  117 1    
@<TRIPOS>SUBSTRUCTURE
     1 UNK         1 GROUP             0       ****    0 ROOT    
