@<TRIPOS>MOLECULE
3R8
117   119    1
SMALL
USER_CHARGES


@<TRIPOS>ATOM
      1 CA         15.6855  -21.7447  -43.5924 C.3       0 UNK        -0.2013 
      2 C          15.9998  -22.8034  -44.6384 C.2       0 UNK         0.4866 
      3 O          16.1336  -22.4790  -45.8183 O.2       0 UNK        -0.5176 
      4 N          16.1237  -24.0683  -44.2157 N.am      1 UNK        -0.4884 
      5 CA         16.4226  -25.2215  -45.0771 C.3       1 UNK         0.0853 
      6 C6         15.8615  -26.5393  -44.4854 C.3       10 UNK        -0.0849 
      7 S7         16.3932  -26.8904  -42.7719 S.3       10 UNK        -0.2776 
      8 C8         15.9587  -28.6549  -42.6068 C.3       10 UNK         0.0316 
      9 C9         17.1538  -29.5535  -42.8912 C.ar      10 UNK        -0.0863 
     10 C10        17.8665  -30.1399  -41.8394 C.ar      10 UNK        -0.1009 
     11 C11        18.9939  -30.9265  -42.0975 C.ar      10 UNK        -0.0712 
     12 C12        19.4137  -31.1144  -43.4177 C.ar      10 UNK        -0.0894 
     13 C13        18.6961  -30.5540  -44.4752 C.ar      10 UNK        -0.0745 
     14 C14        17.5585  -29.7907  -44.2070 C.ar      10 UNK        -0.0972 
     15 C15        19.1483  -30.7568  -45.9107 C.3       10 UNK         0.0209 
     16 S16        19.7444  -29.2016  -46.6410 S.3       10 UNK        -0.2568 
     17 C17        21.4129  -29.0336  -45.9189 C.3       10 UNK        -0.0983 
     18 CA         21.5997  -27.9004  -44.8686 C.3       3 UNK         0.0876 
     19 N          20.8303  -26.6816  -45.1748 N.am      3 UNK        -0.4424 
     20 C          21.1206  -25.4532  -44.7272 C.2       2 UNK         0.4918 
     21 O          22.0586  -25.2201  -43.9664 O.2       2 UNK        -0.4875 
     22 CA         20.2080  -24.2915  -45.1523 C.3       2 UNK         0.0481 
     23 CB         20.4650  -23.8838  -46.6163 C.3       2 UNK        -0.1831 
     24 N          18.7783  -24.4964  -44.8797 N.am      2 UNK        -0.4498 
     25 C          17.9136  -25.3312  -45.4770 C.2       1 UNK         0.5027 
     26 O          18.2442  -26.1498  -46.3347 O.2       1 UNK        -0.4969 
     27 C          21.4962  -28.3716  -43.3964 C.2       3 UNK         0.5005 
     28 O          22.2126  -29.2945  -42.9993 O.2       3 UNK        -0.5279 
     29 N          20.6786  -27.6831  -42.5856 N.am      4 UNK        -0.4463 
     30 CA         20.7059  -27.7439  -41.1236 C.3       4 UNK         0.0283 
     31 CB         19.4955  -26.9907  -40.5531 C.3       4 UNK        -0.1875 
     32 C          22.0121  -27.1979  -40.5169 C.2       4 UNK         0.4949 
     33 O          22.3704  -27.6119  -39.4140 O.2       4 UNK        -0.5039 
     34 N          22.7189  -26.3082  -41.2340 N.am      5 UNK        -0.4663 
     35 CA         24.0532  -25.8260  -40.8692 C.3       5 UNK         0.0242 
     36 CB         24.4847  -24.7092  -41.8334 C.3       5 UNK        -0.1982 
     37 C          25.0607  -26.9877  -40.8808 C.2       5 UNK         0.5017 
     38 O          25.2452  -27.6180  -41.9234 O.2       5 UNK        -0.5012 
     39 N          25.6376  -27.2747  -39.7056 N.am      6 UNK        -0.4439 
     40 CA         26.4901  -28.4298  -39.3881 C.3       6 UNK         0.0297 
     41 CB         27.7707  -28.4456  -40.2512 C.3       6 UNK        -0.2006 
     42 C          25.7532  -29.7888  -39.4037 C.2       6 UNK         0.4892 
     43 O          26.4207  -30.8210  -39.3258 O.2       6 UNK        -0.5089 
     44 N          24.4099  -29.7655  -39.4570 N.am      7 UNK        -0.4243 
     45 CA         23.4769  -30.8963  -39.4016 C.3       7 UNK         0.0196 
     46 CB         23.3791  -31.4268  -37.9565 C.3       7 UNK        -0.2007 
     47 C          23.7945  -32.0072  -40.4200 C.2       7 UNK         0.5020 
     48 O          24.0701  -33.1429  -40.0276 O.2       7 UNK        -0.5147 
     49 N          23.7357  -31.6742  -41.7186 N.am      8 UNK        -0.4734 
     50 CA         24.0493  -32.5989  -42.8206 C.3       8 UNK         0.0238 
     51 CB         24.0663  -31.8235  -44.1459 C.3       8 UNK        -0.1912 
     52 C          23.1067  -33.8156  -42.9233 C.2       8 UNK         0.5038 
     53 O          23.4840  -34.8221  -43.5241 O.2       8 UNK        -0.5046 
     54 N          21.9145  -33.7033  -42.3263 N.am      9 UNK        -0.4200 
     55 CA         20.9422  -34.7848  -42.1344 C.3       9 UNK         0.0839 
     56 C          21.3307  -35.8232  -41.0393 C.2       9 UNK         0.5513 
     57 N          22.3627  -35.5994  -40.2325 N.am      9 UNK        -0.7519 
     58 O          20.6876  -36.8642  -40.9315 O.2       9 UNK        -0.4960 
     59 C59        19.5047  -34.2271  -41.9445 C.3       10 UNK        -0.0876 
     60 S60        19.2542  -33.1874  -40.4555 S.3       10 UNK        -0.2414 
     61 C61        19.7989  -31.5179  -40.9504 C.3       10 UNK         0.0169 
     62 H62        14.7461  -21.2476  -43.8331 H         1 UNK         0.0903 
     63 H63        15.5965  -22.1714  -42.5934 H         1 UNK         0.0903 
     64 H64        16.4733  -20.9921  -43.5710 H         1 UNK         0.0903 
     65 H65        16.0019  -24.2883  -43.2359 H         1 UNK         0.3096 
     66 H66        15.8970  -25.0633  -46.0220 H         1 UNK         0.1121 
     67 H67        14.7714  -26.4911  -44.4833 H         1 UNK         0.0849 
     68 H68        16.1084  -27.3776  -45.1356 H         1 UNK         0.0849 
     69 H69        15.5928  -28.8281  -41.5936 H         1 UNK         0.0865 
     70 H70        15.1311  -28.9069  -43.2715 H         1 UNK         0.0865 
     71 H71        17.5579  -29.9677  -40.8174 H         1 UNK         0.1346 
     72 H72        20.3060  -31.6887  -43.6230 H         1 UNK         0.1412 
     73 H73        17.0105  -29.3599  -45.0315 H         1 UNK         0.1426 
     74 H74        18.3049  -31.1199  -46.4996 H         1 UNK         0.0716 
     75 H75        19.9226  -31.5223  -45.9817 H         1 UNK         0.0716 
     76 H76        22.0786  -28.8321  -46.7595 H         1 UNK         0.0695 
     77 H77        21.7416  -29.9979  -45.5326 H         1 UNK         0.0695 
     78 H78        22.6499  -27.6094  -44.9494 H         1 UNK         0.0983 
     79 H79        20.0096  -26.8004  -45.7637 H         1 UNK         0.3095 
     80 H80        20.4911  -23.4376  -44.5346 H         1 UNK         0.0454 
     81 H81        21.5137  -23.6250  -46.7680 H         1 UNK         0.0851 
     82 H82        19.8735  -23.0113  -46.8937 H         1 UNK         0.0851 
     83 H83        20.2278  -24.6851  -47.3165 H         1 UNK         0.0851 
     84 H84        18.3880  -23.8893  -44.1725 H         1 UNK         0.2976 
     85 H85        20.1017  -26.9672  -43.0007 H         1 UNK         0.3116 
     86 H86        20.6289  -28.7903  -40.8291 H         1 UNK         0.0646 
     87 H87        19.4798  -25.9469  -40.8686 H         1 UNK         0.0847 
     88 H88        18.5608  -27.4525  -40.8669 H         1 UNK         0.0847 
     89 H89        19.5059  -27.0026  -39.4623 H         1 UNK         0.0847 
     90 H90        22.3805  -26.0323  -42.1502 H         1 UNK         0.3040 
     91 H91        23.9942  -25.4033  -39.8638 H         1 UNK         0.1015 
     92 H92        25.4571  -24.3042  -41.5504 H         1 UNK         0.0786 
     93 H93        23.7736  -23.8829  -41.8288 H         1 UNK         0.0786 
     94 H94        24.5688  -25.0714  -42.8590 H         1 UNK         0.0786 
     95 H95        25.3949  -26.6973  -38.9112 H         1 UNK         0.3172 
     96 H96        26.8033  -28.2819  -38.3536 H         1 UNK         0.0595 
     97 H97        27.5582  -28.6920  -41.2918 H         1 UNK         0.0839 
     98 H98        28.4791  -29.1896  -39.8847 H         1 UNK         0.0839 
     99 H99        28.2778  -27.4811  -40.2299 H         1 UNK         0.0839 
    100 H100       23.9598  -28.8572  -39.5093 H         1 UNK         0.2998 
    101 H101       22.4978  -30.4976  -39.6700 H         1 UNK         0.0822 
    102 H102       22.6383  -32.2242  -37.8820 H         1 UNK         0.0787 
    103 H103       23.0773  -30.6394  -37.2657 H         1 UNK         0.0787 
    104 H104       24.3307  -31.8312  -37.6093 H         1 UNK         0.0787 
    105 H105       23.4686  -30.7300  -41.9831 H         1 UNK         0.3055 
    106 H106       25.0534  -32.9897  -42.6410 H         1 UNK         0.1106 
    107 H107       24.7401  -30.9675  -44.1019 H         1 UNK         0.0828 
    108 H108       24.4001  -32.4592  -44.9671 H         1 UNK         0.0828 
    109 H109       23.0731  -31.4579  -44.4016 H         1 UNK         0.0828 
    110 H110       21.7186  -32.8471  -41.8338 H         1 UNK         0.2931 
    111 H111       20.9261  -35.3529  -43.0666 H         1 UNK         0.0412 
    112 H112       22.5975  -36.2892  -39.5367 H         1 UNK         0.3472 
    113 H113       22.9076  -34.7458  -40.2941 H         1 UNK         0.3472 
    114 H114       18.7994  -35.0577  -41.8795 H         1 UNK         0.0970 
    115 H115       19.1933  -33.6835  -42.8342 H         1 UNK         0.0970 
    116 H116       19.7146  -30.8705  -40.0764 H         1 UNK         0.0612 
    117 H117       20.8562  -31.5228  -41.2059 H         1 UNK         0.0612 
@<TRIPOS>BOND
     1    1    2 1    
     2    1   62 1    
     3    1   63 1    
     4    1   64 1    
     5    2    3 2    
     6    2    4 am   BACKBONE|DICT|INTERRES
     7    4    5 1    
     8    4   65 1    
     9    5    6 1    
    10    5   25 1    
    11    5   66 1    
    12    6    7 1    
    13    6   67 1    
    14    6   68 1    
    15    7    8 1    
    16    8    9 1    
    17    8   69 1    
    18    8   70 1    
    19    9   10 ar   
    20    9   14 ar   
    21   10   11 ar   
    22   10   71 1    
    23   11   12 ar   
    24   11   61 1    
    25   12   13 ar   
    26   12   72 1    
    27   13   14 ar   
    28   13   15 1    
    29   14   73 1    
    30   15   16 1    
    31   15   74 1    
    32   15   75 1    
    33   16   17 1    
    34   17   18 1    
    35   17   76 1    
    36   17   77 1    
    37   18   19 1    
    38   18   27 1    
    39   18   78 1    
    40   19   20 am   BACKBONE|DICT|INTERRES
    41   19   79 1    
    42   20   21 2    
    43   20   22 1    
    44   22   23 1    
    45   22   24 1    
    46   22   80 1    
    47   23   81 1    
    48   23   82 1    
    49   23   83 1    
    50   24   25 am   BACKBONE|DICT|INTERRES
    51   24   84 1    
    52   25   26 2    
    53   27   28 2    
    54   27   29 am   BACKBONE|DICT|INTERRES
    55   29   30 1    
    56   29   85 1    
    57   30   31 1    
    58   30   32 1    
    59   30   86 1    
    60   31   87 1    
    61   31   88 1    
    62   31   89 1    
    63   32   33 2    
    64   32   34 am   BACKBONE|DICT|INTERRES
    65   34   35 1    
    66   34   90 1    
    67   35   36 1    
    68   35   37 1    
    69   35   91 1    
    70   36   92 1    
    71   36   93 1    
    72   36   94 1    
    73   37   38 2    
    74   37   39 am   BACKBONE|DICT|INTERRES
    75   39   40 1    
    76   39   95 1    
    77   40   41 1    
    78   40   42 1    
    79   40   96 1    
    80   41   97 1    
    81   41   98 1    
    82   41   99 1    
    83   42   43 2    
    84   42   44 am   BACKBONE|DICT|INTERRES
    85   44   45 1    
    86   44  100 1    
    87   45   46 1    
    88   45   47 1    
    89   45  101 1    
    90   46  102 1    
    91   46  103 1    
    92   46  104 1    
    93   47   48 2    
    94   47   49 am   BACKBONE|DICT|INTERRES
    95   49   50 1    
    96   49  105 1    
    97   50   51 1    
    98   50   52 1    
    99   50  106 1    
   100   51  107 1    
   101   51  108 1    
   102   51  109 1    
   103   52   53 2    
   104   52   54 am   BACKBONE|DICT|INTERRES
   105   54   55 1    
   106   54  110 1    
   107   55   56 1    
   108   55   59 1    
   109   55  111 1    
   110   56   57 am   BACKBONE|DICT|INTERRES
   111   56   58 2    
   112   57  112 1    
   113   57  113 1    
   114   59   60 1    
   115   59  114 1    
   116   59  115 1    
   117   60   61 1    
   118   61  116 1    
   119   61  117 1    
@<TRIPOS>SUBSTRUCTURE
     1 UNK         1 GROUP             0       ****    0 ROOT    
