@<TRIPOS>MOLECULE
3R8
117   119    1
SMALL
USER_CHARGES


@<TRIPOS>ATOM
      1 CA         18.4474  -25.1809  -49.6156 C.3       0 UNK        -0.2013 
      2 C          19.2499  -26.2082  -48.8317 C.2       0 UNK         0.4866 
      3 O          20.4742  -26.2513  -48.9525 O.2       0 UNK        -0.5176 
      4 N          18.5701  -27.0370  -48.0287 N.am      1 UNK        -0.4884 
      5 CA         19.1739  -28.0746  -47.1814 C.3       1 UNK         0.0853 
      6 C6         18.1482  -29.1590  -46.7646 C.3       10 UNK        -0.0849 
      7 S7         16.6001  -28.4866  -46.0664 S.3       10 UNK        -0.2776 
      8 C8         15.8738  -29.9832  -45.3312 C.3       10 UNK         0.0316 
      9 C9         16.3206  -30.1668  -43.8893 C.ar      10 UNK        -0.0863 
     10 C10        17.3523  -31.0524  -43.5636 C.ar      10 UNK        -0.1009 
     11 C11        17.7474  -31.2308  -42.2292 C.ar      10 UNK        -0.0712 
     12 C12        17.0781  -30.5227  -41.2250 C.ar      10 UNK        -0.0894 
     13 C13        16.0441  -29.6361  -41.5394 C.ar      10 UNK        -0.0745 
     14 C14        15.6738  -29.4601  -42.8738 C.ar      10 UNK        -0.0972 
     15 C15        15.3073  -28.8823  -40.4408 C.3       10 UNK         0.0209 
     16 S16        16.3697  -27.6804  -39.5811 S.3       10 UNK        -0.2568 
     17 C17        16.9440  -26.6090  -40.9458 C.3       10 UNK        -0.0983 
     18 CA         18.4486  -26.8154  -41.2554 C.3       3 UNK         0.0876 
     19 N          18.8193  -26.2263  -42.5461 N.am      3 UNK        -0.4424 
     20 C          20.0476  -26.2403  -43.0829 C.2       2 UNK         0.4918 
     21 O          21.0199  -26.7937  -42.5636 O.2       2 UNK        -0.4875 
     22 CA         20.1883  -25.5192  -44.4367 C.3       2 UNK         0.0481 
     23 CB         21.6483  -25.1471  -44.7690 C.3       2 UNK        -0.1831 
     24 N          19.5877  -26.2843  -45.5348 N.am      2 UNK        -0.4498 
     25 C          19.9349  -27.5096  -45.9625 C.2       1 UNK         0.5027 
     26 O          20.8298  -28.1920  -45.4620 O.2       1 UNK        -0.4969 
     27 C          19.3326  -26.2746  -40.1091 C.2       3 UNK         0.5005 
     28 O          19.4332  -25.0565  -39.9419 O.2       3 UNK        -0.5279 
     29 N          19.9538  -27.1977  -39.3606 N.am      4 UNK        -0.4463 
     30 CA         20.8239  -26.9773  -38.1983 C.3       4 UNK         0.0283 
     31 CB         20.0522  -26.2851  -37.0544 C.3       4 UNK        -0.1875 
     32 C          22.1644  -26.2742  -38.4983 C.2       4 UNK         0.4949 
     33 O          22.8917  -25.9660  -37.5530 O.2       4 UNK        -0.5039 
     34 N          22.5054  -26.0590  -39.7785 N.am      5 UNK        -0.4663 
     35 CA         23.8020  -25.5073  -40.1917 C.3       5 UNK         0.0242 
     36 CB         23.6966  -24.9583  -41.6219 C.3       5 UNK        -0.1982 
     37 C          24.9343  -26.5442  -40.0948 C.2       5 UNK         0.5017 
     38 O          26.0846  -26.1685  -39.8662 O.2       5 UNK        -0.5012 
     39 N          24.5820  -27.8236  -40.2555 N.am      6 UNK        -0.4439 
     40 CA         25.4401  -28.9928  -40.1231 C.3       6 UNK         0.0297 
     41 CB         26.3073  -29.1641  -41.3854 C.3       6 UNK        -0.2006 
     42 C          24.5322  -30.2098  -39.9197 C.2       6 UNK         0.4892 
     43 O          23.3578  -30.1623  -40.2977 O.2       6 UNK        -0.5089 
     44 N          25.0980  -31.2872  -39.3595 N.am      7 UNK        -0.4243 
     45 CA         24.4348  -32.5913  -39.2439 C.3       7 UNK         0.0196 
     46 CB         25.2310  -33.4941  -38.2880 C.3       7 UNK        -0.2007 
     47 C          24.2579  -33.2701  -40.6133 C.2       7 UNK         0.5020 
     48 O          23.2387  -33.9185  -40.8494 O.2       7 UNK        -0.5147 
     49 N          25.2343  -33.0684  -41.5082 N.am      8 UNK        -0.4734 
     50 CA         25.1893  -33.4679  -42.9142 C.3       8 UNK         0.0238 
     51 CB         26.6263  -33.7285  -43.4047 C.3       8 UNK        -0.1912 
     52 C          24.4638  -32.3918  -43.7428 C.2       8 UNK         0.5038 
     53 O          25.0860  -31.7287  -44.5752 O.2       8 UNK        -0.5046 
     54 N          23.1686  -32.2119  -43.4624 N.am      9 UNK        -0.4200 
     55 CA         22.2621  -31.2975  -44.1692 C.3       9 UNK         0.0839 
     56 C          22.0376  -31.6785  -45.6616 C.2       9 UNK         0.5513 
     57 N          21.6209  -30.7254  -46.4812 N.am      9 UNK        -0.7519 
     58 O          22.2131  -32.8225  -46.0784 O.2       9 UNK        -0.4960 
     59 C59        20.9284  -31.1203  -43.3954 C.3       10 UNK        -0.0876 
     60 S60        20.0228  -32.6852  -43.1298 S.3       10 UNK        -0.2414 
     61 C61        18.8527  -32.2054  -41.8145 C.3       10 UNK         0.0169 
     62 H62        18.5875  -25.3329  -50.6855 H         1 UNK         0.0903 
     63 H63        17.3809  -25.2458  -49.4009 H         1 UNK         0.0903 
     64 H64        18.7825  -24.1742  -49.3677 H         1 UNK         0.0903 
     65 H65        17.5629  -26.9675  -47.9662 H         1 UNK         0.3096 
     66 H66        19.9326  -28.5750  -47.7878 H         1 UNK         0.1121 
     67 H67        18.5935  -29.8629  -46.0582 H         1 UNK         0.0849 
     68 H68        17.8823  -29.7540  -47.6397 H         1 UNK         0.0849 
     69 H69        14.7866  -29.8976  -45.3654 H         1 UNK         0.0865 
     70 H70        16.1237  -30.8590  -45.9325 H         1 UNK         0.0865 
     71 H71        17.8355  -31.6063  -44.3555 H         1 UNK         0.1346 
     72 H72        17.3584  -30.6629  -40.1896 H         1 UNK         0.1412 
     73 H73        14.8737  -28.7772  -43.1262 H         1 UNK         0.1426 
     74 H74        14.9236  -29.5979  -39.7123 H         1 UNK         0.0716 
     75 H75        14.4374  -28.3595  -40.8417 H         1 UNK         0.0716 
     76 H76        16.7365  -25.5689  -40.6865 H         1 UNK         0.0695 
     77 H77        16.3441  -26.8152  -41.8331 H         1 UNK         0.0695 
     78 H78        18.6282  -27.8878  -41.3605 H         1 UNK         0.0983 
     79 H79        18.0842  -25.7439  -43.0410 H         1 UNK         0.3095 
     80 H80        19.6258  -24.5870  -44.3658 H         1 UNK         0.0454 
     81 H81        22.2991  -26.0217  -44.7994 H         1 UNK         0.0851 
     82 H82        22.0526  -24.4659  -44.0209 H         1 UNK         0.0851 
     83 H83        21.7198  -24.6450  -45.7336 H         1 UNK         0.0851 
     84 H84        18.8260  -25.8329  -46.0214 H         1 UNK         0.2976 
     85 H85        19.8166  -28.1688  -39.6059 H         1 UNK         0.3116 
     86 H86        21.0937  -27.9744  -37.8470 H         1 UNK         0.0646 
     87 H87        19.8087  -25.2503  -37.2967 H         1 UNK         0.0847 
     88 H88        20.6406  -26.2706  -36.1361 H         1 UNK         0.0847 
     89 H89        19.1209  -26.8055  -36.8308 H         1 UNK         0.0847 
     90 H90        21.8612  -26.3245  -40.5146 H         1 UNK         0.3040 
     91 H91        24.0554  -24.6774  -39.5279 H         1 UNK         0.1015 
     92 H92        23.4966  -25.7512  -42.3435 H         1 UNK         0.0786 
     93 H93        24.6266  -24.4736  -41.9222 H         1 UNK         0.0786 
     94 H94        22.9022  -24.2164  -41.7032 H         1 UNK         0.0786 
     95 H95        23.6077  -28.0522  -40.4161 H         1 UNK         0.3172 
     96 H96        26.0761  -28.8727  -39.2437 H         1 UNK         0.0595 
     97 H97        26.9624  -30.0316  -41.2998 H         1 UNK         0.0839 
     98 H98        26.9461  -28.2968  -41.5528 H         1 UNK         0.0839 
     99 H99        25.6949  -29.3046  -42.2776 H         1 UNK         0.0839 
    100 H100       26.0601  -31.2343  -39.0556 H         1 UNK         0.2998 
    101 H101       23.4402  -32.4347  -38.8199 H         1 UNK         0.0822 
    102 H102       24.7437  -34.4635  -38.1729 H         1 UNK         0.0787 
    103 H103       26.2426  -33.6794  -38.6516 H         1 UNK         0.0787 
    104 H104       25.3062  -33.0513  -37.2946 H         1 UNK         0.0787 
    105 H105       26.0198  -32.4990  -41.2305 H         1 UNK         0.3055 
    106 H106       24.6260  -34.3988  -43.0161 H         1 UNK         0.1106 
    107 H107       26.6302  -34.0392  -44.4504 H         1 UNK         0.0828 
    108 H108       27.2510  -32.8377  -43.3269 H         1 UNK         0.0828 
    109 H109       27.1027  -34.5233  -42.8306 H         1 UNK         0.0828 
    110 H110       22.7437  -32.7946  -42.7523 H         1 UNK         0.2931 
    111 H111       22.7578  -30.3242  -44.1720 H         1 UNK         0.0412 
    112 H112       21.4573  -29.7851  -46.1299 H         1 UNK         0.3472 
    113 H113       21.4711  -30.9430  -47.4532 H         1 UNK         0.3472 
    114 H114       20.2745  -30.4131  -43.9089 H         1 UNK         0.0970 
    115 H115       21.1381  -30.6696  -42.4236 H         1 UNK         0.0970 
    116 H116       19.4234  -31.7876  -40.9836 H         1 UNK         0.0612 
    117 H117       18.3796  -33.1127  -41.4371 H         1 UNK         0.0612 
@<TRIPOS>BOND
     1    1    2 1    
     2    1   62 1    
     3    1   63 1    
     4    1   64 1    
     5    2    3 2    
     6    2    4 am   BACKBONE|DICT|INTERRES
     7    4    5 1    
     8    4   65 1    
     9    5    6 1    
    10    5   25 1    
    11    5   66 1    
    12    6    7 1    
    13    6   67 1    
    14    6   68 1    
    15    7    8 1    
    16    8    9 1    
    17    8   69 1    
    18    8   70 1    
    19    9   10 ar   
    20    9   14 ar   
    21   10   11 ar   
    22   10   71 1    
    23   11   12 ar   
    24   11   61 1    
    25   12   13 ar   
    26   12   72 1    
    27   13   14 ar   
    28   13   15 1    
    29   14   73 1    
    30   15   16 1    
    31   15   74 1    
    32   15   75 1    
    33   16   17 1    
    34   17   18 1    
    35   17   76 1    
    36   17   77 1    
    37   18   19 1    
    38   18   27 1    
    39   18   78 1    
    40   19   20 am   BACKBONE|DICT|INTERRES
    41   19   79 1    
    42   20   21 2    
    43   20   22 1    
    44   22   23 1    
    45   22   24 1    
    46   22   80 1    
    47   23   81 1    
    48   23   82 1    
    49   23   83 1    
    50   24   25 am   BACKBONE|DICT|INTERRES
    51   24   84 1    
    52   25   26 2    
    53   27   28 2    
    54   27   29 am   BACKBONE|DICT|INTERRES
    55   29   30 1    
    56   29   85 1    
    57   30   31 1    
    58   30   32 1    
    59   30   86 1    
    60   31   87 1    
    61   31   88 1    
    62   31   89 1    
    63   32   33 2    
    64   32   34 am   BACKBONE|DICT|INTERRES
    65   34   35 1    
    66   34   90 1    
    67   35   36 1    
    68   35   37 1    
    69   35   91 1    
    70   36   92 1    
    71   36   93 1    
    72   36   94 1    
    73   37   38 2    
    74   37   39 am   BACKBONE|DICT|INTERRES
    75   39   40 1    
    76   39   95 1    
    77   40   41 1    
    78   40   42 1    
    79   40   96 1    
    80   41   97 1    
    81   41   98 1    
    82   41   99 1    
    83   42   43 2    
    84   42   44 am   BACKBONE|DICT|INTERRES
    85   44   45 1    
    86   44  100 1    
    87   45   46 1    
    88   45   47 1    
    89   45  101 1    
    90   46  102 1    
    91   46  103 1    
    92   46  104 1    
    93   47   48 2    
    94   47   49 am   BACKBONE|DICT|INTERRES
    95   49   50 1    
    96   49  105 1    
    97   50   51 1    
    98   50   52 1    
    99   50  106 1    
   100   51  107 1    
   101   51  108 1    
   102   51  109 1    
   103   52   53 2    
   104   52   54 am   BACKBONE|DICT|INTERRES
   105   54   55 1    
   106   54  110 1    
   107   55   56 1    
   108   55   59 1    
   109   55  111 1    
   110   56   57 am   BACKBONE|DICT|INTERRES
   111   56   58 2    
   112   57  112 1    
   113   57  113 1    
   114   59   60 1    
   115   59  114 1    
   116   59  115 1    
   117   60   61 1    
   118   61  116 1    
   119   61  117 1    
@<TRIPOS>SUBSTRUCTURE
     1 UNK         1 GROUP             0       ****    0 ROOT    
