@<TRIPOS>MOLECULE
3R8
117   119    1
SMALL
USER_CHARGES


@<TRIPOS>ATOM
      1 CA         13.0251  -23.7908  -48.0686 C.3       0 UNK        -0.2013 
      2 C          14.3576  -24.5253  -48.0766 C.2       0 UNK         0.4866 
      3 O          15.0296  -24.5638  -49.1081 O.2       0 UNK        -0.5176 
      4 N          14.7405  -25.1164  -46.9384 N.am      1 UNK        -0.4884 
      5 CA         16.0106  -25.8251  -46.7509 C.3       1 UNK         0.0853 
      6 C6         16.0290  -26.6342  -45.4322 C.3       10 UNK        -0.0849 
      7 S7         14.8098  -27.9841  -45.3871 S.3       10 UNK        -0.2776 
      8 C8         14.5386  -28.1311  -43.5908 C.3       10 UNK         0.0316 
      9 C9         15.8269  -28.4294  -42.8314 C.ar      10 UNK        -0.0863 
     10 C10        16.3628  -29.7208  -42.8360 C.ar      10 UNK        -0.1009 
     11 C11        17.5226  -30.0171  -42.1117 C.ar      10 UNK        -0.0712 
     12 C12        18.1360  -29.0020  -41.3685 C.ar      10 UNK        -0.0894 
     13 C13        17.6297  -27.6990  -41.3767 C.ar      10 UNK        -0.0745 
     14 C14        16.4712  -27.4202  -42.1073 C.ar      10 UNK        -0.0972 
     15 C15        18.3097  -26.6047  -40.5616 C.3       10 UNK         0.0209 
     16 S16        20.0838  -26.4316  -40.9471 S.3       10 UNK        -0.2568 
     17 C17        20.0594  -25.6371  -42.5906 C.3       10 UNK        -0.0983 
     18 CA         20.2815  -26.6252  -43.7696 C.3       3 UNK         0.0876 
     19 N          19.8558  -26.0819  -45.0658 N.am      3 UNK        -0.4424 
     20 C          20.2110  -24.9217  -45.6442 C.2       2 UNK         0.4918 
     21 O          20.9249  -24.0651  -45.1221 O.2       2 UNK        -0.4875 
     22 CA         19.6507  -24.6648  -47.0580 C.3       2 UNK         0.0481 
     23 CB         20.6390  -25.1613  -48.1255 C.3       2 UNK        -0.1831 
     24 N          18.3481  -25.3075  -47.2594 N.am      2 UNK        -0.4498 
     25 C          17.2027  -24.8493  -46.7352 C.2       1 UNK         0.5027 
     26 O          17.0908  -23.7542  -46.1773 O.2       1 UNK        -0.4969 
     27 C          21.7214  -27.1875  -43.8350 C.2       3 UNK         0.5005 
     28 O          22.5537  -26.7109  -44.6110 O.2       3 UNK        -0.5279 
     29 N          21.9862  -28.2126  -43.0177 N.am      4 UNK        -0.4463 
     30 CA         23.2729  -28.8988  -42.9121 C.3       4 UNK         0.0283 
     31 CB         23.3564  -30.0293  -43.9579 C.3       4 UNK        -0.1875 
     32 C          23.4757  -29.4011  -41.4771 C.2       4 UNK         0.4949 
     33 O          23.8883  -30.5434  -41.2811 O.2       4 UNK        -0.5039 
     34 N          23.1539  -28.5584  -40.4842 N.am      5 UNK        -0.4663 
     35 CA         23.1973  -28.8859  -39.0495 C.3       5 UNK         0.0242 
     36 CB         22.6085  -27.7159  -38.2457 C.3       5 UNK        -0.1982 
     37 C          24.5919  -29.2613  -38.5139 C.2       5 UNK         0.5017 
     38 O          24.6841  -29.9779  -37.5175 O.2       5 UNK        -0.5012 
     39 N          25.6446  -28.7874  -39.1915 N.am      6 UNK        -0.4439 
     40 CA         27.0419  -29.1295  -38.9206 C.3       6 UNK         0.0297 
     41 CB         27.9314  -27.9700  -39.4022 C.3       6 UNK        -0.2006 
     42 C          27.4855  -30.4566  -39.5709 C.2       6 UNK         0.4892 
     43 O          28.6195  -30.8761  -39.3336 O.2       6 UNK        -0.5089 
     44 N          26.6271  -31.0771  -40.3921 N.am      7 UNK        -0.4243 
     45 CA         26.9251  -32.2765  -41.1676 C.3       7 UNK         0.0196 
     46 CB         27.4033  -31.8660  -42.5777 C.3       7 UNK        -0.2007 
     47 C          25.7029  -33.2067  -41.1526 C.2       7 UNK         0.5020 
     48 O          25.3798  -33.7526  -40.0973 O.2       7 UNK        -0.5147 
     49 N          25.0579  -33.3875  -42.3136 N.am      8 UNK        -0.4734 
     50 CA         23.9846  -34.3548  -42.5728 C.3       8 UNK         0.0238 
     51 CB         23.5744  -34.2606  -44.0518 C.3       8 UNK        -0.1912 
     52 C          22.7418  -34.2426  -41.6716 C.2       8 UNK         0.5038 
     53 O          22.1060  -35.2669  -41.4169 O.2       8 UNK        -0.5046 
     54 N          22.4190  -33.0285  -41.2113 N.am      9 UNK        -0.4200 
     55 CA         21.3080  -32.7598  -40.2837 C.3       9 UNK         0.0839 
     56 C          21.7538  -32.7243  -38.7926 C.2       9 UNK         0.5513 
     57 N          23.0124  -32.9819  -38.4571 N.am      9 UNK        -0.7519 
     58 O          20.9349  -32.4640  -37.9152 O.2       9 UNK        -0.4960 
     59 C59        20.5147  -31.4834  -40.6722 C.3       10 UNK        -0.0876 
     60 S60        19.8787  -31.5219  -42.3856 S.3       10 UNK        -0.2414 
     61 C61        18.0743  -31.4417  -42.1213 C.3       10 UNK         0.0169 
     62 H62        12.3565  -24.2179  -48.8157 H         1 UNK         0.0903 
     63 H63        12.5318  -23.8510  -47.0986 H         1 UNK         0.0903 
     64 H64        13.1758  -22.7384  -48.3075 H         1 UNK         0.0903 
     65 H65        14.1542  -25.0482  -46.1189 H         1 UNK         0.3096 
     66 H66        16.1369  -26.5145  -47.5891 H         1 UNK         0.1121 
     67 H67        17.0065  -27.0907  -45.2649 H         1 UNK         0.0849 
     68 H68        15.8577  -25.9671  -44.5850 H         1 UNK         0.0849 
     69 H69        14.0762  -27.2148  -43.2202 H         1 UNK         0.0865 
     70 H70        13.8161  -28.9276  -43.4066 H         1 UNK         0.0865 
     71 H71        15.8668  -30.4981  -43.4016 H         1 UNK         0.1346 
     72 H72        19.0176  -29.2146  -40.7834 H         1 UNK         0.1412 
     73 H73        16.0614  -26.4193  -42.1003 H         1 UNK         0.1426 
     74 H74        18.2081  -26.8494  -39.5035 H         1 UNK         0.0716 
     75 H75        17.8157  -25.6419  -40.7009 H         1 UNK         0.0716 
     76 H76        19.1029  -25.1260  -42.7106 H         1 UNK         0.0695 
     77 H77        20.8176  -24.8523  -42.5962 H         1 UNK         0.0695 
     78 H78        19.6199  -27.4787  -43.6093 H         1 UNK         0.0983 
     79 H79        19.2986  -26.7126  -45.6207 H         1 UNK         0.3095 
     80 H80        19.5336  -23.5861  -47.1831 H         1 UNK         0.0454 
     81 H81        20.8046  -26.2373  -48.0587 H         1 UNK         0.0851 
     82 H82        20.2839  -24.9365  -49.1313 H         1 UNK         0.0851 
     83 H83        21.6097  -24.6767  -48.0105 H         1 UNK         0.0851 
     84 H84        18.3502  -26.1989  -47.7355 H         1 UNK         0.2976 
     85 H85        21.2601  -28.5393  -42.3937 H         1 UNK         0.3116 
     86 H86        24.0811  -28.1902  -43.1043 H         1 UNK         0.0646 
     87 H87        24.3212  -30.5353  -43.9146 H         1 UNK         0.0847 
     88 H88        23.2420  -29.6433  -44.9707 H         1 UNK         0.0847 
     89 H89        22.5838  -30.7818  -43.7971 H         1 UNK         0.0847 
     90 H90        22.8202  -27.6350  -40.7257 H         1 UNK         0.3040 
     91 H91        22.5628  -29.7586  -38.8865 H         1 UNK         0.1015 
     92 H92        21.5671  -27.5361  -38.5121 H         1 UNK         0.0786 
     93 H93        23.1638  -26.7918  -38.4105 H         1 UNK         0.0786 
     94 H94        22.6321  -27.9246  -37.1750 H         1 UNK         0.0786 
     95 H95        25.4645  -28.1993  -39.9922 H         1 UNK         0.3172 
     96 H96        27.1791  -29.2350  -37.8423 H         1 UNK         0.0595 
     97 H97        27.6613  -27.0327  -38.9155 H         1 UNK         0.0839 
     98 H98        27.8572  -27.8239  -40.4806 H         1 UNK         0.0839 
     99 H99        28.9809  -28.1593  -39.1718 H         1 UNK         0.0839 
    100 H100       25.6833  -30.7170  -40.4994 H         1 UNK         0.2998 
    101 H101       27.7296  -32.8382  -40.6878 H         1 UNK         0.0822 
    102 H102       28.3276  -31.2907  -42.5204 H         1 UNK         0.0787 
    103 H103       27.6135  -32.7392  -43.1971 H         1 UNK         0.0787 
    104 H104       26.6685  -31.2493  -43.0965 H         1 UNK         0.0787 
    105 H105       25.3905  -32.8692  -43.1132 H         1 UNK         0.3055 
    106 H106       24.4055  -35.3477  -42.3997 H         1 UNK         0.1106 
    107 H107       23.1798  -33.2741  -44.2982 H         1 UNK         0.0828 
    108 H108       24.4166  -34.4627  -44.7138 H         1 UNK         0.0828 
    109 H109       22.7979  -34.9893  -44.2896 H         1 UNK         0.0828 
    110 H110       23.0258  -32.2402  -41.4178 H         1 UNK         0.2931 
    111 H111       20.5970  -33.5857  -40.3432 H         1 UNK         0.0412 
    112 H112       23.2781  -32.9427  -37.4863 H         1 UNK         0.3472 
    113 H113       23.7082  -33.2193  -39.1564 H         1 UNK         0.3472 
    114 H114       21.1329  -30.5968  -40.5594 H         1 UNK         0.0970 
    115 H115       19.6800  -31.3444  -39.9832 H         1 UNK         0.0970 
    116 H116       17.6057  -32.0144  -42.9231 H         1 UNK         0.0612 
    117 H117       17.8021  -31.9462  -41.1936 H         1 UNK         0.0612 
@<TRIPOS>BOND
     1    1    2 1    
     2    1   62 1    
     3    1   63 1    
     4    1   64 1    
     5    2    3 2    
     6    2    4 am   BACKBONE|DICT|INTERRES
     7    4    5 1    
     8    4   65 1    
     9    5    6 1    
    10    5   25 1    
    11    5   66 1    
    12    6    7 1    
    13    6   67 1    
    14    6   68 1    
    15    7    8 1    
    16    8    9 1    
    17    8   69 1    
    18    8   70 1    
    19    9   10 ar   
    20    9   14 ar   
    21   10   11 ar   
    22   10   71 1    
    23   11   12 ar   
    24   11   61 1    
    25   12   13 ar   
    26   12   72 1    
    27   13   14 ar   
    28   13   15 1    
    29   14   73 1    
    30   15   16 1    
    31   15   74 1    
    32   15   75 1    
    33   16   17 1    
    34   17   18 1    
    35   17   76 1    
    36   17   77 1    
    37   18   19 1    
    38   18   27 1    
    39   18   78 1    
    40   19   20 am   BACKBONE|DICT|INTERRES
    41   19   79 1    
    42   20   21 2    
    43   20   22 1    
    44   22   23 1    
    45   22   24 1    
    46   22   80 1    
    47   23   81 1    
    48   23   82 1    
    49   23   83 1    
    50   24   25 am   BACKBONE|DICT|INTERRES
    51   24   84 1    
    52   25   26 2    
    53   27   28 2    
    54   27   29 am   BACKBONE|DICT|INTERRES
    55   29   30 1    
    56   29   85 1    
    57   30   31 1    
    58   30   32 1    
    59   30   86 1    
    60   31   87 1    
    61   31   88 1    
    62   31   89 1    
    63   32   33 2    
    64   32   34 am   BACKBONE|DICT|INTERRES
    65   34   35 1    
    66   34   90 1    
    67   35   36 1    
    68   35   37 1    
    69   35   91 1    
    70   36   92 1    
    71   36   93 1    
    72   36   94 1    
    73   37   38 2    
    74   37   39 am   BACKBONE|DICT|INTERRES
    75   39   40 1    
    76   39   95 1    
    77   40   41 1    
    78   40   42 1    
    79   40   96 1    
    80   41   97 1    
    81   41   98 1    
    82   41   99 1    
    83   42   43 2    
    84   42   44 am   BACKBONE|DICT|INTERRES
    85   44   45 1    
    86   44  100 1    
    87   45   46 1    
    88   45   47 1    
    89   45  101 1    
    90   46  102 1    
    91   46  103 1    
    92   46  104 1    
    93   47   48 2    
    94   47   49 am   BACKBONE|DICT|INTERRES
    95   49   50 1    
    96   49  105 1    
    97   50   51 1    
    98   50   52 1    
    99   50  106 1    
   100   51  107 1    
   101   51  108 1    
   102   51  109 1    
   103   52   53 2    
   104   52   54 am   BACKBONE|DICT|INTERRES
   105   54   55 1    
   106   54  110 1    
   107   55   56 1    
   108   55   59 1    
   109   55  111 1    
   110   56   57 am   BACKBONE|DICT|INTERRES
   111   56   58 2    
   112   57  112 1    
   113   57  113 1    
   114   59   60 1    
   115   59  114 1    
   116   59  115 1    
   117   60   61 1    
   118   61  116 1    
   119   61  117 1    
@<TRIPOS>SUBSTRUCTURE
     1 UNK         1 GROUP             0       ****    0 ROOT    
