@<TRIPOS>MOLECULE
3R8
117   119    1
SMALL
USER_CHARGES


@<TRIPOS>ATOM
      1 CA         15.7784  -31.9503  -47.2983 C.3       0 UNK        -0.2013 
      2 C          16.1519  -30.5181  -46.9460 C.2       0 UNK         0.4866 
      3 O          16.1528  -29.6557  -47.8248 O.2       0 UNK        -0.5176 
      4 N          16.4653  -30.2643  -45.6682 N.am      1 UNK        -0.4884 
      5 CA         16.9143  -28.9774  -45.1245 C.3       1 UNK         0.0853 
      6 C6         15.7984  -27.8874  -45.1753 C.3       10 UNK        -0.0849 
      7 S7         16.0489  -26.4862  -44.0239 S.3       10 UNK        -0.2776 
      8 C8         15.2017  -27.0583  -42.5132 C.3       10 UNK         0.0316 
      9 C9         15.8988  -28.2786  -41.9357 C.ar      10 UNK        -0.0863 
     10 C10        15.3364  -29.5495  -42.0889 C.ar      10 UNK        -0.1009 
     11 C11        16.0338  -30.6860  -41.6708 C.ar      10 UNK        -0.0712 
     12 C12        17.2864  -30.5418  -41.0680 C.ar      10 UNK        -0.0894 
     13 C13        17.8556  -29.2759  -40.9075 C.ar      10 UNK        -0.0745 
     14 C14        17.1500  -28.1452  -41.3262 C.ar      10 UNK        -0.0972 
     15 C15        19.2539  -29.1412  -40.3291 C.3       10 UNK         0.0209 
     16 S16        20.4911  -29.0494  -41.6607 S.3       10 UNK        -0.2568 
     17 C17        20.8691  -27.2698  -41.6820 C.3       10 UNK        -0.0983 
     18 CA         21.5263  -26.8275  -43.0135 C.3       3 UNK         0.0876 
     19 N          20.5610  -26.7716  -44.1113 N.am      3 UNK        -0.4424 
     20 C          20.8886  -26.7302  -45.4097 C.2       2 UNK         0.4918 
     21 O          22.0507  -26.7662  -45.8187 O.2       2 UNK        -0.4875 
     22 CA         19.7233  -26.6223  -46.4162 C.3       2 UNK         0.0481 
     23 CB         20.1046  -27.1087  -47.8307 C.3       2 UNK        -0.1831 
     24 N          18.4894  -27.2678  -45.9501 N.am      2 UNK        -0.4498 
     25 C          18.2895  -28.5709  -45.7002 C.2       1 UNK         0.5027 
     26 O          19.1451  -29.4441  -45.8651 O.2       1 UNK        -0.4969 
     27 C          22.2318  -25.4707  -42.8242 C.2       3 UNK         0.5005 
     28 O          21.5845  -24.4224  -42.8904 O.2       3 UNK        -0.5279 
     29 N          23.5319  -25.5310  -42.5230 N.am      4 UNK        -0.4463 
     30 CA         24.3680  -24.4283  -42.0675 C.3       4 UNK         0.0283 
     31 CB         24.9171  -23.6310  -43.2634 C.3       4 UNK        -0.1875 
     32 C          25.4928  -25.0652  -41.2466 C.2       4 UNK         0.4949 
     33 O          26.1073  -26.0198  -41.7265 O.2       4 UNK        -0.5039 
     34 N          25.7178  -24.5585  -40.0270 N.am      5 UNK        -0.4663 
     35 CA         26.6206  -25.1151  -39.0080 C.3       5 UNK         0.0242 
     36 CB         28.0979  -24.9822  -39.4475 C.3       5 UNK        -0.1982 
     37 C          26.2058  -26.5467  -38.5971 C.2       5 UNK         0.5017 
     38 O          25.0069  -26.8170  -38.4880 O.2       5 UNK        -0.5012 
     39 N          27.1792  -27.4399  -38.3726 N.am      6 UNK        -0.4439 
     40 CA         26.9820  -28.8423  -37.9863 C.3       6 UNK         0.0297 
     41 CB         28.2418  -29.3365  -37.2499 C.3       6 UNK        -0.2006 
     42 C          26.6093  -29.7348  -39.1902 C.2       6 UNK         0.4892 
     43 O          27.3050  -30.7111  -39.4778 O.2       6 UNK        -0.5089 
     44 N          25.5277  -29.3668  -39.8828 N.am      7 UNK        -0.4243 
     45 CA         24.9691  -30.0744  -41.0343 C.3       7 UNK         0.0196 
     46 CB         24.3971  -29.0298  -42.0055 C.3       7 UNK        -0.2007 
     47 C          23.8821  -31.0767  -40.6122 C.2       7 UNK         0.5020 
     48 O          23.4746  -31.1089  -39.4484 O.2       7 UNK        -0.5147 
     49 N          23.4167  -31.8607  -41.5890 N.am      8 UNK        -0.4734 
     50 CA         22.2783  -32.7710  -41.4864 C.3       8 UNK         0.0238 
     51 CB         22.7895  -34.2217  -41.5271 C.3       8 UNK        -0.1912 
     52 C          21.3163  -32.4938  -42.6517 C.2       8 UNK         0.5038 
     53 O          21.7260  -31.8883  -43.6458 O.2       8 UNK        -0.5046 
     54 N          20.0666  -32.9495  -42.4944 N.am      9 UNK        -0.4200 
     55 CA         18.9432  -32.7948  -43.4334 C.3       9 UNK         0.0839 
     56 C          19.2774  -33.2767  -44.8743 C.2       9 UNK         0.5513 
     57 N          19.2446  -32.3971  -45.8661 N.am      9 UNK        -0.7519 
     58 O          19.5407  -34.4567  -45.0964 O.2       9 UNK        -0.4960 
     59 C59        17.6882  -33.5233  -42.8711 C.3       10 UNK        -0.0876 
     60 S60        16.1083  -32.8084  -43.4405 S.3       10 UNK        -0.2414 
     61 C61        15.4481  -32.0680  -41.9112 C.3       10 UNK         0.0169 
     62 H62        14.7273  -32.0065  -47.5798 H         1 UNK         0.0903 
     63 H63        16.3770  -32.2966  -48.1404 H         1 UNK         0.0903 
     64 H64        15.9466  -32.6334  -46.4664 H         1 UNK         0.0903 
     65 H65        16.4451  -31.0257  -45.0011 H         1 UNK         0.3096 
     66 H66        17.1369  -29.1898  -44.0813 H         1 UNK         0.1121 
     67 H67        14.8344  -28.3404  -44.9387 H         1 UNK         0.0849 
     68 H68        15.6873  -27.4962  -46.1882 H         1 UNK         0.0849 
     69 H69        15.2029  -26.2549  -41.7751 H         1 UNK         0.0865 
     70 H70        14.1545  -27.2697  -42.7355 H         1 UNK         0.0865 
     71 H71        14.3782  -29.6590  -42.5787 H         1 UNK         0.1346 
     72 H72        17.8361  -31.4165  -40.7521 H         1 UNK         0.1412 
     73 H73        17.5950  -27.1649  -41.2258 H         1 UNK         0.1426 
     74 H74        19.3173  -28.2652  -39.6820 H         1 UNK         0.0716 
     75 H75        19.4848  -30.0009  -39.6982 H         1 UNK         0.0716 
     76 H76        21.5315  -27.0838  -40.8336 H         1 UNK         0.0695 
     77 H77        19.9625  -26.6931  -41.4915 H         1 UNK         0.0695 
     78 H78        22.2830  -27.5638  -43.2910 H         1 UNK         0.0983 
     79 H79        19.5882  -26.7136  -43.8530 H         1 UNK         0.3095 
     80 H80        19.4923  -25.5589  -46.4899 H         1 UNK         0.0454 
     81 H81        19.2663  -27.0189  -48.5213 H         1 UNK         0.0851 
     82 H82        20.9244  -26.5173  -48.2400 H         1 UNK         0.0851 
     83 H83        20.4274  -28.1501  -47.8284 H         1 UNK         0.0851 
     84 H84        17.7225  -26.6411  -45.7379 H         1 UNK         0.2976 
     85 H85        24.0011  -26.4274  -42.4880 H         1 UNK         0.3116 
     86 H86        23.7796  -23.7670  -41.4275 H         1 UNK         0.0646 
     87 H87        24.1116  -23.1862  -43.8479 H         1 UNK         0.0847 
     88 H88        25.5615  -22.8183  -42.9263 H         1 UNK         0.0847 
     89 H89        25.5065  -24.2609  -43.9311 H         1 UNK         0.0847 
     90 H90        25.1363  -23.7919  -39.7160 H         1 UNK         0.3040 
     91 H91        26.4872  -24.5019  -38.1152 H         1 UNK         0.1015 
     92 H92        28.3401  -25.6401  -40.2831 H         1 UNK         0.0786 
     93 H93        28.7799  -25.2163  -38.6293 H         1 UNK         0.0786 
     94 H94        28.3218  -23.9617  -39.7589 H         1 UNK         0.0786 
     95 H95        28.1333  -27.1480  -38.5288 H         1 UNK         0.3172 
     96 H96        26.1495  -28.8967  -37.2815 H         1 UNK         0.0595 
     97 H97        29.1222  -29.3147  -37.8935 H         1 UNK         0.0839 
     98 H98        28.1153  -30.3639  -36.9055 H         1 UNK         0.0839 
     99 H99        28.4529  -28.7277  -36.3705 H         1 UNK         0.0839 
    100 H100       25.0105  -28.5628  -39.5438 H         1 UNK         0.2998 
    101 H101       25.7588  -30.6302  -41.5448 H         1 UNK         0.0822 
    102 H102       23.9104  -29.4941  -42.8642 H         1 UNK         0.0787 
    103 H103       25.1874  -28.3899  -42.3963 H         1 UNK         0.0787 
    104 H104       23.6603  -28.4002  -41.5077 H         1 UNK         0.0787 
    105 H105       23.7372  -31.7047  -42.5362 H         1 UNK         0.3055 
    106 H106       21.7389  -32.5988  -40.5518 H         1 UNK         0.1106 
    107 H107       21.9680  -34.9335  -41.4369 H         1 UNK         0.0828 
    108 H108       23.3097  -34.4400  -42.4607 H         1 UNK         0.0828 
    109 H109       23.4792  -34.4200  -40.7064 H         1 UNK         0.0828 
    110 H110       19.8596  -33.4711  -41.6565 H         1 UNK         0.2931 
    111 H111       18.7351  -31.7229  -43.4668 H         1 UNK         0.0412 
    112 H112       19.4590  -32.7130  -46.7979 H         1 UNK         0.3472 
    113 H113       19.1196  -31.4040  -45.6958 H         1 UNK         0.3472 
    114 H114       17.6927  -33.5064  -41.7814 H         1 UNK         0.0970 
    115 H115       17.6995  -34.5850  -43.1266 H         1 UNK         0.0970 
    116 H116       15.6366  -32.7191  -41.0565 H         1 UNK         0.0612 
    117 H117       14.3629  -32.0004  -42.0020 H         1 UNK         0.0612 
@<TRIPOS>BOND
     1    1    2 1    
     2    1   62 1    
     3    1   63 1    
     4    1   64 1    
     5    2    3 2    
     6    2    4 am   BACKBONE|DICT|INTERRES
     7    4    5 1    
     8    4   65 1    
     9    5    6 1    
    10    5   25 1    
    11    5   66 1    
    12    6    7 1    
    13    6   67 1    
    14    6   68 1    
    15    7    8 1    
    16    8    9 1    
    17    8   69 1    
    18    8   70 1    
    19    9   10 ar   
    20    9   14 ar   
    21   10   11 ar   
    22   10   71 1    
    23   11   12 ar   
    24   11   61 1    
    25   12   13 ar   
    26   12   72 1    
    27   13   14 ar   
    28   13   15 1    
    29   14   73 1    
    30   15   16 1    
    31   15   74 1    
    32   15   75 1    
    33   16   17 1    
    34   17   18 1    
    35   17   76 1    
    36   17   77 1    
    37   18   19 1    
    38   18   27 1    
    39   18   78 1    
    40   19   20 am   BACKBONE|DICT|INTERRES
    41   19   79 1    
    42   20   21 2    
    43   20   22 1    
    44   22   23 1    
    45   22   24 1    
    46   22   80 1    
    47   23   81 1    
    48   23   82 1    
    49   23   83 1    
    50   24   25 am   BACKBONE|DICT|INTERRES
    51   24   84 1    
    52   25   26 2    
    53   27   28 2    
    54   27   29 am   BACKBONE|DICT|INTERRES
    55   29   30 1    
    56   29   85 1    
    57   30   31 1    
    58   30   32 1    
    59   30   86 1    
    60   31   87 1    
    61   31   88 1    
    62   31   89 1    
    63   32   33 2    
    64   32   34 am   BACKBONE|DICT|INTERRES
    65   34   35 1    
    66   34   90 1    
    67   35   36 1    
    68   35   37 1    
    69   35   91 1    
    70   36   92 1    
    71   36   93 1    
    72   36   94 1    
    73   37   38 2    
    74   37   39 am   BACKBONE|DICT|INTERRES
    75   39   40 1    
    76   39   95 1    
    77   40   41 1    
    78   40   42 1    
    79   40   96 1    
    80   41   97 1    
    81   41   98 1    
    82   41   99 1    
    83   42   43 2    
    84   42   44 am   BACKBONE|DICT|INTERRES
    85   44   45 1    
    86   44  100 1    
    87   45   46 1    
    88   45   47 1    
    89   45  101 1    
    90   46  102 1    
    91   46  103 1    
    92   46  104 1    
    93   47   48 2    
    94   47   49 am   BACKBONE|DICT|INTERRES
    95   49   50 1    
    96   49  105 1    
    97   50   51 1    
    98   50   52 1    
    99   50  106 1    
   100   51  107 1    
   101   51  108 1    
   102   51  109 1    
   103   52   53 2    
   104   52   54 am   BACKBONE|DICT|INTERRES
   105   54   55 1    
   106   54  110 1    
   107   55   56 1    
   108   55   59 1    
   109   55  111 1    
   110   56   57 am   BACKBONE|DICT|INTERRES
   111   56   58 2    
   112   57  112 1    
   113   57  113 1    
   114   59   60 1    
   115   59  114 1    
   116   59  115 1    
   117   60   61 1    
   118   61  116 1    
   119   61  117 1    
@<TRIPOS>SUBSTRUCTURE
     1 UNK         1 GROUP             0       ****    0 ROOT    
