@<TRIPOS>MOLECULE
3R8
117   119    1
SMALL
USER_CHARGES


@<TRIPOS>ATOM
      1 CA         15.3193  -21.6170  -44.2823 C.3       0 UNK        -0.2013 
      2 C          15.9079  -22.5650  -45.3160 C.2       0 UNK         0.4866 
      3 O          16.2432  -22.1367  -46.4203 O.2       0 UNK        -0.5176 
      4 N          16.0413  -23.8510  -44.9659 N.am      1 UNK        -0.4884 
      5 CA         16.5867  -24.9095  -45.8280 C.3       1 UNK         0.0853 
      6 C6         16.0210  -26.3032  -45.4550 C.3       10 UNK        -0.0849 
      7 S7         16.2125  -26.7549  -43.6944 S.3       10 UNK        -0.2776 
      8 C8         15.8561  -28.5429  -43.7358 C.3       10 UNK         0.0316 
      9 C9         17.1352  -29.3653  -43.7946 C.ar      10 UNK        -0.0863 
     10 C10        17.6225  -29.9998  -42.6470 C.ar      10 UNK        -0.1009 
     11 C11        18.8191  -30.7233  -42.6905 C.ar      10 UNK        -0.0712 
     12 C12        19.5282  -30.8102  -43.8910 C.ar      10 UNK        -0.0894 
     13 C13        19.0503  -30.1824  -45.0425 C.ar      10 UNK        -0.0745 
     14 C14        17.8433  -29.4815  -44.9930 C.ar      10 UNK        -0.0972 
     15 C15        19.8365  -30.2439  -46.3411 C.3       10 UNK         0.0209 
     16 S16        20.4088  -28.5926  -46.8521 S.3       10 UNK        -0.2568 
     17 C17        21.8885  -28.3286  -45.8141 C.3       10 UNK        -0.0983 
     18 CA         21.7628  -27.2544  -44.6934 C.3       3 UNK         0.0876 
     19 N          20.9773  -26.0751  -45.0898 N.am      3 UNK        -0.4424 
     20 C          21.1795  -24.8317  -44.6362 C.2       2 UNK         0.4918 
     21 O          22.0710  -24.5414  -43.8389 O.2       2 UNK        -0.4875 
     22 CA         20.2315  -23.7185  -45.1166 C.3       2 UNK         0.0481 
     23 CB         20.6895  -23.1523  -46.4748 C.3       2 UNK        -0.1831 
     24 N          18.8002  -24.0587  -45.1240 N.am      2 UNK        -0.4498 
     25 C          18.1308  -24.8962  -45.9315 C.2       1 UNK         0.5027 
     26 O          18.6807  -25.6250  -46.7569 O.2       1 UNK        -0.4969 
     27 C          21.3705  -27.8307  -43.3116 C.2       3 UNK         0.5005 
     28 O          21.9826  -28.8090  -42.8756 O.2       3 UNK        -0.5279 
     29 N          20.4092  -27.1948  -42.6223 N.am      4 UNK        -0.4463 
     30 CA         19.9752  -27.4759  -41.2514 C.3       4 UNK         0.0283 
     31 CB         18.9346  -26.4278  -40.8240 C.3       4 UNK        -0.1875 
     32 C          21.1465  -27.5233  -40.2550 C.2       4 UNK         0.4949 
     33 O          21.7169  -26.4799  -39.9337 O.2       4 UNK        -0.5039 
     34 N          21.4861  -28.7443  -39.8190 N.am      5 UNK        -0.4663 
     35 CA         22.5835  -29.1051  -38.9130 C.3       5 UNK         0.0242 
     36 CB         22.3816  -28.4731  -37.5191 C.3       5 UNK        -0.1982 
     37 C          23.9955  -28.8432  -39.4779 C.2       5 UNK         0.5017 
     38 O          24.9617  -28.8791  -38.7128 O.2       5 UNK        -0.5012 
     39 N          24.1234  -28.6232  -40.7953 N.am      6 UNK        -0.4439 
     40 CA         25.4013  -28.4362  -41.4878 C.3       6 UNK         0.0297 
     41 CB         25.1765  -27.5768  -42.7450 C.3       6 UNK        -0.2006 
     42 C          26.0142  -29.8082  -41.8132 C.2       6 UNK         0.4892 
     43 O          26.0277  -30.2176  -42.9749 O.2       6 UNK        -0.5089 
     44 N          26.4227  -30.5316  -40.7604 N.am      7 UNK        -0.4243 
     45 CA         26.8771  -31.9327  -40.7144 C.3       7 UNK         0.0196 
     46 CB         28.1095  -32.1690  -41.6094 C.3       7 UNK        -0.2007 
     47 C          25.7664  -32.9625  -41.0052 C.2       7 UNK         0.5020 
     48 O          25.7466  -34.0220  -40.3772 O.2       7 UNK        -0.5147 
     49 N          24.8506  -32.6323  -41.9226 N.am      8 UNK        -0.4734 
     50 CA         23.6143  -33.3575  -42.2086 C.3       8 UNK         0.0238 
     51 CB         22.9455  -32.7135  -43.4335 C.3       8 UNK        -0.1912 
     52 C          22.6498  -33.3512  -41.0090 C.2       8 UNK         0.5038 
     53 O          22.6666  -32.4116  -40.2100 O.2       8 UNK        -0.5046 
     54 N          21.8131  -34.3927  -40.9323 N.am      9 UNK        -0.4200 
     55 CA         20.8260  -34.6490  -39.8660 C.3       9 UNK         0.0839 
     56 C          21.4421  -35.0505  -38.4902 C.2       9 UNK         0.5513 
     57 N          22.7408  -35.3070  -38.3867 N.am      9 UNK        -0.7519 
     58 O          20.7230  -35.1666  -37.5009 O.2       9 UNK        -0.4960 
     59 C59        19.7463  -33.5358  -39.7173 C.3       10 UNK        -0.0876 
     60 S60        18.9070  -33.1078  -41.2830 S.3       10 UNK        -0.2414 
     61 C61        19.3812  -31.3607  -41.4312 C.3       10 UNK         0.0169 
     62 H62        15.0723  -22.1291  -43.3525 H         1 UNK         0.0903 
     63 H63        16.0293  -20.8226  -44.0539 H         1 UNK         0.0903 
     64 H64        14.4090  -21.1595  -44.6689 H         1 UNK         0.0903 
     65 H65        15.7488  -24.1579  -44.0475 H         1 UNK         0.3096 
     66 H66        16.2442  -24.7045  -46.8453 H         1 UNK         0.1121 
     67 H67        16.4611  -27.0714  -46.0901 H         1 UNK         0.0849 
     68 H68        14.9535  -26.3235  -45.6801 H         1 UNK         0.0849 
     69 H69        15.2836  -28.8028  -42.8441 H         1 UNK         0.0865 
     70 H70        15.2144  -28.7842  -44.5846 H         1 UNK         0.0865 
     71 H71        17.0827  -29.9139  -41.7138 H         1 UNK         0.1346 
     72 H72        20.4638  -31.3477  -43.9214 H         1 UNK         0.1412 
     73 H73        17.4777  -29.0030  -45.8892 H         1 UNK         0.1426 
     74 H74        19.1920  -30.6480  -47.1229 H         1 UNK         0.0716 
     75 H75        20.6864  -30.9236  -46.2629 H         1 UNK         0.0716 
     76 H76        22.2395  -29.2841  -45.4199 H         1 UNK         0.0695 
     77 H77        22.6745  -28.0108  -46.5006 H         1 UNK         0.0695 
     78 H78        22.7821  -26.8987  -44.5308 H         1 UNK         0.0983 
     79 H79        20.2263  -26.2318  -45.7578 H         1 UNK         0.3095 
     80 H80        20.3208  -22.9085  -44.3909 H         1 UNK         0.0454 
     81 H81        21.7177  -22.7924  -46.4184 H         1 UNK         0.0851 
     82 H82        20.0690  -22.3109  -46.7833 H         1 UNK         0.0851 
     83 H83        20.6548  -23.9022  -47.2655 H         1 UNK         0.0851 
     84 H84        18.2363  -23.5370  -44.4675 H         1 UNK         0.2976 
     85 H85        19.9785  -26.4000  -43.0689 H         1 UNK         0.3116 
     86 H86        19.4829  -28.4463  -41.2535 H         1 UNK         0.0646 
     87 H87        19.3344  -25.4144  -40.8762 H         1 UNK         0.0847 
     88 H88        18.6100  -26.5970  -39.7965 H         1 UNK         0.0847 
     89 H89        18.0458  -26.4718  -41.4508 H         1 UNK         0.0847 
     90 H90        20.9854  -29.5306  -40.2072 H         1 UNK         0.3040 
     91 H91        22.5205  -30.1867  -38.7868 H         1 UNK         0.1015 
     92 H92        22.5111  -27.3908  -37.5412 H         1 UNK         0.0786 
     93 H93        23.1009  -28.8692  -36.8013 H         1 UNK         0.0786 
     94 H94        21.3871  -28.6853  -37.1269 H         1 UNK         0.0786 
     95 H95        23.2931  -28.6743  -41.3809 H         1 UNK         0.3172 
     96 H96        26.0953  -27.8985  -40.8383 H         1 UNK         0.0595 
     97 H97        24.5512  -28.0890  -43.4761 H         1 UNK         0.0839 
     98 H98        26.1249  -27.3511  -43.2339 H         1 UNK         0.0839 
     99 H99        24.7010  -26.6267  -42.5001 H         1 UNK         0.0839 
    100 H100       26.2816  -30.1013  -39.8522 H         1 UNK         0.2998 
    101 H101       27.1877  -32.1014  -39.6821 H         1 UNK         0.0822 
    102 H102       28.5041  -33.1756  -41.4648 H         1 UNK         0.0787 
    103 H103       27.8738  -32.0663  -42.6688 H         1 UNK         0.0787 
    104 H104       28.9112  -31.4693  -41.3736 H         1 UNK         0.0787 
    105 H105       24.9869  -31.7493  -42.4046 H         1 UNK         0.3055 
    106 H106       23.8774  -34.3911  -42.4439 H         1 UNK         0.1106 
    107 H107       23.5921  -32.7602  -44.3097 H         1 UNK         0.0828 
    108 H108       22.0167  -33.2249  -43.6897 H         1 UNK         0.0828 
    109 H109       22.7068  -31.6644  -43.2510 H         1 UNK         0.0828 
    110 H110       21.8689  -35.1111  -41.6396 H         1 UNK         0.2931 
    111 H111       20.3015  -35.5466  -40.1952 H         1 UNK         0.0412 
    112 H112       23.3515  -35.2043  -39.1821 H         1 UNK         0.3472 
    113 H113       23.1197  -35.5773  -37.4926 H         1 UNK         0.3472 
    114 H114       20.1851  -32.6419  -39.2714 H         1 UNK         0.0970 
    115 H115       18.9711  -33.8580  -39.0198 H         1 UNK         0.0970 
    116 H116       20.4688  -31.2788  -41.4368 H         1 UNK         0.0612 
    117 H117       19.0319  -30.8217  -40.5493 H         1 UNK         0.0612 
@<TRIPOS>BOND
     1    1    2 1    
     2    1   62 1    
     3    1   63 1    
     4    1   64 1    
     5    2    3 2    
     6    2    4 am   BACKBONE|DICT|INTERRES
     7    4    5 1    
     8    4   65 1    
     9    5    6 1    
    10    5   25 1    
    11    5   66 1    
    12    6    7 1    
    13    6   67 1    
    14    6   68 1    
    15    7    8 1    
    16    8    9 1    
    17    8   69 1    
    18    8   70 1    
    19    9   10 ar   
    20    9   14 ar   
    21   10   11 ar   
    22   10   71 1    
    23   11   12 ar   
    24   11   61 1    
    25   12   13 ar   
    26   12   72 1    
    27   13   14 ar   
    28   13   15 1    
    29   14   73 1    
    30   15   16 1    
    31   15   74 1    
    32   15   75 1    
    33   16   17 1    
    34   17   18 1    
    35   17   76 1    
    36   17   77 1    
    37   18   19 1    
    38   18   27 1    
    39   18   78 1    
    40   19   20 am   BACKBONE|DICT|INTERRES
    41   19   79 1    
    42   20   21 2    
    43   20   22 1    
    44   22   23 1    
    45   22   24 1    
    46   22   80 1    
    47   23   81 1    
    48   23   82 1    
    49   23   83 1    
    50   24   25 am   BACKBONE|DICT|INTERRES
    51   24   84 1    
    52   25   26 2    
    53   27   28 2    
    54   27   29 am   BACKBONE|DICT|INTERRES
    55   29   30 1    
    56   29   85 1    
    57   30   31 1    
    58   30   32 1    
    59   30   86 1    
    60   31   87 1    
    61   31   88 1    
    62   31   89 1    
    63   32   33 2    
    64   32   34 am   BACKBONE|DICT|INTERRES
    65   34   35 1    
    66   34   90 1    
    67   35   36 1    
    68   35   37 1    
    69   35   91 1    
    70   36   92 1    
    71   36   93 1    
    72   36   94 1    
    73   37   38 2    
    74   37   39 am   BACKBONE|DICT|INTERRES
    75   39   40 1    
    76   39   95 1    
    77   40   41 1    
    78   40   42 1    
    79   40   96 1    
    80   41   97 1    
    81   41   98 1    
    82   41   99 1    
    83   42   43 2    
    84   42   44 am   BACKBONE|DICT|INTERRES
    85   44   45 1    
    86   44  100 1    
    87   45   46 1    
    88   45   47 1    
    89   45  101 1    
    90   46  102 1    
    91   46  103 1    
    92   46  104 1    
    93   47   48 2    
    94   47   49 am   BACKBONE|DICT|INTERRES
    95   49   50 1    
    96   49  105 1    
    97   50   51 1    
    98   50   52 1    
    99   50  106 1    
   100   51  107 1    
   101   51  108 1    
   102   51  109 1    
   103   52   53 2    
   104   52   54 am   BACKBONE|DICT|INTERRES
   105   54   55 1    
   106   54  110 1    
   107   55   56 1    
   108   55   59 1    
   109   55  111 1    
   110   56   57 am   BACKBONE|DICT|INTERRES
   111   56   58 2    
   112   57  112 1    
   113   57  113 1    
   114   59   60 1    
   115   59  114 1    
   116   59  115 1    
   117   60   61 1    
   118   61  116 1    
   119   61  117 1    
@<TRIPOS>SUBSTRUCTURE
     1 UNK         1 GROUP             0       ****    0 ROOT    
