@<TRIPOS>MOLECULE
3R8
117   119    1
SMALL
USER_CHARGES


@<TRIPOS>ATOM
      1 CA         17.2368  -28.5547  -41.6176 C.3       0 UNK        -0.2013 
      2 C          17.5440  -27.7886  -42.8944 C.2       0 UNK         0.4866 
      3 O          18.6436  -27.9049  -43.4384 O.2       0 UNK        -0.5176 
      4 N          16.5691  -26.9992  -43.3644 N.am      1 UNK        -0.4884 
      5 CA         16.6026  -26.2118  -44.6048 C.3       1 UNK         0.0853 
      6 C6         16.5870  -27.0962  -45.8877 C.3       10 UNK        -0.0849 
      7 S7         15.2312  -28.3227  -45.8828 S.3       10 UNK        -0.2776 
      8 C8         15.9432  -29.7043  -46.8390 C.3       10 UNK         0.0316 
      9 C9         17.2258  -30.2591  -46.2297 C.ar      10 UNK        -0.0863 
     10 C10        17.2010  -30.9195  -44.9956 C.ar      10 UNK        -0.1009 
     11 C11        18.3786  -31.4353  -44.4428 C.ar      10 UNK        -0.0712 
     12 C12        19.5787  -31.3004  -45.1447 C.ar      10 UNK        -0.0894 
     13 C13        19.6232  -30.6218  -46.3641 C.ar      10 UNK        -0.0745 
     14 C14        18.4412  -30.1131  -46.9081 C.ar      10 UNK        -0.0972 
     15 C15        20.9513  -30.4331  -47.0844 C.3       10 UNK         0.0209 
     16 S16        21.5729  -28.7241  -46.9533 S.3       10 UNK        -0.2568 
     17 C17        21.8585  -28.5555  -45.1577 C.3       10 UNK        -0.0983 
     18 CA         22.0233  -27.0808  -44.7164 C.3       3 UNK         0.0876 
     19 N          20.8959  -26.2393  -45.1242 N.am      3 UNK        -0.4424 
     20 C          20.9439  -24.9050  -45.2469 C.2       2 UNK         0.4918 
     21 O          21.9436  -24.2320  -44.9945 O.2       2 UNK        -0.4875 
     22 CA         19.6846  -24.1903  -45.7751 C.3       2 UNK         0.0481 
     23 CB         19.8884  -23.7689  -47.2397 C.3       2 UNK        -0.1831 
     24 N          18.4784  -25.0156  -45.6834 N.am      2 UNK        -0.4498 
     25 C          17.7526  -25.1755  -44.5680 C.2       1 UNK         0.5027 
     26 O          17.9648  -24.5458  -43.5283 O.2       1 UNK        -0.4969 
     27 C          22.2492  -26.9821  -43.1983 C.2       3 UNK         0.5005 
     28 O          23.3560  -26.6516  -42.7678 O.2       3 UNK        -0.5279 
     29 N          21.1866  -27.2507  -42.4236 N.am      4 UNK        -0.4463 
     30 CA         21.1034  -27.1722  -40.9635 C.3       4 UNK         0.0283 
     31 CB         20.9456  -25.6981  -40.5312 C.3       4 UNK        -0.1875 
     32 C          22.2551  -27.9170  -40.2628 C.2       4 UNK         0.4949 
     33 O          22.2962  -29.1477  -40.3055 O.2       4 UNK        -0.5039 
     34 N          23.1759  -27.1654  -39.6464 N.am      5 UNK        -0.4663 
     35 CA         24.3521  -27.6731  -38.9397 C.3       5 UNK         0.0242 
     36 CB         25.0134  -26.5172  -38.1724 C.3       5 UNK        -0.1982 
     37 C          25.3814  -28.3743  -39.8437 C.2       5 UNK         0.5017 
     38 O          26.1276  -29.2121  -39.3380 O.2       5 UNK        -0.5012 
     39 N          25.4029  -28.0556  -41.1484 N.am      6 UNK        -0.4439 
     40 CA         26.3048  -28.6812  -42.1240 C.3       6 UNK         0.0297 
     41 CB         26.3330  -27.8568  -43.4210 C.3       6 UNK        -0.2006 
     42 C          25.9350  -30.1438  -42.4254 C.2       6 UNK         0.4892 
     43 O          26.8279  -30.9462  -42.6989 O.2       6 UNK        -0.5089 
     44 N          24.6355  -30.4603  -42.3539 N.am      7 UNK        -0.4243 
     45 CA         24.0922  -31.8124  -42.5055 C.3       7 UNK         0.0196 
     46 CB         22.8429  -31.7354  -43.3940 C.3       7 UNK        -0.2007 
     47 C          23.7615  -32.4681  -41.1519 C.2       7 UNK         0.5020 
     48 O          23.4013  -33.6452  -41.1326 O.2       7 UNK        -0.5147 
     49 N          23.8825  -31.7036  -40.0559 N.am      8 UNK        -0.4734 
     50 CA         23.5496  -32.0545  -38.6706 C.3       8 UNK         0.0238 
     51 CB         24.4912  -33.1567  -38.1393 C.3       8 UNK        -0.1912 
     52 C          22.0554  -32.3850  -38.4799 C.2       8 UNK         0.5038 
     53 O          21.7242  -33.3174  -37.7443 O.2       8 UNK        -0.5046 
     54 N          21.1864  -31.6102  -39.1414 N.am      9 UNK        -0.4200 
     55 CA         19.7206  -31.7403  -39.0929 C.3       9 UNK         0.0839 
     56 C          18.9909  -30.4456  -38.6338 C.2       9 UNK         0.5513 
     57 N          19.6941  -29.3897  -38.2413 N.am      9 UNK        -0.7519 
     58 O          17.7638  -30.4080  -38.5994 O.2       9 UNK        -0.4960 
     59 C59        19.1500  -32.3392  -40.4070 C.3       10 UNK        -0.0876 
     60 S60        19.4422  -31.3078  -41.8822 S.3       10 UNK        -0.2414 
     61 C61        18.3648  -32.1411  -43.0929 C.3       10 UNK         0.0169 
     62 H62        18.1164  -28.6069  -40.9796 H         1 UNK         0.0903 
     63 H63        16.4356  -28.0877  -41.0456 H         1 UNK         0.0903 
     64 H64        16.9353  -29.5732  -41.8596 H         1 UNK         0.0903 
     65 H65        15.7044  -26.9335  -42.8464 H         1 UNK         0.3096 
     66 H66        15.6857  -25.6203  -44.6079 H         1 UNK         0.1121 
     67 H67        17.5408  -27.6138  -45.9921 H         1 UNK         0.0849 
     68 H68        16.4632  -26.4824  -46.7816 H         1 UNK         0.0849 
     69 H69        15.2053  -30.5053  -46.9009 H         1 UNK         0.0865 
     70 H70        16.1133  -29.3711  -47.8640 H         1 UNK         0.0865 
     71 H71        16.2646  -31.0208  -44.4643 H         1 UNK         0.1346 
     72 H72        20.4861  -31.7028  -44.7217 H         1 UNK         0.1412 
     73 H73        18.4744  -29.5920  -47.8552 H         1 UNK         0.1426 
     74 H74        21.7057  -31.1184  -46.6946 H         1 UNK         0.0716 
     75 H75        20.8278  -30.6833  -48.1390 H         1 UNK         0.0716 
     76 H76        21.0290  -29.0173  -44.6206 H         1 UNK         0.0695 
     77 H77        22.7523  -29.1268  -44.9029 H         1 UNK         0.0695 
     78 H78        22.9225  -26.6928  -45.2010 H         1 UNK         0.0983 
     79 H79        20.0287  -26.7210  -45.3102 H         1 UNK         0.3095 
     80 H80        19.5442  -23.2849  -45.1808 H         1 UNK         0.0454 
     81 H81        20.0464  -24.6294  -47.8911 H         1 UNK         0.0851 
     82 H82        19.0297  -23.2135  -47.6170 H         1 UNK         0.0851 
     83 H83        20.7600  -23.1207  -47.3414 H         1 UNK         0.0851 
     84 H84        18.2340  -25.5476  -46.5059 H         1 UNK         0.2976 
     85 H85        20.3204  -27.5333  -42.8849 H         1 UNK         0.3116 
     86 H86        20.1937  -27.6985  -40.6774 H         1 UNK         0.0646 
     87 H87        21.7854  -25.0805  -40.8521 H         1 UNK         0.0847 
     88 H88        20.0424  -25.2652  -40.9623 H         1 UNK         0.0847 
     89 H89        20.8540  -25.6087  -39.4478 H         1 UNK         0.0847 
     90 H90        23.0750  -26.1618  -39.6927 H         1 UNK         0.3040 
     91 H91        24.0079  -28.4123  -38.2130 H         1 UNK         0.1015 
     92 H92        25.3602  -25.7319  -38.8454 H         1 UNK         0.0786 
     93 H93        25.8785  -26.8673  -37.6072 H         1 UNK         0.0786 
     94 H94        24.3234  -26.0681  -37.4576 H         1 UNK         0.0786 
     95 H95        24.7281  -27.3848  -41.5093 H         1 UNK         0.3172 
     96 H96        27.3120  -28.6738  -41.7014 H         1 UNK         0.0595 
     97 H97        27.0851  -28.2449  -44.1093 H         1 UNK         0.0839 
     98 H98        26.5799  -26.8131  -43.2263 H         1 UNK         0.0839 
     99 H99        25.3759  -27.8848  -43.9423 H         1 UNK         0.0839 
    100 H100       23.9761  -29.7344  -42.1076 H         1 UNK         0.2998 
    101 H101       24.8184  -32.4606  -43.0005 H         1 UNK         0.0822 
    102 H102       22.3373  -32.7004  -43.4529 H         1 UNK         0.0787 
    103 H103       22.1257  -31.0099  -43.0097 H         1 UNK         0.0787 
    104 H104       23.1034  -31.4470  -44.4119 H         1 UNK         0.0787 
    105 H105       24.1674  -30.7450  -40.1974 H         1 UNK         0.3055 
    106 H106       23.7326  -31.1571  -38.0775 H         1 UNK         0.1106 
    107 H107       25.5374  -32.8817  -38.2726 H         1 UNK         0.0828 
    108 H108       24.3350  -33.3236  -37.0729 H         1 UNK         0.0828 
    109 H109       24.3271  -34.1095  -38.6435 H         1 UNK         0.0828 
    110 H110       21.5418  -30.8535  -39.7196 H         1 UNK         0.2931 
    111 H111       19.4676  -32.4535  -38.3069 H         1 UNK         0.0412 
    112 H112       19.2077  -28.5680  -37.9200 H         1 UNK         0.3472 
    113 H113       20.7006  -29.4168  -38.2441 H         1 UNK         0.3472 
    114 H114       19.5968  -33.3187  -40.5842 H         1 UNK         0.0970 
    115 H115       18.0779  -32.5168  -40.3046 H         1 UNK         0.0970 
    116 H116       18.6989  -33.1712  -43.2230 H         1 UNK         0.0612 
    117 H117       17.3503  -32.1859  -42.6941 H         1 UNK         0.0612 
@<TRIPOS>BOND
     1    1    2 1    
     2    1   62 1    
     3    1   63 1    
     4    1   64 1    
     5    2    3 2    
     6    2    4 am   BACKBONE|DICT|INTERRES
     7    4    5 1    
     8    4   65 1    
     9    5    6 1    
    10    5   25 1    
    11    5   66 1    
    12    6    7 1    
    13    6   67 1    
    14    6   68 1    
    15    7    8 1    
    16    8    9 1    
    17    8   69 1    
    18    8   70 1    
    19    9   10 ar   
    20    9   14 ar   
    21   10   11 ar   
    22   10   71 1    
    23   11   12 ar   
    24   11   61 1    
    25   12   13 ar   
    26   12   72 1    
    27   13   14 ar   
    28   13   15 1    
    29   14   73 1    
    30   15   16 1    
    31   15   74 1    
    32   15   75 1    
    33   16   17 1    
    34   17   18 1    
    35   17   76 1    
    36   17   77 1    
    37   18   19 1    
    38   18   27 1    
    39   18   78 1    
    40   19   20 am   BACKBONE|DICT|INTERRES
    41   19   79 1    
    42   20   21 2    
    43   20   22 1    
    44   22   23 1    
    45   22   24 1    
    46   22   80 1    
    47   23   81 1    
    48   23   82 1    
    49   23   83 1    
    50   24   25 am   BACKBONE|DICT|INTERRES
    51   24   84 1    
    52   25   26 2    
    53   27   28 2    
    54   27   29 am   BACKBONE|DICT|INTERRES
    55   29   30 1    
    56   29   85 1    
    57   30   31 1    
    58   30   32 1    
    59   30   86 1    
    60   31   87 1    
    61   31   88 1    
    62   31   89 1    
    63   32   33 2    
    64   32   34 am   BACKBONE|DICT|INTERRES
    65   34   35 1    
    66   34   90 1    
    67   35   36 1    
    68   35   37 1    
    69   35   91 1    
    70   36   92 1    
    71   36   93 1    
    72   36   94 1    
    73   37   38 2    
    74   37   39 am   BACKBONE|DICT|INTERRES
    75   39   40 1    
    76   39   95 1    
    77   40   41 1    
    78   40   42 1    
    79   40   96 1    
    80   41   97 1    
    81   41   98 1    
    82   41   99 1    
    83   42   43 2    
    84   42   44 am   BACKBONE|DICT|INTERRES
    85   44   45 1    
    86   44  100 1    
    87   45   46 1    
    88   45   47 1    
    89   45  101 1    
    90   46  102 1    
    91   46  103 1    
    92   46  104 1    
    93   47   48 2    
    94   47   49 am   BACKBONE|DICT|INTERRES
    95   49   50 1    
    96   49  105 1    
    97   50   51 1    
    98   50   52 1    
    99   50  106 1    
   100   51  107 1    
   101   51  108 1    
   102   51  109 1    
   103   52   53 2    
   104   52   54 am   BACKBONE|DICT|INTERRES
   105   54   55 1    
   106   54  110 1    
   107   55   56 1    
   108   55   59 1    
   109   55  111 1    
   110   56   57 am   BACKBONE|DICT|INTERRES
   111   56   58 2    
   112   57  112 1    
   113   57  113 1    
   114   59   60 1    
   115   59  114 1    
   116   59  115 1    
   117   60   61 1    
   118   61  116 1    
   119   61  117 1    
@<TRIPOS>SUBSTRUCTURE
     1 UNK         1 GROUP             0       ****    0 ROOT    
