@<TRIPOS>MOLECULE
3R8
117   119    1
SMALL
USER_CHARGES


@<TRIPOS>ATOM
      1 CA         16.2921  -23.4596  -47.5800 C.3       0 UNK        -0.2013 
      2 C          17.0897  -24.4697  -46.7697 C.2       0 UNK         0.4866 
      3 O          18.2369  -24.7578  -47.1075 O.2       0 UNK        -0.5176 
      4 N          16.5025  -24.9933  -45.6858 N.am      1 UNK        -0.4884 
      5 CA         17.0762  -26.0326  -44.8148 C.3       1 UNK         0.0853 
      6 C6         15.9707  -26.8714  -44.1212 C.3       10 UNK        -0.0849 
      7 S7         15.0652  -27.8747  -45.3519 S.3       10 UNK        -0.2776 
      8 C8         15.3384  -29.5915  -44.7808 C.3       10 UNK         0.0316 
      9 C9         16.7975  -29.9525  -44.5030 C.ar      10 UNK        -0.0863 
     10 C10        17.1184  -30.6594  -43.3399 C.ar      10 UNK        -0.1009 
     11 C11        18.4418  -31.0060  -43.0559 C.ar      10 UNK        -0.0712 
     12 C12        19.4569  -30.6221  -43.9367 C.ar      10 UNK        -0.0894 
     13 C13        19.1557  -29.9147  -45.1048 C.ar      10 UNK        -0.0745 
     14 C14        17.8204  -29.6065  -45.3936 C.ar      10 UNK        -0.0972 
     15 C15        20.2720  -29.5038  -46.0584 C.3       10 UNK         0.0209 
     16 S16        20.2619  -27.7099  -46.3850 S.3       10 UNK        -0.2568 
     17 C17        21.9879  -27.2032  -46.0536 C.3       10 UNK        -0.0983 
     18 CA         22.1848  -26.4753  -44.6978 C.3       3 UNK         0.0876 
     19 N          21.1930  -25.4148  -44.4964 N.am      3 UNK        -0.4424 
     20 C          21.1185  -24.5660  -43.4610 C.2       2 UNK         0.4918 
     21 O          21.9761  -24.4819  -42.5816 O.2       2 UNK        -0.4875 
     22 CA         19.8324  -23.7199  -43.3535 C.3       2 UNK         0.0481 
     23 CB         20.0831  -22.2959  -43.8722 C.3       2 UNK        -0.1831 
     24 N          18.6841  -24.3002  -44.0650 N.am      2 UNK        -0.4498 
     25 C          18.1411  -25.5046  -43.8246 C.2       1 UNK         0.5027 
     26 O          18.5070  -26.2188  -42.8914 O.2       1 UNK        -0.4969 
     27 C          22.2777  -27.4802  -43.5288 C.2       3 UNK         0.5005 
     28 O          23.3462  -28.0646  -43.3455 O.2       3 UNK        -0.5279 
     29 N          21.2108  -27.6234  -42.7231 N.am      4 UNK        -0.4463 
     30 CA         21.1577  -28.4492  -41.5097 C.3       4 UNK         0.0283 
     31 CB         19.7484  -28.3702  -40.9026 C.3       4 UNK        -0.1875 
     32 C          22.2043  -28.0885  -40.4387 C.2       4 UNK         0.4949 
     33 O          22.5110  -28.9301  -39.5957 O.2       4 UNK        -0.5039 
     34 N          22.7467  -26.8629  -40.4890 N.am      5 UNK        -0.4663 
     35 CA         23.8575  -26.4148  -39.6464 C.3       5 UNK         0.0242 
     36 CB         23.9839  -24.8872  -39.7592 C.3       5 UNK        -0.1982 
     37 C          25.2000  -27.0916  -39.9882 C.2       5 UNK         0.5017 
     38 O          26.0799  -27.1271  -39.1271 O.2       5 UNK        -0.5012 
     39 N          25.3392  -27.6005  -41.2207 N.am      6 UNK        -0.4439 
     40 CA         26.5251  -28.3017  -41.7137 C.3       6 UNK         0.0297 
     41 CB         27.0113  -27.6347  -43.0120 C.3       6 UNK        -0.2006 
     42 C          26.2137  -29.7862  -41.9438 C.2       6 UNK         0.4892 
     43 O          26.9175  -30.6456  -41.4121 O.2       6 UNK        -0.5089 
     44 N          25.1547  -30.0641  -42.7133 N.am      7 UNK        -0.4243 
     45 CA         24.6566  -31.4009  -43.0224 C.3       7 UNK         0.0196 
     46 CB         24.0952  -31.3969  -44.4571 C.3       7 UNK        -0.2007 
     47 C          23.6014  -31.7934  -41.9793 C.2       7 UNK         0.5020 
     48 O          22.4121  -31.8379  -42.2925 O.2       7 UNK        -0.5147 
     49 N          24.0552  -32.0216  -40.7407 N.am      8 UNK        -0.4734 
     50 CA         23.2165  -32.3541  -39.5879 C.3       8 UNK         0.0238 
     51 CB         24.0856  -32.3890  -38.3197 C.3       8 UNK        -0.1912 
     52 C          22.4618  -33.6801  -39.7841 C.2       8 UNK         0.5038 
     53 O          23.0968  -34.7341  -39.8701 O.2       8 UNK        -0.5046 
     54 N          21.1301  -33.5913  -39.8614 N.am      9 UNK        -0.4200 
     55 CA         20.2115  -34.7290  -39.9869 C.3       9 UNK         0.0839 
     56 C          20.1464  -35.5690  -38.6827 C.2       9 UNK         0.5513 
     57 N          19.9728  -36.8783  -38.7975 N.am      9 UNK        -0.7519 
     58 O          20.2078  -35.0413  -37.5737 O.2       9 UNK        -0.4960 
     59 C59        18.7959  -34.2586  -40.4101 C.3       10 UNK        -0.0876 
     60 S60        18.7540  -33.5758  -42.1035 S.3       10 UNK        -0.2414 
     61 C61        18.7696  -31.7839  -41.7902 C.3       10 UNK         0.0169 
     62 H62        16.8167  -22.5050  -47.6122 H         1 UNK         0.0903 
     63 H63        16.1686  -23.8149  -48.6026 H         1 UNK         0.0903 
     64 H64        15.3015  -23.2889  -47.1589 H         1 UNK         0.0903 
     65 H65        15.5622  -24.7070  -45.4507 H         1 UNK         0.3096 
     66 H66        17.6344  -26.7165  -45.4564 H         1 UNK         0.1121 
     67 H67        15.2660  -26.2246  -43.5963 H         1 UNK         0.0849 
     68 H68        16.3859  -27.5361  -43.3618 H         1 UNK         0.0849 
     69 H69        14.7322  -29.7468  -43.8869 H         1 UNK         0.0865 
     70 H70        14.9483  -30.2765  -45.5346 H         1 UNK         0.0865 
     71 H71        16.3356  -30.9491  -42.6520 H         1 UNK         0.1346 
     72 H72        20.4823  -30.8809  -43.7115 H         1 UNK         0.1412 
     73 H73        17.5808  -29.0743  -46.3040 H         1 UNK         0.1426 
     74 H74        20.1493  -30.0361  -47.0024 H         1 UNK         0.0716 
     75 H75        21.2410  -29.8049  -45.6594 H         1 UNK         0.0716 
     76 H76        22.6633  -28.0554  -46.1528 H         1 UNK         0.0695 
     77 H77        22.2726  -26.5236  -46.8582 H         1 UNK         0.0695 
     78 H78        23.1571  -25.9791  -44.7323 H         1 UNK         0.0983 
     79 H79        20.4377  -25.4072  -45.1680 H         1 UNK         0.3095 
     80 H80        19.5693  -23.6597  -42.2957 H         1 UNK         0.0454 
     81 H81        19.2113  -21.6588  -43.7226 H         1 UNK         0.0851 
     82 H82        20.9163  -21.8296  -43.3444 H         1 UNK         0.0851 
     83 H83        20.3267  -22.2897  -44.9354 H         1 UNK         0.0851 
     84 H84        18.3456  -23.7947  -44.8717 H         1 UNK         0.2976 
     85 H85        20.3660  -27.1035  -42.9390 H         1 UNK         0.3116 
     86 H86        21.3452  -29.4792  -41.8130 H         1 UNK         0.0646 
     87 H87        19.5214  -27.3650  -40.5453 H         1 UNK         0.0847 
     88 H88        19.6484  -29.0491  -40.0548 H         1 UNK         0.0847 
     89 H89        18.9829  -28.6422  -41.6284 H         1 UNK         0.0847 
     90 H90        22.4244  -26.2168  -41.1999 H         1 UNK         0.3040 
     91 H91        23.6215  -26.6656  -38.6097 H         1 UNK         0.1015 
     92 H92        23.0616  -24.3889  -39.4599 H         1 UNK         0.0786 
     93 H93        24.2162  -24.5763  -40.7789 H         1 UNK         0.0786 
     94 H94        24.7792  -24.5114  -39.1138 H         1 UNK         0.0786 
     95 H95        24.5405  -27.5711  -41.8472 H         1 UNK         0.3172 
     96 H96        27.3366  -28.2442  -40.9854 H         1 UNK         0.0595 
     97 H97        27.3071  -26.6005  -42.8354 H         1 UNK         0.0839 
     98 H98        26.2420  -27.6328  -43.7853 H         1 UNK         0.0839 
     99 H99        27.8806  -28.1551  -43.4165 H         1 UNK         0.0839 
    100 H100       24.5740  -29.2957  -43.0473 H         1 UNK         0.2998 
    101 H101       25.4691  -32.1294  -42.9775 H         1 UNK         0.0822 
    102 H102       23.2894  -30.6710  -44.5725 H         1 UNK         0.0787 
    103 H103       24.8700  -31.1532  -45.1841 H         1 UNK         0.0787 
    104 H104       23.6950  -32.3761  -44.7228 H         1 UNK         0.0787 
    105 H105       25.0504  -31.9458  -40.5769 H         1 UNK         0.3055 
    106 H106       22.4864  -31.5509  -39.4707 H         1 UNK         0.1106 
    107 H107       24.5539  -31.4219  -38.1344 H         1 UNK         0.0828 
    108 H108       23.4839  -32.6300  -37.4422 H         1 UNK         0.0828 
    109 H109       24.8750  -33.1385  -38.3897 H         1 UNK         0.0828 
    110 H110       20.6978  -32.6844  -39.7843 H         1 UNK         0.2931 
    111 H111       20.6023  -35.3747  -40.7766 H         1 UNK         0.0412 
    112 H112       19.9119  -37.4407  -37.9626 H         1 UNK         0.3472 
    113 H113       19.9118  -37.3186  -39.7029 H         1 UNK         0.3472 
    114 H114       18.3955  -33.5338  -39.6989 H         1 UNK         0.0970 
    115 H115       18.1000  -35.0999  -40.3965 H         1 UNK         0.0970 
    116 H116       18.0486  -31.5390  -41.0089 H         1 UNK         0.0612 
    117 H117       19.7501  -31.4904  -41.4137 H         1 UNK         0.0612 
@<TRIPOS>BOND
     1    1    2 1    
     2    1   62 1    
     3    1   63 1    
     4    1   64 1    
     5    2    3 2    
     6    2    4 am   BACKBONE|DICT|INTERRES
     7    4    5 1    
     8    4   65 1    
     9    5    6 1    
    10    5   25 1    
    11    5   66 1    
    12    6    7 1    
    13    6   67 1    
    14    6   68 1    
    15    7    8 1    
    16    8    9 1    
    17    8   69 1    
    18    8   70 1    
    19    9   10 ar   
    20    9   14 ar   
    21   10   11 ar   
    22   10   71 1    
    23   11   12 ar   
    24   11   61 1    
    25   12   13 ar   
    26   12   72 1    
    27   13   14 ar   
    28   13   15 1    
    29   14   73 1    
    30   15   16 1    
    31   15   74 1    
    32   15   75 1    
    33   16   17 1    
    34   17   18 1    
    35   17   76 1    
    36   17   77 1    
    37   18   19 1    
    38   18   27 1    
    39   18   78 1    
    40   19   20 am   BACKBONE|DICT|INTERRES
    41   19   79 1    
    42   20   21 2    
    43   20   22 1    
    44   22   23 1    
    45   22   24 1    
    46   22   80 1    
    47   23   81 1    
    48   23   82 1    
    49   23   83 1    
    50   24   25 am   BACKBONE|DICT|INTERRES
    51   24   84 1    
    52   25   26 2    
    53   27   28 2    
    54   27   29 am   BACKBONE|DICT|INTERRES
    55   29   30 1    
    56   29   85 1    
    57   30   31 1    
    58   30   32 1    
    59   30   86 1    
    60   31   87 1    
    61   31   88 1    
    62   31   89 1    
    63   32   33 2    
    64   32   34 am   BACKBONE|DICT|INTERRES
    65   34   35 1    
    66   34   90 1    
    67   35   36 1    
    68   35   37 1    
    69   35   91 1    
    70   36   92 1    
    71   36   93 1    
    72   36   94 1    
    73   37   38 2    
    74   37   39 am   BACKBONE|DICT|INTERRES
    75   39   40 1    
    76   39   95 1    
    77   40   41 1    
    78   40   42 1    
    79   40   96 1    
    80   41   97 1    
    81   41   98 1    
    82   41   99 1    
    83   42   43 2    
    84   42   44 am   BACKBONE|DICT|INTERRES
    85   44   45 1    
    86   44  100 1    
    87   45   46 1    
    88   45   47 1    
    89   45  101 1    
    90   46  102 1    
    91   46  103 1    
    92   46  104 1    
    93   47   48 2    
    94   47   49 am   BACKBONE|DICT|INTERRES
    95   49   50 1    
    96   49  105 1    
    97   50   51 1    
    98   50   52 1    
    99   50  106 1    
   100   51  107 1    
   101   51  108 1    
   102   51  109 1    
   103   52   53 2    
   104   52   54 am   BACKBONE|DICT|INTERRES
   105   54   55 1    
   106   54  110 1    
   107   55   56 1    
   108   55   59 1    
   109   55  111 1    
   110   56   57 am   BACKBONE|DICT|INTERRES
   111   56   58 2    
   112   57  112 1    
   113   57  113 1    
   114   59   60 1    
   115   59  114 1    
   116   59  115 1    
   117   60   61 1    
   118   61  116 1    
   119   61  117 1    
@<TRIPOS>SUBSTRUCTURE
     1 UNK         1 GROUP             0       ****    0 ROOT    
