@<TRIPOS>MOLECULE
3R8
117   119    1
SMALL
USER_CHARGES


@<TRIPOS>ATOM
      1 CA         15.5451  -24.5328  -42.2071 C.3       0 UNK        -0.2013 
      2 C          15.6379  -24.6616  -43.7200 C.2       0 UNK         0.4866 
      3 O          14.8972  -23.9916  -44.4394 O.2       0 UNK        -0.5176 
      4 N          16.5444  -25.5194  -44.2041 N.am      1 UNK        -0.4884 
      5 CA         16.7916  -25.7611  -45.6287 C.3       1 UNK         0.0853 
      6 C6         17.5368  -27.1021  -45.8691 C.3       10 UNK        -0.0849 
      7 S7         16.4013  -28.5080  -46.1286 S.3       10 UNK        -0.2776 
      8 C8         15.9089  -28.9689  -44.4329 C.3       10 UNK         0.0316 
      9 C9         17.0924  -29.2579  -43.5182 C.ar      10 UNK        -0.0863 
     10 C10        18.0449  -30.2227  -43.8645 C.ar      10 UNK        -0.1009 
     11 C11        19.1386  -30.4709  -43.0299 C.ar      10 UNK        -0.0712 
     12 C12        19.2706  -29.7540  -41.8376 C.ar      10 UNK        -0.0894 
     13 C13        18.3154  -28.8033  -41.4711 C.ar      10 UNK        -0.0745 
     14 C14        17.2277  -28.5611  -42.3139 C.ar      10 UNK        -0.0972 
     15 C15        18.4455  -28.0458  -40.1598 C.3       10 UNK         0.0209 
     16 S16        18.9087  -26.3101  -40.4346 S.3       10 UNK        -0.2568 
     17 C17        20.6609  -26.4535  -40.9326 C.3       10 UNK        -0.0983 
     18 CA         20.9019  -26.3157  -42.4635 C.3       3 UNK         0.0876 
     19 N          20.1784  -25.1624  -43.0164 N.am      3 UNK        -0.4424 
     20 C          19.8753  -24.9355  -44.2990 C.2       2 UNK         0.4918 
     21 O          20.2659  -25.6364  -45.2344 O.2       2 UNK        -0.4875 
     22 CA         19.0120  -23.6933  -44.5669 C.3       2 UNK         0.0481 
     23 CB         19.8964  -22.4357  -44.5219 C.3       2 UNK        -0.1831 
     24 N          18.3240  -23.7190  -45.8629 N.am      2 UNK        -0.4498 
     25 C          17.4399  -24.5801  -46.4039 C.2       1 UNK         0.5027 
     26 O          17.0949  -24.4287  -47.5753 O.2       1 UNK        -0.4969 
     27 C          22.4163  -26.2928  -42.7994 C.2       3 UNK         0.5005 
     28 O          23.2493  -26.4424  -41.9038 O.2       3 UNK        -0.5279 
     29 N          22.7639  -26.0957  -44.0786 N.am      4 UNK        -0.4463 
     30 CA         24.1342  -25.9476  -44.5864 C.3       4 UNK         0.0283 
     31 CB         24.0810  -25.5638  -46.0736 C.3       4 UNK        -0.1875 
     32 C          25.0236  -27.1876  -44.3820 C.2       4 UNK         0.4949 
     33 O          26.2395  -27.0464  -44.2548 O.2       4 UNK        -0.5039 
     34 N          24.4000  -28.3707  -44.3280 N.am      5 UNK        -0.4663 
     35 CA         25.0429  -29.6553  -44.0379 C.3       5 UNK         0.0242 
     36 CB         24.3408  -30.7429  -44.8704 C.3       5 UNK        -0.1982 
     37 C          25.0392  -30.0024  -42.5333 C.2       5 UNK         0.5017 
     38 O          25.3732  -31.1373  -42.1870 O.2       5 UNK        -0.5012 
     39 N          24.6487  -29.0417  -41.6778 N.am      6 UNK        -0.4439 
     40 CA         24.3876  -29.1507  -40.2364 C.3       6 UNK         0.0297 
     41 CB         25.6118  -29.7011  -39.4724 C.3       6 UNK        -0.2006 
     42 C          23.1116  -29.9573  -39.9389 C.2       6 UNK         0.4892 
     43 O          22.5272  -30.5594  -40.8398 O.2       6 UNK        -0.5089 
     44 N          22.6977  -29.9691  -38.6643 N.am      7 UNK        -0.4243 
     45 CA         21.5144  -30.6928  -38.1774 C.3       7 UNK         0.0196 
     46 CB         21.2607  -30.3164  -36.7090 C.3       7 UNK        -0.2007 
     47 C          21.5978  -32.2238  -38.3389 C.2       7 UNK         0.5020 
     48 O          20.5600  -32.8837  -38.3836 O.2       7 UNK        -0.5147 
     49 N          22.8227  -32.7581  -38.4370 N.am      8 UNK        -0.4734 
     50 CA         23.0999  -34.1614  -38.7524 C.3       8 UNK         0.0238 
     51 CB         24.5316  -34.4965  -38.3018 C.3       8 UNK        -0.1912 
     52 C          22.9163  -34.5009  -40.2451 C.2       8 UNK         0.5038 
     53 O          22.8147  -35.6847  -40.5702 O.2       8 UNK        -0.5046 
     54 N          22.8895  -33.4791  -41.1135 N.am      9 UNK        -0.4200 
     55 CA         22.7874  -33.5696  -42.5771 C.3       9 UNK         0.0839 
     56 C          23.9634  -34.3634  -43.2122 C.2       9 UNK         0.5513 
     57 N          25.1959  -33.9301  -42.9841 N.am      9 UNK        -0.7519 
     58 O          23.7718  -35.3602  -43.9048 O.2       9 UNK        -0.4960 
     59 C59        21.3867  -34.0268  -43.0758 C.3       10 UNK        -0.0876 
     60 S60        20.0156  -33.0166  -42.4181 S.3       10 UNK        -0.2414 
     61 C61        20.1859  -31.5036  -43.4137 C.3       10 UNK         0.0169 
     62 H62        16.2691  -25.1671  -41.6962 H         1 UNK         0.0903 
     63 H63        15.7289  -23.5017  -41.9068 H         1 UNK         0.0903 
     64 H64        14.5489  -24.8143  -41.8672 H         1 UNK         0.0903 
     65 H65        17.1213  -26.0459  -43.5649 H         1 UNK         0.3096 
     66 H66        15.8039  -25.8563  -46.0868 H         1 UNK         0.1121 
     67 H67        18.1595  -27.0545  -46.7651 H         1 UNK         0.0849 
     68 H68        18.2293  -27.3295  -45.0584 H         1 UNK         0.0849 
     69 H69        15.2766  -29.8564  -44.4799 H         1 UNK         0.0865 
     70 H70        15.2843  -28.1732  -44.0239 H         1 UNK         0.0865 
     71 H71        17.9383  -30.7711  -44.7906 H         1 UNK         0.1346 
     72 H72        20.1127  -29.9497  -41.1901 H         1 UNK         0.1412 
     73 H73        16.4870  -27.8279  -42.0252 H         1 UNK         0.1426 
     74 H74        19.1721  -28.5195  -39.4983 H         1 UNK         0.0716 
     75 H75        17.4905  -28.0754  -39.6335 H         1 UNK         0.0716 
     76 H76        21.0622  -27.4015  -40.5690 H         1 UNK         0.0695 
     77 H77        21.2019  -25.6737  -40.3929 H         1 UNK         0.0695 
     78 H78        20.4964  -27.2112  -42.9396 H         1 UNK         0.0983 
     79 H79        19.8397  -24.5117  -42.3224 H         1 UNK         0.3095 
     80 H80        18.2707  -23.5975  -43.7748 H         1 UNK         0.0454 
     81 H81        19.3068  -21.5294  -44.6624 H         1 UNK         0.0851 
     82 H82        20.6682  -22.4561  -45.2929 H         1 UNK         0.0851 
     83 H83        20.4025  -22.3383  -43.5605 H         1 UNK         0.0851 
     84 H84        18.6436  -22.9985  -46.4922 H         1 UNK         0.2976 
     85 H85        22.0054  -25.9738  -44.7470 H         1 UNK         0.3116 
     86 H86        24.5975  -25.1244  -44.0387 H         1 UNK         0.0646 
     87 H87        25.0844  -25.4181  -46.4762 H         1 UNK         0.0847 
     88 H88        23.5349  -24.6324  -46.2246 H         1 UNK         0.0847 
     89 H89        23.5982  -26.3368  -46.6729 H         1 UNK         0.0847 
     90 H90        23.3966  -28.3822  -44.4422 H         1 UNK         0.3040 
     91 H91        26.0896  -29.6182  -44.3482 H         1 UNK         0.1015 
     92 H92        24.3762  -30.5096  -45.9346 H         1 UNK         0.0786 
     93 H93        23.2940  -30.8548  -44.5880 H         1 UNK         0.0786 
     94 H94        24.8241  -31.7117  -44.7425 H         1 UNK         0.0786 
     95 H95        24.3619  -28.1534  -42.0758 H         1 UNK         0.3172 
     96 H96        24.2054  -28.1317  -39.8921 H         1 UNK         0.0595 
     97 H97        25.7664  -30.7650  -39.6548 H         1 UNK         0.0839 
     98 H98        25.4964  -29.5740  -38.3957 H         1 UNK         0.0839 
     99 H99        26.5243  -29.1780  -39.7583 H         1 UNK         0.0839 
    100 H100       23.2217  -29.4467  -37.9767 H         1 UNK         0.2998 
    101 H101       20.6584  -30.3597  -38.7672 H         1 UNK         0.0822 
    102 H102       22.0961  -30.6027  -36.0687 H         1 UNK         0.0787 
    103 H103       21.1000  -29.2441  -36.5954 H         1 UNK         0.0787 
    104 H104       20.3702  -30.8172  -36.3259 H         1 UNK         0.0787 
    105 H105       23.6176  -32.1396  -38.3700 H         1 UNK         0.3055 
    106 H106       22.4053  -34.7897  -38.1898 H         1 UNK         0.1106 
    107 H107       24.7636  -35.5461  -38.4882 H         1 UNK         0.0828 
    108 H108       25.2733  -33.9005  -38.8353 H         1 UNK         0.0828 
    109 H109       24.6637  -34.3231  -37.2337 H         1 UNK         0.0828 
    110 H110       22.9368  -32.5310  -40.7579 H         1 UNK         0.2931 
    111 H111       22.9239  -32.5481  -42.9284 H         1 UNK         0.0412 
    112 H112       25.3425  -33.0548  -42.4887 H         1 UNK         0.3472 
    113 H113       25.9796  -34.4264  -43.3770 H         1 UNK         0.3472 
    114 H114       21.3432  -34.0024  -44.1661 H         1 UNK         0.0970 
    115 H115       21.2075  -35.0650  -42.7916 H         1 UNK         0.0970 
    116 H116       21.1762  -31.0739  -43.2614 H         1 UNK         0.0612 
    117 H117       20.1117  -31.7548  -44.4728 H         1 UNK         0.0612 
@<TRIPOS>BOND
     1    1    2 1    
     2    1   62 1    
     3    1   63 1    
     4    1   64 1    
     5    2    3 2    
     6    2    4 am   BACKBONE|DICT|INTERRES
     7    4    5 1    
     8    4   65 1    
     9    5    6 1    
    10    5   25 1    
    11    5   66 1    
    12    6    7 1    
    13    6   67 1    
    14    6   68 1    
    15    7    8 1    
    16    8    9 1    
    17    8   69 1    
    18    8   70 1    
    19    9   10 ar   
    20    9   14 ar   
    21   10   11 ar   
    22   10   71 1    
    23   11   12 ar   
    24   11   61 1    
    25   12   13 ar   
    26   12   72 1    
    27   13   14 ar   
    28   13   15 1    
    29   14   73 1    
    30   15   16 1    
    31   15   74 1    
    32   15   75 1    
    33   16   17 1    
    34   17   18 1    
    35   17   76 1    
    36   17   77 1    
    37   18   19 1    
    38   18   27 1    
    39   18   78 1    
    40   19   20 am   BACKBONE|DICT|INTERRES
    41   19   79 1    
    42   20   21 2    
    43   20   22 1    
    44   22   23 1    
    45   22   24 1    
    46   22   80 1    
    47   23   81 1    
    48   23   82 1    
    49   23   83 1    
    50   24   25 am   BACKBONE|DICT|INTERRES
    51   24   84 1    
    52   25   26 2    
    53   27   28 2    
    54   27   29 am   BACKBONE|DICT|INTERRES
    55   29   30 1    
    56   29   85 1    
    57   30   31 1    
    58   30   32 1    
    59   30   86 1    
    60   31   87 1    
    61   31   88 1    
    62   31   89 1    
    63   32   33 2    
    64   32   34 am   BACKBONE|DICT|INTERRES
    65   34   35 1    
    66   34   90 1    
    67   35   36 1    
    68   35   37 1    
    69   35   91 1    
    70   36   92 1    
    71   36   93 1    
    72   36   94 1    
    73   37   38 2    
    74   37   39 am   BACKBONE|DICT|INTERRES
    75   39   40 1    
    76   39   95 1    
    77   40   41 1    
    78   40   42 1    
    79   40   96 1    
    80   41   97 1    
    81   41   98 1    
    82   41   99 1    
    83   42   43 2    
    84   42   44 am   BACKBONE|DICT|INTERRES
    85   44   45 1    
    86   44  100 1    
    87   45   46 1    
    88   45   47 1    
    89   45  101 1    
    90   46  102 1    
    91   46  103 1    
    92   46  104 1    
    93   47   48 2    
    94   47   49 am   BACKBONE|DICT|INTERRES
    95   49   50 1    
    96   49  105 1    
    97   50   51 1    
    98   50   52 1    
    99   50  106 1    
   100   51  107 1    
   101   51  108 1    
   102   51  109 1    
   103   52   53 2    
   104   52   54 am   BACKBONE|DICT|INTERRES
   105   54   55 1    
   106   54  110 1    
   107   55   56 1    
   108   55   59 1    
   109   55  111 1    
   110   56   57 am   BACKBONE|DICT|INTERRES
   111   56   58 2    
   112   57  112 1    
   113   57  113 1    
   114   59   60 1    
   115   59  114 1    
   116   59  115 1    
   117   60   61 1    
   118   61  116 1    
   119   61  117 1    
@<TRIPOS>SUBSTRUCTURE
     1 UNK         1 GROUP             0       ****    0 ROOT    
