@<TRIPOS>MOLECULE
3R8
117   119    1
SMALL
USER_CHARGES


@<TRIPOS>ATOM
      1 CA         11.0582  -26.2689  -42.9117 C.3       0 UNK        -0.2013 
      2 C          12.4542  -25.8151  -43.3120 C.2       0 UNK         0.4866 
      3 O          12.9565  -24.8288  -42.7716 O.2       0 UNK        -0.5176 
      4 N          13.0801  -26.5201  -44.2616 N.am      1 UNK        -0.4884 
      5 CA         14.4545  -26.2828  -44.7138 C.3       1 UNK         0.0853 
      6 C6         14.7092  -26.8914  -46.1181 C.3       10 UNK        -0.0849 
      7 S7         14.3384  -28.6775  -46.2404 S.3       10 UNK        -0.2776 
      8 C8         15.8128  -29.3127  -47.1091 C.3       10 UNK         0.0316 
      9 C9         17.0675  -29.4384  -46.2445 C.ar      10 UNK        -0.0863 
     10 C10        17.0085  -29.9340  -44.9358 C.ar      10 UNK        -0.1009 
     11 C11        18.1774  -30.1460  -44.1965 C.ar      10 UNK        -0.0712 
     12 C12        19.4172  -29.8736  -44.7845 C.ar      10 UNK        -0.0894 
     13 C13        19.4932  -29.3636  -46.0819 C.ar      10 UNK        -0.0745 
     14 C14        18.3157  -29.1422  -46.8029 C.ar      10 UNK        -0.0972 
     15 C15        20.8465  -29.1048  -46.7276 C.3       10 UNK         0.0209 
     16 S16        21.3975  -27.3849  -46.5065 S.3       10 UNK        -0.2568 
     17 C17        22.1822  -27.4261  -44.8600 C.3       10 UNK        -0.0983 
     18 CA         21.5791  -26.3671  -43.9050 C.3       3 UNK         0.0876 
     19 N          20.2542  -26.7473  -43.4198 N.am      3 UNK        -0.4424 
     20 C          19.1154  -26.1251  -43.7302 C.2       2 UNK         0.4918 
     21 O          19.0254  -25.1956  -44.5380 O.2       2 UNK        -0.4875 
     22 CA         17.8658  -26.5926  -42.9781 C.3       2 UNK         0.0481 
     23 CB         17.8023  -25.9809  -41.5665 C.3       2 UNK        -0.1831 
     24 N          16.6952  -26.2075  -43.7545 N.am      2 UNK        -0.4498 
     25 C          15.4881  -26.7743  -43.6785 C.2       1 UNK         0.5027 
     26 O          15.1901  -27.6546  -42.8654 O.2       1 UNK        -0.4969 
     27 C          22.4755  -26.1563  -42.6742 C.2       3 UNK         0.5005 
     28 O          22.2910  -26.8302  -41.6573 O.2       3 UNK        -0.5279 
     29 N          23.4307  -25.2244  -42.7918 N.am      4 UNK        -0.4463 
     30 CA         24.3508  -24.8287  -41.7194 C.3       4 UNK         0.0283 
     31 CB         24.8181  -23.3856  -41.9767 C.3       4 UNK        -0.1875 
     32 C          25.5641  -25.7640  -41.5576 C.2       4 UNK         0.4949 
     33 O          26.3023  -25.6158  -40.5825 O.2       4 UNK        -0.5039 
     34 N          25.7750  -26.6812  -42.5123 N.am      5 UNK        -0.4663 
     35 CA         26.8588  -27.6669  -42.5019 C.3       5 UNK         0.0242 
     36 CB         26.9170  -28.3658  -43.8701 C.3       5 UNK        -0.1982 
     37 C          26.7149  -28.6873  -41.3569 C.2       5 UNK         0.5017 
     38 O          25.5930  -29.0233  -40.9675 O.2       5 UNK        -0.5012 
     39 N          27.8613  -29.1568  -40.8455 N.am      6 UNK        -0.4439 
     40 CA         27.9799  -30.0559  -39.6950 C.3       6 UNK         0.0297 
     41 CB         29.4669  -30.3245  -39.4078 C.3       6 UNK        -0.2006 
     42 C          27.2120  -31.3747  -39.8848 C.2       6 UNK         0.4892 
     43 O          27.5445  -32.1476  -40.7856 O.2       6 UNK        -0.5089 
     44 N          26.2017  -31.5835  -39.0285 N.am      7 UNK        -0.4243 
     45 CA         25.3077  -32.7463  -38.9614 C.3       7 UNK         0.0196 
     46 CB         26.0923  -34.0148  -38.5619 C.3       7 UNK        -0.2007 
     47 C          24.4380  -32.9665  -40.2171 C.2       7 UNK         0.5020 
     48 O          23.9267  -34.0721  -40.4021 O.2       7 UNK        -0.5147 
     49 N          24.2380  -31.9237  -41.0397 N.am      8 UNK        -0.4734 
     50 CA         23.4672  -31.9856  -42.2912 C.3       8 UNK         0.0238 
     51 CB         23.6193  -30.6612  -43.0532 C.3       8 UNK        -0.1912 
     52 C          21.9776  -32.3298  -42.1134 C.2       8 UNK         0.5038 
     53 O          21.3744  -32.8654  -43.0441 O.2       8 UNK        -0.5046 
     54 N          21.4294  -32.0307  -40.9305 N.am      9 UNK        -0.4200 
     55 CA         20.0622  -32.3722  -40.5108 C.3       9 UNK         0.0839 
     56 C          20.0403  -33.3852  -39.3298 C.2       9 UNK         0.5513 
     57 N          21.1343  -34.0758  -39.0252 N.am      9 UNK        -0.7519 
     58 O          19.0111  -33.5633  -38.6833 O.2       9 UNK        -0.4960 
     59 C59        19.2009  -31.1073  -40.2290 C.3       10 UNK        -0.0876 
     60 S60        19.2022  -29.9026  -41.6012 S.3       10 UNK        -0.2414 
     61 C61        18.0954  -30.7327  -42.7916 C.3       10 UNK         0.0169 
     62 H62        10.7349  -27.1416  -43.4789 H         1 UNK         0.0903 
     63 H63        11.0370  -26.5259  -41.8530 H         1 UNK         0.0903 
     64 H64        10.3394  -25.4680  -43.0829 H         1 UNK         0.0903 
     65 H65        12.6431  -27.3458  -44.6471 H         1 UNK         0.3096 
     66 H66        14.5845  -25.2011  -44.7999 H         1 UNK         0.1121 
     67 H67        14.0864  -26.3763  -46.8511 H         1 UNK         0.0849 
     68 H68        15.7378  -26.7055  -46.4337 H         1 UNK         0.0849 
     69 H69        16.0034  -28.6835  -47.9801 H         1 UNK         0.0865 
     70 H70        15.5760  -30.3032  -47.4996 H         1 UNK         0.0865 
     71 H71        16.0501  -30.1783  -44.4984 H         1 UNK         0.1346 
     72 H72        20.3259  -30.0703  -44.2329 H         1 UNK         0.1412 
     73 H73        18.3778  -28.7717  -47.8172 H         1 UNK         0.1426 
     74 H74        21.5992  -29.7916  -46.3372 H         1 UNK         0.0716 
     75 H75        20.7828  -29.3111  -47.7971 H         1 UNK         0.0716 
     76 H76        22.1047  -28.4230  -44.4253 H         1 UNK         0.0695 
     77 H77        23.2476  -27.2475  -45.0178 H         1 UNK         0.0695 
     78 H78        21.5235  -25.4107  -44.4303 H         1 UNK         0.0983 
     79 H79        20.2554  -27.4518  -42.6936 H         1 UNK         0.3095 
     80 H80        17.8935  -27.6788  -42.9049 H         1 UNK         0.0454 
     81 H81        17.7630  -24.8916  -41.6016 H         1 UNK         0.0851 
     82 H82        16.9264  -26.3306  -41.0201 H         1 UNK         0.0851 
     83 H83        18.6782  -26.2593  -40.9791 H         1 UNK         0.0851 
     84 H84        16.8932  -25.5151  -44.4672 H         1 UNK         0.2976 
     85 H85        23.5213  -24.7236  -43.6653 H         1 UNK         0.3116 
     86 H86        23.8081  -24.8419  -40.7715 H         1 UNK         0.0646 
     87 H87        25.4695  -23.0359  -41.1744 H         1 UNK         0.0847 
     88 H88        23.9746  -22.6967  -42.0263 H         1 UNK         0.0847 
     89 H89        25.3782  -23.3012  -42.9089 H         1 UNK         0.0847 
     90 H90        25.1042  -26.7482  -43.2616 H         1 UNK         0.3040 
     91 H91        27.7950  -27.1236  -42.3541 H         1 UNK         0.1015 
     92 H92        27.1881  -27.6631  -44.6583 H         1 UNK         0.0786 
     93 H93        25.9608  -28.8115  -44.1408 H         1 UNK         0.0786 
     94 H94        27.6640  -29.1610  -43.8778 H         1 UNK         0.0786 
     95 H95        28.7304  -28.8528  -41.2601 H         1 UNK         0.3172 
     96 H96        27.5654  -29.5289  -38.8329 H         1 UNK         0.0595 
     97 H97        29.5843  -30.9842  -38.5468 H         1 UNK         0.0839 
     98 H98        30.0032  -29.4027  -39.1821 H         1 UNK         0.0839 
     99 H99        29.9619  -30.8041  -40.2534 H         1 UNK         0.0839 
    100 H100       26.0055  -30.8549  -38.3553 H         1 UNK         0.2998 
    101 H101       24.6041  -32.5336  -38.1551 H         1 UNK         0.0822 
    102 H102       25.4174  -34.8464  -38.3548 H         1 UNK         0.0787 
    103 H103       26.7699  -34.3372  -39.3531 H         1 UNK         0.0787 
    104 H104       26.6828  -33.8496  -37.6607 H         1 UNK         0.0787 
    105 H105       24.6906  -31.0406  -40.8283 H         1 UNK         0.3055 
    106 H106       23.9019  -32.7802  -42.9017 H         1 UNK         0.1106 
    107 H107       23.0713  -30.6851  -43.9960 H         1 UNK         0.0828 
    108 H108       23.2466  -29.8144  -42.4745 H         1 UNK         0.0828 
    109 H109       24.6643  -30.4736  -43.2922 H         1 UNK         0.0828 
    110 H110       22.0115  -31.5966  -40.2300 H         1 UNK         0.2931 
    111 H111       19.5720  -32.9178  -41.3171 H         1 UNK         0.0412 
    112 H112       21.1004  -34.7325  -38.2613 H         1 UNK         0.3472 
    113 H113       21.9760  -33.9973  -39.5827 H         1 UNK         0.3472 
    114 H114       19.5659  -30.5962  -39.3365 H         1 UNK         0.0970 
    115 H115       18.1669  -31.3846  -40.0156 H         1 UNK         0.0970 
    116 H116       17.0750  -30.6782  -42.4091 H         1 UNK         0.0612 
    117 H117       18.3507  -31.7898  -42.8597 H         1 UNK         0.0612 
@<TRIPOS>BOND
     1    1    2 1    
     2    1   62 1    
     3    1   63 1    
     4    1   64 1    
     5    2    3 2    
     6    2    4 am   BACKBONE|DICT|INTERRES
     7    4    5 1    
     8    4   65 1    
     9    5    6 1    
    10    5   25 1    
    11    5   66 1    
    12    6    7 1    
    13    6   67 1    
    14    6   68 1    
    15    7    8 1    
    16    8    9 1    
    17    8   69 1    
    18    8   70 1    
    19    9   10 ar   
    20    9   14 ar   
    21   10   11 ar   
    22   10   71 1    
    23   11   12 ar   
    24   11   61 1    
    25   12   13 ar   
    26   12   72 1    
    27   13   14 ar   
    28   13   15 1    
    29   14   73 1    
    30   15   16 1    
    31   15   74 1    
    32   15   75 1    
    33   16   17 1    
    34   17   18 1    
    35   17   76 1    
    36   17   77 1    
    37   18   19 1    
    38   18   27 1    
    39   18   78 1    
    40   19   20 am   BACKBONE|DICT|INTERRES
    41   19   79 1    
    42   20   21 2    
    43   20   22 1    
    44   22   23 1    
    45   22   24 1    
    46   22   80 1    
    47   23   81 1    
    48   23   82 1    
    49   23   83 1    
    50   24   25 am   BACKBONE|DICT|INTERRES
    51   24   84 1    
    52   25   26 2    
    53   27   28 2    
    54   27   29 am   BACKBONE|DICT|INTERRES
    55   29   30 1    
    56   29   85 1    
    57   30   31 1    
    58   30   32 1    
    59   30   86 1    
    60   31   87 1    
    61   31   88 1    
    62   31   89 1    
    63   32   33 2    
    64   32   34 am   BACKBONE|DICT|INTERRES
    65   34   35 1    
    66   34   90 1    
    67   35   36 1    
    68   35   37 1    
    69   35   91 1    
    70   36   92 1    
    71   36   93 1    
    72   36   94 1    
    73   37   38 2    
    74   37   39 am   BACKBONE|DICT|INTERRES
    75   39   40 1    
    76   39   95 1    
    77   40   41 1    
    78   40   42 1    
    79   40   96 1    
    80   41   97 1    
    81   41   98 1    
    82   41   99 1    
    83   42   43 2    
    84   42   44 am   BACKBONE|DICT|INTERRES
    85   44   45 1    
    86   44  100 1    
    87   45   46 1    
    88   45   47 1    
    89   45  101 1    
    90   46  102 1    
    91   46  103 1    
    92   46  104 1    
    93   47   48 2    
    94   47   49 am   BACKBONE|DICT|INTERRES
    95   49   50 1    
    96   49  105 1    
    97   50   51 1    
    98   50   52 1    
    99   50  106 1    
   100   51  107 1    
   101   51  108 1    
   102   51  109 1    
   103   52   53 2    
   104   52   54 am   BACKBONE|DICT|INTERRES
   105   54   55 1    
   106   54  110 1    
   107   55   56 1    
   108   55   59 1    
   109   55  111 1    
   110   56   57 am   BACKBONE|DICT|INTERRES
   111   56   58 2    
   112   57  112 1    
   113   57  113 1    
   114   59   60 1    
   115   59  114 1    
   116   59  115 1    
   117   60   61 1    
   118   61  116 1    
   119   61  117 1    
@<TRIPOS>SUBSTRUCTURE
     1 UNK         1 GROUP             0       ****    0 ROOT    
