@<TRIPOS>MOLECULE
3R8
117   119    1
SMALL
USER_CHARGES


@<TRIPOS>ATOM
      1 CA         19.7287  -22.8696  -48.3619 C.3       0 UNK        -0.2013 
      2 C          18.2559  -23.2099  -48.1447 C.2       0 UNK         0.4866 
      3 O          17.3984  -22.3702  -48.4122 O.2       0 UNK        -0.5176 
      4 N          17.9045  -24.4182  -47.6819 N.am      1 UNK        -0.4884 
      5 CA         18.8001  -25.4927  -47.2376 C.3       1 UNK         0.0853 
      6 C6         18.0407  -26.8395  -47.1563 C.3       10 UNK        -0.0849 
      7 S7         19.1568  -28.2852  -47.1718 S.3       10 UNK        -0.2776 
      8 C8         17.9948  -29.6388  -46.8128 C.3       10 UNK         0.0316 
      9 C9         17.8270  -29.8828  -45.3182 C.ar      10 UNK        -0.0863 
     10 C10        18.5657  -30.8886  -44.6853 C.ar      10 UNK        -0.1009 
     11 C11        18.3516  -31.1844  -43.3355 C.ar      10 UNK        -0.0712 
     12 C12        17.4149  -30.4441  -42.6091 C.ar      10 UNK        -0.0894 
     13 C13        16.6879  -29.4188  -43.2225 C.ar      10 UNK        -0.0745 
     14 C14        16.8914  -29.1510  -44.5794 C.ar      10 UNK        -0.0972 
     15 C15        15.6469  -28.6338  -42.4344 C.3       10 UNK         0.0209 
     16 S16        16.3553  -27.7844  -40.9870 S.3       10 UNK        -0.2568 
     17 C17        17.4516  -26.5427  -41.7577 C.3       10 UNK        -0.0983 
     18 CA         18.9440  -26.9709  -41.7978 C.3       3 UNK         0.0876 
     19 N          19.6520  -26.2411  -42.8520 N.am      3 UNK        -0.4424 
     20 C          20.8526  -26.5539  -43.3505 C.2       2 UNK         0.4918 
     21 O          21.4894  -27.5549  -43.0205 O.2       2 UNK        -0.4875 
     22 CA         21.4101  -25.5786  -44.4078 C.3       2 UNK         0.0481 
     23 CB         22.9033  -25.7900  -44.7179 C.3       2 UNK        -0.1831 
     24 N          20.6576  -25.6819  -45.6563 N.am      2 UNK        -0.4498 
     25 C          19.4524  -25.1472  -45.8827 C.2       1 UNK         0.5027 
     26 O          18.8525  -24.4418  -45.0662 O.2       1 UNK        -0.4969 
     27 C          19.6500  -26.8368  -40.4238 C.2       3 UNK         0.5005 
     28 O          20.6341  -26.1042  -40.2904 O.2       3 UNK        -0.5279 
     29 N          19.1318  -27.5611  -39.4213 N.am      4 UNK        -0.4463 
     30 CA         19.6281  -27.6537  -38.0409 C.3       4 UNK         0.0283 
     31 CB         19.5022  -26.2992  -37.3106 C.3       4 UNK        -0.1875 
     32 C          21.0447  -28.2559  -37.9609 C.2       4 UNK         0.4949 
     33 O          21.8752  -27.7894  -37.1804 O.2       4 UNK        -0.5039 
     34 N          21.2819  -29.2865  -38.7865 N.am      5 UNK        -0.4663 
     35 CA         22.5183  -30.0686  -38.9124 C.3       5 UNK         0.0242 
     36 CB         22.8498  -30.8065  -37.5980 C.3       5 UNK        -0.1982 
     37 C          23.7246  -29.2905  -39.4722 C.2       5 UNK         0.5017 
     38 O          24.8472  -29.7880  -39.3803 O.2       5 UNK        -0.5012 
     39 N          23.4980  -28.1224  -40.0927 N.am      6 UNK        -0.4439 
     40 CA         24.5364  -27.3698  -40.8070 C.3       6 UNK         0.0297 
     41 CB         24.0629  -25.9313  -41.0576 C.3       6 UNK        -0.2006 
     42 C          24.9920  -28.0772  -42.1007 C.2       6 UNK         0.4892 
     43 O          26.1756  -28.0244  -42.4329 O.2       6 UNK        -0.5089 
     44 N          24.0695  -28.7995  -42.7532 N.am      7 UNK        -0.4243 
     45 CA         24.3225  -29.7556  -43.8382 C.3       7 UNK         0.0196 
     46 CB         23.0417  -29.8919  -44.6867 C.3       7 UNK        -0.2007 
     47 C          24.7711  -31.1435  -43.3291 C.2       7 UNK         0.5020 
     48 O          24.6866  -32.1132  -44.0839 O.2       7 UNK        -0.5147 
     49 N          25.1719  -31.2478  -42.0529 N.am      8 UNK        -0.4734 
     50 CA         25.4709  -32.4543  -41.2668 C.3       8 UNK         0.0238 
     51 CB         26.5667  -33.3263  -41.9116 C.3       8 UNK        -0.1912 
     52 C          24.2168  -33.2747  -40.9215 C.2       8 UNK         0.5038 
     53 O          24.0466  -33.6422  -39.7591 O.2       8 UNK        -0.5046 
     54 N          23.3579  -33.5191  -41.9199 N.am      9 UNK        -0.4200 
     55 CA         22.0662  -34.2199  -41.8187 C.3       9 UNK         0.0839 
     56 C          22.1684  -35.7180  -41.3929 C.2       9 UNK         0.5513 
     57 N          23.3147  -36.3698  -41.5488 N.am      9 UNK        -0.7519 
     58 O          21.1900  -36.3135  -40.9486 O.2       9 UNK        -0.4960 
     59 C59        21.0164  -33.4167  -40.9951 C.3       10 UNK        -0.0876 
     60 S60        20.5687  -31.8279  -41.7823 S.3       10 UNK        -0.2414 
     61 C61        19.0739  -32.3493  -42.6771 C.3       10 UNK         0.0169 
     62 H62        20.2583  -22.8016  -47.4124 H         1 UNK         0.0903 
     63 H63        20.2193  -23.6110  -48.9912 H         1 UNK         0.0903 
     64 H64        19.8249  -21.9054  -48.8610 H         1 UNK         0.0903 
     65 H65        16.9217  -24.5934  -47.5278 H         1 UNK         0.3096 
     66 H66        19.5886  -25.5964  -47.9856 H         1 UNK         0.1121 
     67 H67        17.3985  -26.8667  -46.2758 H         1 UNK         0.0849 
     68 H68        17.3768  -26.9443  -48.0164 H         1 UNK         0.0849 
     69 H69        17.0272  -29.4331  -47.2734 H         1 UNK         0.0865 
     70 H70        18.3640  -30.5455  -47.2946 H         1 UNK         0.0865 
     71 H71        19.2821  -31.4674  -45.2522 H         1 UNK         0.1346 
     72 H72        17.2405  -30.6750  -41.5670 H         1 UNK         0.1412 
     73 H73        16.3003  -28.3883  -45.0653 H         1 UNK         0.1426 
     74 H74        14.8745  -29.3234  -42.0914 H         1 UNK         0.0716 
     75 H75        15.1432  -27.9007  -43.0663 H         1 UNK         0.0716 
     76 H76        17.0855  -26.3630  -42.7703 H         1 UNK         0.0695 
     77 H77        17.3333  -25.5932  -41.2321 H         1 UNK         0.0695 
     78 H78        18.9943  -28.0263  -42.0746 H         1 UNK         0.0983 
     79 H79        19.1985  -25.4109  -43.2133 H         1 UNK         0.3095 
     80 H80        21.3016  -24.5677  -44.0088 H         1 UNK         0.0454 
     81 H81        23.0951  -26.7549  -45.1825 H         1 UNK         0.0851 
     82 H82        23.2752  -25.0203  -45.3942 H         1 UNK         0.0851 
     83 H83        23.5103  -25.7381  -43.8169 H         1 UNK         0.0851 
     84 H84        21.0416  -26.3064  -46.3519 H         1 UNK         0.2976 
     85 H85        18.2942  -28.0941  -39.6234 H         1 UNK         0.3116 
     86 H86        18.9724  -28.3599  -37.5294 H         1 UNK         0.0646 
     87 H87        19.7404  -26.4040  -36.2514 H         1 UNK         0.0847 
     88 H88        18.4882  -25.9053  -37.3760 H         1 UNK         0.0847 
     89 H89        20.1806  -25.5506  -37.7208 H         1 UNK         0.0847 
     90 H90        20.5287  -29.5718  -39.3977 H         1 UNK         0.3040 
     91 H91        22.3109  -30.8351  -39.6588 H         1 UNK         0.1015 
     92 H92        21.9933  -31.3742  -37.2347 H         1 UNK         0.0786 
     93 H93        23.1573  -30.1178  -36.8108 H         1 UNK         0.0786 
     94 H94        23.6650  -31.5168  -37.7433 H         1 UNK         0.0786 
     95 H95        22.5554  -27.7549  -40.1214 H         1 UNK         0.3172 
     96 H96        25.4121  -27.3099  -40.1568 H         1 UNK         0.0595 
     97 H97        23.9525  -25.3884  -40.1188 H         1 UNK         0.0839 
     98 H98        23.0994  -25.9021  -41.5624 H         1 UNK         0.0839 
     99 H99        24.7793  -25.3794  -41.6676 H         1 UNK         0.0839 
    100 H100       23.0989  -28.6921  -42.4771 H         1 UNK         0.2998 
    101 H101       25.1201  -29.3677  -44.4749 H         1 UNK         0.0822 
    102 H102       22.7109  -28.9349  -45.0829 H         1 UNK         0.0787 
    103 H103       23.1994  -30.5476  -45.5439 H         1 UNK         0.0787 
    104 H104       22.2177  -30.3080  -44.1049 H         1 UNK         0.0787 
    105 H105       25.1814  -30.3958  -41.5054 H         1 UNK         0.3055 
    106 H106       25.8699  -32.0916  -40.3178 H         1 UNK         0.1106 
    107 H107       26.2381  -33.7854  -42.8440 H         1 UNK         0.0828 
    108 H108       27.4631  -32.7433  -42.1225 H         1 UNK         0.0828 
    109 H109       26.8578  -34.1363  -41.2416 H         1 UNK         0.0828 
    110 H110       23.6121  -33.1769  -42.8414 H         1 UNK         0.2931 
    111 H111       21.6936  -34.2688  -42.8424 H         1 UNK         0.0412 
    112 H112       23.3716  -37.3406  -41.2829 H         1 UNK         0.3472 
    113 H113       24.1223  -35.9001  -41.9253 H         1 UNK         0.3472 
    114 H114       21.3887  -33.2178  -39.9893 H         1 UNK         0.0970 
    115 H115       20.1035  -33.9971  -40.8525 H         1 UNK         0.0970 
    116 H116       19.3488  -33.0943  -43.4255 H         1 UNK         0.0612 
    117 H117       18.3923  -32.8472  -41.9858 H         1 UNK         0.0612 
@<TRIPOS>BOND
     1    1    2 1    
     2    1   62 1    
     3    1   63 1    
     4    1   64 1    
     5    2    3 2    
     6    2    4 am   BACKBONE|DICT|INTERRES
     7    4    5 1    
     8    4   65 1    
     9    5    6 1    
    10    5   25 1    
    11    5   66 1    
    12    6    7 1    
    13    6   67 1    
    14    6   68 1    
    15    7    8 1    
    16    8    9 1    
    17    8   69 1    
    18    8   70 1    
    19    9   10 ar   
    20    9   14 ar   
    21   10   11 ar   
    22   10   71 1    
    23   11   12 ar   
    24   11   61 1    
    25   12   13 ar   
    26   12   72 1    
    27   13   14 ar   
    28   13   15 1    
    29   14   73 1    
    30   15   16 1    
    31   15   74 1    
    32   15   75 1    
    33   16   17 1    
    34   17   18 1    
    35   17   76 1    
    36   17   77 1    
    37   18   19 1    
    38   18   27 1    
    39   18   78 1    
    40   19   20 am   BACKBONE|DICT|INTERRES
    41   19   79 1    
    42   20   21 2    
    43   20   22 1    
    44   22   23 1    
    45   22   24 1    
    46   22   80 1    
    47   23   81 1    
    48   23   82 1    
    49   23   83 1    
    50   24   25 am   BACKBONE|DICT|INTERRES
    51   24   84 1    
    52   25   26 2    
    53   27   28 2    
    54   27   29 am   BACKBONE|DICT|INTERRES
    55   29   30 1    
    56   29   85 1    
    57   30   31 1    
    58   30   32 1    
    59   30   86 1    
    60   31   87 1    
    61   31   88 1    
    62   31   89 1    
    63   32   33 2    
    64   32   34 am   BACKBONE|DICT|INTERRES
    65   34   35 1    
    66   34   90 1    
    67   35   36 1    
    68   35   37 1    
    69   35   91 1    
    70   36   92 1    
    71   36   93 1    
    72   36   94 1    
    73   37   38 2    
    74   37   39 am   BACKBONE|DICT|INTERRES
    75   39   40 1    
    76   39   95 1    
    77   40   41 1    
    78   40   42 1    
    79   40   96 1    
    80   41   97 1    
    81   41   98 1    
    82   41   99 1    
    83   42   43 2    
    84   42   44 am   BACKBONE|DICT|INTERRES
    85   44   45 1    
    86   44  100 1    
    87   45   46 1    
    88   45   47 1    
    89   45  101 1    
    90   46  102 1    
    91   46  103 1    
    92   46  104 1    
    93   47   48 2    
    94   47   49 am   BACKBONE|DICT|INTERRES
    95   49   50 1    
    96   49  105 1    
    97   50   51 1    
    98   50   52 1    
    99   50  106 1    
   100   51  107 1    
   101   51  108 1    
   102   51  109 1    
   103   52   53 2    
   104   52   54 am   BACKBONE|DICT|INTERRES
   105   54   55 1    
   106   54  110 1    
   107   55   56 1    
   108   55   59 1    
   109   55  111 1    
   110   56   57 am   BACKBONE|DICT|INTERRES
   111   56   58 2    
   112   57  112 1    
   113   57  113 1    
   114   59   60 1    
   115   59  114 1    
   116   59  115 1    
   117   60   61 1    
   118   61  116 1    
   119   61  117 1    
@<TRIPOS>SUBSTRUCTURE
     1 UNK         1 GROUP             0       ****    0 ROOT    
