@<TRIPOS>MOLECULE
3R8
117   119    1
SMALL
USER_CHARGES


@<TRIPOS>ATOM
      1 CA         17.3417  -24.7078  -39.8818 C.3       0 UNK        -0.2013 
      2 C          17.7540  -26.1414  -39.5600 C.2       0 UNK         0.4866 
      3 O          18.1741  -26.4118  -38.4373 O.2       0 UNK        -0.5176 
      4 N          17.6553  -27.0945  -40.4967 N.am      1 UNK        -0.4884 
      5 CA         17.3060  -26.9188  -41.9123 C.3       1 UNK         0.0853 
      6 C6         16.8138  -28.2520  -42.5232 C.3       10 UNK        -0.0849 
      7 S7         15.5716  -27.9962  -43.8317 S.3       10 UNK        -0.2776 
      8 C8         15.2723  -29.7144  -44.3586 C.3       10 UNK         0.0316 
      9 C9         16.5326  -30.3414  -44.9337 C.ar      10 UNK        -0.0863 
     10 C10        17.2117  -31.3450  -44.2360 C.ar      10 UNK        -0.1009 
     11 C11        18.3986  -31.8817  -44.7447 C.ar      10 UNK        -0.0712 
     12 C12        18.9034  -31.4100  -45.9603 C.ar      10 UNK        -0.0894 
     13 C13        18.2375  -30.3967  -46.6566 C.ar      10 UNK        -0.0745 
     14 C14        17.0435  -29.8813  -46.1487 C.ar      10 UNK        -0.0972 
     15 C15        18.8167  -29.8209  -47.9375 C.3       10 UNK         0.0209 
     16 S16        19.5777  -28.1953  -47.6317 S.3       10 UNK        -0.2568 
     17 C17        21.1349  -28.6892  -46.8298 C.3       10 UNK        -0.0983 
     18 CA         21.8003  -27.5129  -46.0795 C.3       3 UNK         0.0876 
     19 N          21.1238  -27.1756  -44.8174 N.am      3 UNK        -0.4424 
     20 C          21.4609  -26.1141  -44.0700 C.2       2 UNK         0.4918 
     21 O          22.2053  -25.2174  -44.4735 O.2       2 UNK        -0.4875 
     22 CA         20.9985  -26.0957  -42.6022 C.3       2 UNK         0.0481 
     23 CB         21.0571  -24.6887  -41.9682 C.3       2 UNK        -0.1831 
     24 N          19.7120  -26.7385  -42.3228 N.am      2 UNK        -0.4498 
     25 C          18.4942  -26.3164  -42.6964 C.2       1 UNK         0.5027 
     26 O          18.2942  -25.4320  -43.5288 O.2       1 UNK        -0.4969 
     27 C          23.2747  -27.8428  -45.7752 C.2       3 UNK         0.5005 
     28 O          23.5348  -28.6708  -44.8995 O.2       3 UNK        -0.5279 
     29 N          24.2044  -27.1366  -46.4373 N.am      4 UNK        -0.4463 
     30 CA         25.6599  -27.1832  -46.2185 C.3       4 UNK         0.0283 
     31 CB         26.2335  -28.5286  -46.7125 C.3       4 UNK        -0.1875 
     32 C          26.0851  -26.8651  -44.7654 C.2       4 UNK         0.4949 
     33 O          27.1439  -27.3176  -44.3289 O.2       4 UNK        -0.5039 
     34 N          25.2377  -26.1159  -44.0396 N.am      5 UNK        -0.4663 
     35 CA         25.3262  -25.7945  -42.6095 C.3       5 UNK         0.0242 
     36 CB         26.5481  -24.8961  -42.3210 C.3       5 UNK        -0.1982 
     37 C          25.2615  -27.0291  -41.6816 C.2       5 UNK         0.5017 
     38 O          25.7377  -26.9554  -40.5483 O.2       5 UNK        -0.5012 
     39 N          24.6562  -28.1335  -42.1491 N.am      6 UNK        -0.4439 
     40 CA         24.5491  -29.4029  -41.4162 C.3       6 UNK         0.0297 
     41 CB         24.3327  -30.5438  -42.4245 C.3       6 UNK        -0.2006 
     42 C          23.4547  -29.4277  -40.3290 C.2       6 UNK         0.4892 
     43 O          23.2887  -30.4610  -39.6787 O.2       6 UNK        -0.5089 
     44 N          22.7193  -28.3186  -40.1564 N.am      7 UNK        -0.4243 
     45 CA         21.5888  -28.1310  -39.2403 C.3       7 UNK         0.0196 
     46 CB         22.0690  -28.1239  -37.7709 C.3       7 UNK        -0.2007 
     47 C          20.4654  -29.1411  -39.5366 C.2       7 UNK         0.5020 
     48 O          19.8428  -29.0415  -40.5945 O.2       7 UNK        -0.5147 
     49 N          20.2323  -30.0901  -38.6227 N.am      8 UNK        -0.4734 
     50 CA         19.2601  -31.1778  -38.7694 C.3       8 UNK         0.0238 
     51 CB         18.8213  -31.6354  -37.3673 C.3       8 UNK        -0.1912 
     52 C          19.7835  -32.3712  -39.5953 C.2       8 UNK         0.5038 
     53 O          19.0242  -33.3171  -39.8094 O.2       8 UNK        -0.5046 
     54 N          21.0537  -32.3242  -40.0225 N.am      9 UNK        -0.4200 
     55 CA         21.7678  -33.3620  -40.7878 C.3       9 UNK         0.0839 
     56 C          22.1687  -34.6140  -39.9513 C.2       9 UNK         0.5513 
     57 N          22.1136  -34.5713  -38.6252 N.am      9 UNK        -0.7519 
     58 O          22.5644  -35.6350  -40.5085 O.2       9 UNK        -0.4960 
     59 C59        21.0928  -33.7439  -42.1387 C.3       10 UNK        -0.0876 
     60 S60        20.6322  -32.3075  -43.1685 S.3       10 UNK        -0.2414 
     61 C61        19.1391  -32.9636  -43.9758 C.3       10 UNK         0.0169 
     62 H62        16.3011  -24.6632  -40.2014 H         1 UNK         0.0903 
     63 H63        17.4412  -24.0766  -38.9989 H         1 UNK         0.0903 
     64 H64        17.9710  -24.2827  -40.6627 H         1 UNK         0.0903 
     65 H65        17.9947  -28.0192  -40.2611 H         1 UNK         0.3096 
     66 H66        16.4856  -26.2005  -41.9640 H         1 UNK         0.1121 
     67 H67        16.3347  -28.8654  -41.7578 H         1 UNK         0.0849 
     68 H68        17.6483  -28.8483  -42.8983 H         1 UNK         0.0849 
     69 H69        14.8957  -30.2935  -43.5138 H         1 UNK         0.0865 
     70 H70        14.4850  -29.7254  -45.1139 H         1 UNK         0.0865 
     71 H71        16.8269  -31.6964  -43.2882 H         1 UNK         0.1346 
     72 H72        19.8301  -31.8128  -46.3459 H         1 UNK         0.1412 
     73 H73        16.5335  -29.0879  -46.6787 H         1 UNK         0.1426 
     74 H74        18.0221  -29.7076  -48.6765 H         1 UNK         0.0716 
     75 H75        19.5516  -30.4974  -48.3767 H         1 UNK         0.0716 
     76 H76        20.9610  -29.5223  -46.1473 H         1 UNK         0.0695 
     77 H77        21.7879  -29.0706  -47.6179 H         1 UNK         0.0695 
     78 H78        21.7698  -26.6306  -46.7231 H         1 UNK         0.0983 
     79 H79        20.5308  -27.8875  -44.4178 H         1 UNK         0.3095 
     80 H80        21.7357  -26.7030  -42.0809 H         1 UNK         0.0454 
     81 H81        22.0612  -24.2676  -42.0273 H         1 UNK         0.0851 
     82 H82        20.7841  -24.7156  -40.9133 H         1 UNK         0.0851 
     83 H83        20.3862  -23.9914  -42.4709 H         1 UNK         0.0851 
     84 H84        19.7472  -27.5236  -41.6746 H         1 UNK         0.2976 
     85 H85        23.8926  -26.4551  -47.1168 H         1 UNK         0.3116 
     86 H86        26.0887  -26.3932  -46.8367 H         1 UNK         0.0646 
     87 H87        25.8995  -29.3617  -46.0930 H         1 UNK         0.0847 
     88 H88        27.3240  -28.5238  -46.6886 H         1 UNK         0.0847 
     89 H89        25.9361  -28.7345  -47.7405 H         1 UNK         0.0847 
     90 H90        24.3944  -25.7908  -44.4988 H         1 UNK         0.3040 
     91 H91        24.4344  -25.2092  -42.3805 H         1 UNK         0.1015 
     92 H92        27.4875  -25.4346  -42.4491 H         1 UNK         0.0786 
     93 H93        26.5272  -24.5220  -41.2966 H         1 UNK         0.0786 
     94 H94        26.5664  -24.0275  -42.9792 H         1 UNK         0.0786 
     95 H95        24.3074  -28.1417  -43.1043 H         1 UNK         0.3172 
     96 H96        25.5009  -29.5835  -40.9123 H         1 UNK         0.0595 
     97 H97        23.3448  -30.4933  -42.8849 H         1 UNK         0.0839 
     98 H98        24.4173  -31.5160  -41.9390 H         1 UNK         0.0839 
     99 H99        25.0753  -30.5191  -43.2224 H         1 UNK         0.0839 
    100 H100       22.9447  -27.5313  -40.7442 H         1 UNK         0.2998 
    101 H101       21.1715  -27.1451  -39.4514 H         1 UNK         0.0822 
    102 H102       21.2384  -27.9429  -37.0870 H         1 UNK         0.0787 
    103 H103       22.5443  -29.0612  -37.4800 H         1 UNK         0.0787 
    104 H104       22.7947  -27.3275  -37.6054 H         1 UNK         0.0787 
    105 H105       20.8078  -30.1025  -37.7925 H         1 UNK         0.3055 
    106 H106       18.3809  -30.7958  -39.2934 H         1 UNK         0.1106 
    107 H107       18.3939  -30.8107  -36.7967 H         1 UNK         0.0828 
    108 H108       18.0572  -32.4117  -37.4285 H         1 UNK         0.0828 
    109 H109       19.6551  -32.0442  -36.7954 H         1 UNK         0.0828 
    110 H110       21.6197  -31.5165  -39.7823 H         1 UNK         0.2931 
    111 H111       22.7201  -32.8982  -41.0417 H         1 UNK         0.0412 
    112 H112       22.3847  -35.3827  -38.0920 H         1 UNK         0.3472 
    113 H113       21.8103  -33.7341  -38.1546 H         1 UNK         0.3472 
    114 H114       20.2095  -34.3556  -41.9495 H         1 UNK         0.0970 
    115 H115       21.7637  -34.3684  -42.7313 H         1 UNK         0.0970 
    116 H116       18.4830  -33.4021  -43.2220 H         1 UNK         0.0612 
    117 H117       19.4200  -33.7715  -44.6530 H         1 UNK         0.0612 
@<TRIPOS>BOND
     1    1    2 1    
     2    1   62 1    
     3    1   63 1    
     4    1   64 1    
     5    2    3 2    
     6    2    4 am   BACKBONE|DICT|INTERRES
     7    4    5 1    
     8    4   65 1    
     9    5    6 1    
    10    5   25 1    
    11    5   66 1    
    12    6    7 1    
    13    6   67 1    
    14    6   68 1    
    15    7    8 1    
    16    8    9 1    
    17    8   69 1    
    18    8   70 1    
    19    9   10 ar   
    20    9   14 ar   
    21   10   11 ar   
    22   10   71 1    
    23   11   12 ar   
    24   11   61 1    
    25   12   13 ar   
    26   12   72 1    
    27   13   14 ar   
    28   13   15 1    
    29   14   73 1    
    30   15   16 1    
    31   15   74 1    
    32   15   75 1    
    33   16   17 1    
    34   17   18 1    
    35   17   76 1    
    36   17   77 1    
    37   18   19 1    
    38   18   27 1    
    39   18   78 1    
    40   19   20 am   BACKBONE|DICT|INTERRES
    41   19   79 1    
    42   20   21 2    
    43   20   22 1    
    44   22   23 1    
    45   22   24 1    
    46   22   80 1    
    47   23   81 1    
    48   23   82 1    
    49   23   83 1    
    50   24   25 am   BACKBONE|DICT|INTERRES
    51   24   84 1    
    52   25   26 2    
    53   27   28 2    
    54   27   29 am   BACKBONE|DICT|INTERRES
    55   29   30 1    
    56   29   85 1    
    57   30   31 1    
    58   30   32 1    
    59   30   86 1    
    60   31   87 1    
    61   31   88 1    
    62   31   89 1    
    63   32   33 2    
    64   32   34 am   BACKBONE|DICT|INTERRES
    65   34   35 1    
    66   34   90 1    
    67   35   36 1    
    68   35   37 1    
    69   35   91 1    
    70   36   92 1    
    71   36   93 1    
    72   36   94 1    
    73   37   38 2    
    74   37   39 am   BACKBONE|DICT|INTERRES
    75   39   40 1    
    76   39   95 1    
    77   40   41 1    
    78   40   42 1    
    79   40   96 1    
    80   41   97 1    
    81   41   98 1    
    82   41   99 1    
    83   42   43 2    
    84   42   44 am   BACKBONE|DICT|INTERRES
    85   44   45 1    
    86   44  100 1    
    87   45   46 1    
    88   45   47 1    
    89   45  101 1    
    90   46  102 1    
    91   46  103 1    
    92   46  104 1    
    93   47   48 2    
    94   47   49 am   BACKBONE|DICT|INTERRES
    95   49   50 1    
    96   49  105 1    
    97   50   51 1    
    98   50   52 1    
    99   50  106 1    
   100   51  107 1    
   101   51  108 1    
   102   51  109 1    
   103   52   53 2    
   104   52   54 am   BACKBONE|DICT|INTERRES
   105   54   55 1    
   106   54  110 1    
   107   55   56 1    
   108   55   59 1    
   109   55  111 1    
   110   56   57 am   BACKBONE|DICT|INTERRES
   111   56   58 2    
   112   57  112 1    
   113   57  113 1    
   114   59   60 1    
   115   59  114 1    
   116   59  115 1    
   117   60   61 1    
   118   61  116 1    
   119   61  117 1    
@<TRIPOS>SUBSTRUCTURE
     1 UNK         1 GROUP             0       ****    0 ROOT    
