@<TRIPOS>MOLECULE
3R8
117   119    1
SMALL
USER_CHARGES


@<TRIPOS>ATOM
      1 CA         11.9928  -25.8627  -41.6240 C.3       0 UNK        -0.2013 
      2 C          13.2472  -25.6990  -42.4694 C.2       0 UNK         0.4866 
      3 O          13.9502  -24.6970  -42.3338 O.2       0 UNK        -0.5176 
      4 N          13.5285  -26.6704  -43.3472 N.am      1 UNK        -0.4884 
      5 CA         14.7313  -26.7124  -44.1847 C.3       1 UNK         0.0853 
      6 C6         14.5306  -27.6666  -45.3881 C.3       10 UNK        -0.0849 
      7 S7         15.7687  -27.4328  -46.7131 S.3       10 UNK        -0.2776 
      8 C8         16.3207  -29.1401  -47.0352 C.3       10 UNK         0.0316 
      9 C9         17.4406  -29.5878  -46.1031 C.ar      10 UNK        -0.0863 
     10 C10        17.1454  -30.0798  -44.8278 C.ar      10 UNK        -0.1009 
     11 C11        18.1631  -30.5365  -43.9876 C.ar      10 UNK        -0.0712 
     12 C12        19.4829  -30.5378  -44.4482 C.ar      10 UNK        -0.0894 
     13 C13        19.7972  -30.0490  -45.7190 C.ar      10 UNK        -0.0745 
     14 C14        18.7720  -29.5602  -46.5365 C.ar      10 UNK        -0.0972 
     15 C15        21.2321  -30.1215  -46.2292 C.3       10 UNK         0.0209 
     16 S16        22.3971  -29.1160  -45.2526 S.3       10 UNK        -0.2568 
     17 C17        22.0980  -27.4326  -45.8917 C.3       10 UNK        -0.0983 
     18 CA         21.8901  -26.3588  -44.7863 C.3       3 UNK         0.0876 
     19 N          20.7539  -26.6520  -43.9169 N.am      3 UNK        -0.4424 
     20 C          19.4870  -26.3464  -44.2004 C.2       2 UNK         0.4918 
     21 O          19.1341  -25.7634  -45.2305 O.2       2 UNK        -0.4875 
     22 CA         18.4406  -26.7354  -43.1472 C.3       2 UNK         0.0481 
     23 CB         18.5856  -25.8941  -41.8645 C.3       2 UNK        -0.1831 
     24 N          17.1227  -26.5278  -43.7331 N.am      2 UNK        -0.4498 
     25 C          15.9719  -27.0780  -43.3402 C.2       1 UNK         0.5027 
     26 O          15.8651  -27.8470  -42.3807 O.2       1 UNK        -0.4969 
     27 C          23.1161  -26.0167  -43.9136 C.2       3 UNK         0.5005 
     28 O          22.9661  -25.2719  -42.9413 O.2       3 UNK        -0.5279 
     29 N          24.3016  -26.5228  -44.2784 N.am      4 UNK        -0.4463 
     30 CA         25.5727  -26.3044  -43.5806 C.3       4 UNK         0.0283 
     31 CB         26.7164  -26.8196  -44.4715 C.3       4 UNK        -0.1875 
     32 C          25.6243  -26.9763  -42.1959 C.2       4 UNK         0.4949 
     33 O          24.8341  -27.8784  -41.9132 O.2       4 UNK        -0.5039 
     34 N          26.5850  -26.5451  -41.3659 N.am      5 UNK        -0.4663 
     35 CA         26.8543  -27.0924  -40.0305 C.3       5 UNK         0.0242 
     36 CB         28.0398  -26.3421  -39.4029 C.3       5 UNK        -0.1982 
     37 C          27.1311  -28.6065  -40.0659 C.2       5 UNK         0.5017 
     38 O          27.8545  -29.0693  -40.9508 O.2       5 UNK        -0.5012 
     39 N          26.5114  -29.3455  -39.1350 N.am      6 UNK        -0.4439 
     40 CA         26.4603  -30.8120  -39.0090 C.3       6 UNK         0.0297 
     41 CB         27.8647  -31.4302  -38.8625 C.3       6 UNK        -0.2006 
     42 C          25.6499  -31.5207  -40.1142 C.2       6 UNK         0.4892 
     43 O          24.9480  -32.4857  -39.8092 O.2       6 UNK        -0.5089 
     44 N          25.7273  -31.0274  -41.3578 N.am      7 UNK        -0.4243 
     45 CA         24.9593  -31.5023  -42.5124 C.3       7 UNK         0.0196 
     46 CB         25.5154  -30.8614  -43.7934 C.3       7 UNK        -0.2007 
     47 C          23.4492  -31.2335  -42.3916 C.2       7 UNK         0.5020 
     48 O          22.6620  -31.9873  -42.9646 O.2       7 UNK        -0.5147 
     49 N          23.0713  -30.1889  -41.6393 N.am      8 UNK        -0.4734 
     50 CA         21.7065  -29.7448  -41.3320 C.3       8 UNK         0.0238 
     51 CB         21.7759  -28.3475  -40.6860 C.3       8 UNK        -0.1912 
     52 C          20.8767  -30.7363  -40.4827 C.2       8 UNK         0.5038 
     53 O          20.2673  -30.3311  -39.4913 O.2       8 UNK        -0.5046 
     54 N          20.8378  -32.0054  -40.9037 N.am      9 UNK        -0.4200 
     55 CA         20.0329  -33.1045  -40.3458 C.3       9 UNK         0.0839 
     56 C          20.3805  -33.4786  -38.8726 C.2       9 UNK         0.5513 
     57 N          21.5994  -33.2304  -38.4069 N.am      9 UNK        -0.7519 
     58 O          19.5524  -34.0263  -38.1487 O.2       9 UNK        -0.4960 
     59 C59        18.5077  -32.9120  -40.5982 C.3       10 UNK        -0.0876 
     60 S60        18.1144  -32.7951  -42.3803 S.3       10 UNK        -0.2414 
     61 C61        17.8434  -31.0061  -42.5763 C.3       10 UNK         0.0169 
     62 H62        11.4598  -26.7840  -41.8579 H         1 UNK         0.0903 
     63 H63        12.2539  -25.8816  -40.5662 H         1 UNK         0.0903 
     64 H64        11.3146  -25.0267  -41.7928 H         1 UNK         0.0903 
     65 H65        12.9346  -27.4865  -43.3887 H         1 UNK         0.3096 
     66 H66        14.8808  -25.7040  -44.5788 H         1 UNK         0.1121 
     67 H67        14.4958  -28.7055  -45.0606 H         1 UNK         0.0849 
     68 H68        13.5571  -27.4760  -45.8433 H         1 UNK         0.0849 
     69 H69        15.4754  -29.8264  -46.9653 H         1 UNK         0.0865 
     70 H70        16.6596  -29.1986  -48.0708 H         1 UNK         0.0865 
     71 H71        16.1230  -30.1080  -44.4812 H         1 UNK         0.1346 
     72 H72        20.2689  -30.9384  -43.8247 H         1 UNK         0.1412 
     73 H73        19.0056  -29.1914  -47.5260 H         1 UNK         0.1426 
     74 H74        21.2938  -29.8297  -47.2787 H         1 UNK         0.0716 
     75 H75        21.5602  -31.1609  -46.1845 H         1 UNK         0.0716 
     76 H76        22.9182  -27.1561  -46.5560 H         1 UNK         0.0695 
     77 H77        21.2127  -27.4538  -46.5292 H         1 UNK         0.0695 
     78 H78        21.6785  -25.4200  -45.3037 H         1 UNK         0.0983 
     79 H79        20.9877  -27.0724  -43.0306 H         1 UNK         0.3095 
     80 H80        18.5685  -27.7941  -42.9133 H         1 UNK         0.0454 
     81 H81        19.5752  -26.0058  -41.4213 H         1 UNK         0.0851 
     82 H82        18.4375  -24.8322  -42.0640 H         1 UNK         0.0851 
     83 H83        17.8606  -26.1951  -41.1082 H         1 UNK         0.0851 
     84 H84        17.1494  -25.9813  -44.5868 H         1 UNK         0.2976 
     85 H85        24.3143  -27.1829  -45.0427 H         1 UNK         0.3116 
     86 H86        25.6970  -25.2288  -43.4387 H         1 UNK         0.0646 
     87 H87        27.6888  -26.6431  -44.0099 H         1 UNK         0.0847 
     88 H88        26.7257  -26.3150  -45.4377 H         1 UNK         0.0847 
     89 H89        26.6365  -27.8916  -44.6539 H         1 UNK         0.0847 
     90 H90        27.2116  -25.8219  -41.6880 H         1 UNK         0.3040 
     91 H91        25.9654  -26.9103  -39.4226 H         1 UNK         0.1015 
     92 H92        28.9507  -26.4652  -39.9904 H         1 UNK         0.0786 
     93 H93        28.2485  -26.7118  -38.3979 H         1 UNK         0.0786 
     94 H94        27.8357  -25.2745  -39.3174 H         1 UNK         0.0786 
     95 H95        25.9303  -28.8532  -38.4697 H         1 UNK         0.3172 
     96 H96        25.9291  -30.9993  -38.0742 H         1 UNK         0.0595 
     97 H97        27.7959  -32.4954  -38.6377 H         1 UNK         0.0839 
     98 H98        28.4546  -31.3336  -39.7743 H         1 UNK         0.0839 
     99 H99        28.4220  -30.9634  -38.0504 H         1 UNK         0.0839 
    100 H100       26.3494  -30.2397  -41.5089 H         1 UNK         0.2998 
    101 H101       25.0958  -32.5835  -42.5813 H         1 UNK         0.0822 
    102 H102       24.9991  -31.2442  -44.6750 H         1 UNK         0.0787 
    103 H103       25.3839  -29.7795  -43.7880 H         1 UNK         0.0787 
    104 H104       26.5772  -31.0732  -43.9193 H         1 UNK         0.0787 
    105 H105       23.8128  -29.5751  -41.3187 H         1 UNK         0.3055 
    106 H106       21.1821  -29.6319  -42.2802 H         1 UNK         0.1106 
    107 H107       22.2722  -27.6283  -41.3362 H         1 UNK         0.0828 
    108 H108       20.7792  -27.9569  -40.4778 H         1 UNK         0.0828 
    109 H109       22.3201  -28.3712  -39.7412 H         1 UNK         0.0828 
    110 H110       21.4031  -32.2367  -41.7181 H         1 UNK         0.2931 
    111 H111       20.3334  -33.9850  -40.9148 H         1 UNK         0.0412 
    112 H112       22.2985  -32.8047  -38.9969 H         1 UNK         0.3472 
    113 H113       21.8258  -33.4817  -37.4576 H         1 UNK         0.3472 
    114 H114       18.1317  -32.0367  -40.0662 H         1 UNK         0.0970 
    115 H115       17.9478  -33.7624  -40.2055 H         1 UNK         0.0970 
    116 H116       16.8102  -30.7752  -42.3121 H         1 UNK         0.0612 
    117 H117       18.4630  -30.4454  -41.8785 H         1 UNK         0.0612 
@<TRIPOS>BOND
     1    1    2 1    
     2    1   62 1    
     3    1   63 1    
     4    1   64 1    
     5    2    3 2    
     6    2    4 am   BACKBONE|DICT|INTERRES
     7    4    5 1    
     8    4   65 1    
     9    5    6 1    
    10    5   25 1    
    11    5   66 1    
    12    6    7 1    
    13    6   67 1    
    14    6   68 1    
    15    7    8 1    
    16    8    9 1    
    17    8   69 1    
    18    8   70 1    
    19    9   10 ar   
    20    9   14 ar   
    21   10   11 ar   
    22   10   71 1    
    23   11   12 ar   
    24   11   61 1    
    25   12   13 ar   
    26   12   72 1    
    27   13   14 ar   
    28   13   15 1    
    29   14   73 1    
    30   15   16 1    
    31   15   74 1    
    32   15   75 1    
    33   16   17 1    
    34   17   18 1    
    35   17   76 1    
    36   17   77 1    
    37   18   19 1    
    38   18   27 1    
    39   18   78 1    
    40   19   20 am   BACKBONE|DICT|INTERRES
    41   19   79 1    
    42   20   21 2    
    43   20   22 1    
    44   22   23 1    
    45   22   24 1    
    46   22   80 1    
    47   23   81 1    
    48   23   82 1    
    49   23   83 1    
    50   24   25 am   BACKBONE|DICT|INTERRES
    51   24   84 1    
    52   25   26 2    
    53   27   28 2    
    54   27   29 am   BACKBONE|DICT|INTERRES
    55   29   30 1    
    56   29   85 1    
    57   30   31 1    
    58   30   32 1    
    59   30   86 1    
    60   31   87 1    
    61   31   88 1    
    62   31   89 1    
    63   32   33 2    
    64   32   34 am   BACKBONE|DICT|INTERRES
    65   34   35 1    
    66   34   90 1    
    67   35   36 1    
    68   35   37 1    
    69   35   91 1    
    70   36   92 1    
    71   36   93 1    
    72   36   94 1    
    73   37   38 2    
    74   37   39 am   BACKBONE|DICT|INTERRES
    75   39   40 1    
    76   39   95 1    
    77   40   41 1    
    78   40   42 1    
    79   40   96 1    
    80   41   97 1    
    81   41   98 1    
    82   41   99 1    
    83   42   43 2    
    84   42   44 am   BACKBONE|DICT|INTERRES
    85   44   45 1    
    86   44  100 1    
    87   45   46 1    
    88   45   47 1    
    89   45  101 1    
    90   46  102 1    
    91   46  103 1    
    92   46  104 1    
    93   47   48 2    
    94   47   49 am   BACKBONE|DICT|INTERRES
    95   49   50 1    
    96   49  105 1    
    97   50   51 1    
    98   50   52 1    
    99   50  106 1    
   100   51  107 1    
   101   51  108 1    
   102   51  109 1    
   103   52   53 2    
   104   52   54 am   BACKBONE|DICT|INTERRES
   105   54   55 1    
   106   54  110 1    
   107   55   56 1    
   108   55   59 1    
   109   55  111 1    
   110   56   57 am   BACKBONE|DICT|INTERRES
   111   56   58 2    
   112   57  112 1    
   113   57  113 1    
   114   59   60 1    
   115   59  114 1    
   116   59  115 1    
   117   60   61 1    
   118   61  116 1    
   119   61  117 1    
@<TRIPOS>SUBSTRUCTURE
     1 UNK         1 GROUP             0       ****    0 ROOT    
