@<TRIPOS>MOLECULE
3R8
117   119    1
SMALL
USER_CHARGES


@<TRIPOS>ATOM
      1 CA         16.6706  -23.4767  -45.6057 C.3       0 UNK        -0.2013 
      2 C          17.7094  -24.5827  -45.7109 C.2       0 UNK         0.4866 
      3 O          17.9964  -25.2318  -44.7045 O.2       0 UNK        -0.5176 
      4 N          18.2589  -24.7860  -46.9204 N.am      1 UNK        -0.4884 
      5 CA         19.2818  -25.7673  -47.3255 C.3       1 UNK         0.0853 
      6 C6         18.7189  -27.1448  -47.7939 C.3       10 UNK        -0.0849 
      7 S7         17.5292  -27.9508  -46.6671 S.3       10 UNK        -0.2776 
      8 C8         18.4023  -29.4593  -46.1092 C.3       10 UNK         0.0316 
      9 C9         18.1365  -29.8352  -44.6481 C.ar      10 UNK        -0.0863 
     10 C10        19.0368  -30.6808  -43.9914 C.ar      10 UNK        -0.1009 
     11 C11        18.8432  -31.0352  -42.6521 C.ar      10 UNK        -0.0712 
     12 C12        17.7335  -30.5422  -41.9613 C.ar      10 UNK        -0.0894 
     13 C13        16.8282  -29.6914  -42.5989 C.ar      10 UNK        -0.0745 
     14 C14        17.0227  -29.3615  -43.9419 C.ar      10 UNK        -0.0972 
     15 C15        15.6583  -29.0893  -41.8333 C.3       10 UNK         0.0209 
     16 S16        16.1924  -27.7890  -40.6690 S.3       10 UNK        -0.2568 
     17 C17        17.2160  -26.6962  -41.7189 C.3       10 UNK        -0.0983 
     18 CA         18.7341  -26.9684  -41.5306 C.3       3 UNK         0.0876 
     19 N          19.4952  -26.7514  -42.7722 N.am      3 UNK        -0.4424 
     20 C          20.7815  -27.1005  -42.9427 C.2       2 UNK         0.4918 
     21 O          21.4945  -27.4969  -42.0209 O.2       2 UNK        -0.4875 
     22 CA         21.4024  -26.9962  -44.3453 C.3       2 UNK         0.0481 
     23 CB         22.2167  -28.2569  -44.6920 C.3       2 UNK        -0.1831 
     24 N          20.3971  -26.7740  -45.3827 N.am      2 UNK        -0.4498 
     25 C          20.4762  -25.8578  -46.3526 C.2       1 UNK         0.5027 
     26 O          21.4303  -25.0938  -46.5021 O.2       1 UNK        -0.4969 
     27 C          19.2985  -26.2150  -40.3052 C.2       3 UNK         0.5005 
     28 O          19.1600  -26.6929  -39.1782 O.2       3 UNK        -0.5279 
     29 N          19.9515  -25.0692  -40.5453 N.am      4 UNK        -0.4463 
     30 CA         20.5992  -24.2481  -39.5199 C.3       4 UNK         0.0283 
     31 CB         20.9576  -22.8809  -40.1254 C.3       4 UNK        -0.1875 
     32 C          21.8487  -24.8955  -38.8910 C.2       4 UNK         0.4949 
     33 O          22.1835  -24.5518  -37.7569 O.2       4 UNK        -0.5039 
     34 N          22.5232  -25.7888  -39.6294 N.am      5 UNK        -0.4663 
     35 CA         23.7829  -26.4217  -39.2181 C.3       5 UNK         0.0242 
     36 CB         24.8716  -26.0463  -40.2395 C.3       5 UNK        -0.1982 
     37 C          23.6870  -27.9511  -39.0952 C.2       5 UNK         0.5017 
     38 O          24.5323  -28.5444  -38.4251 O.2       5 UNK        -0.5012 
     39 N          22.7050  -28.5621  -39.7756 N.am      6 UNK        -0.4439 
     40 CA         22.5324  -30.0016  -40.0142 C.3       6 UNK         0.0297 
     41 CB         22.3199  -30.7845  -38.7022 C.3       6 UNK        -0.2006 
     42 C          23.6412  -30.6069  -40.9012 C.2       6 UNK         0.4892 
     43 O          23.8432  -31.8245  -40.8873 O.2       6 UNK        -0.5089 
     44 N          24.3170  -29.7534  -41.6860 N.am      7 UNK        -0.4243 
     45 CA         25.4675  -30.0523  -42.5463 C.3       7 UNK         0.0196 
     46 CB         26.2149  -28.7372  -42.8375 C.3       7 UNK        -0.2007 
     47 C          25.0899  -30.8165  -43.8321 C.2       7 UNK         0.5020 
     48 O          25.4601  -30.4107  -44.9345 O.2       7 UNK        -0.5147 
     49 N          24.3569  -31.9150  -43.6534 N.am      8 UNK        -0.4734 
     50 CA         23.9043  -32.8603  -44.6723 C.3       8 UNK         0.0238 
     51 CB         22.8459  -32.2261  -45.5962 C.3       8 UNK        -0.1912 
     52 C          23.3463  -34.1113  -43.9839 C.2       8 UNK         0.5038 
     53 O          23.6293  -35.2256  -44.4244 O.2       8 UNK        -0.5046 
     54 N          22.5825  -33.8962  -42.9044 N.am      9 UNK        -0.4200 
     55 CA         22.0301  -34.9440  -42.0363 C.3       9 UNK         0.0839 
     56 C          23.1011  -35.5829  -41.1112 C.2       9 UNK         0.5513 
     57 N          24.0706  -34.8196  -40.6185 N.am      9 UNK        -0.7519 
     58 O          23.0498  -36.7795  -40.8400 O.2       9 UNK        -0.4960 
     59 C59        20.8348  -34.4280  -41.1937 C.3       10 UNK        -0.0876 
     60 S60        19.5067  -33.6840  -42.2026 S.3       10 UNK        -0.2414 
     61 C61        19.8509  -31.9195  -41.9387 C.3       10 UNK         0.0169 
     62 H62        15.7230  -23.8878  -45.2584 H         1 UNK         0.0903 
     63 H63        16.9975  -22.7234  -44.8895 H         1 UNK         0.0903 
     64 H64        16.4966  -22.9840  -46.5620 H         1 UNK         0.0903 
     65 H65        17.9604  -24.1793  -47.6717 H         1 UNK         0.3096 
     66 H66        19.7205  -25.3261  -48.2228 H         1 UNK         0.1121 
     67 H67        18.1887  -26.9952  -48.7356 H         1 UNK         0.0849 
     68 H68        19.5307  -27.8315  -48.0407 H         1 UNK         0.0849 
     69 H69        18.1004  -30.2915  -46.7466 H         1 UNK         0.0865 
     70 H70        19.4760  -29.3370  -46.2558 H         1 UNK         0.0865 
     71 H71        19.8952  -31.0642  -44.5230 H         1 UNK         0.1346 
     72 H72        17.5868  -30.7968  -40.9204 H         1 UNK         0.1412 
     73 H73        16.3063  -28.7094  -44.4202 H         1 UNK         0.1426 
     74 H74        15.1439  -29.8746  -41.2778 H         1 UNK         0.0716 
     75 H75        14.9220  -28.6682  -42.5198 H         1 UNK         0.0716 
     76 H76        16.9667  -25.6555  -41.5028 H         1 UNK         0.0695 
     77 H77        16.9199  -26.8456  -42.7574 H         1 UNK         0.0695 
     78 H78        18.8643  -28.0291  -41.3071 H         1 UNK         0.0983 
     79 H79        18.9816  -26.3292  -43.5443 H         1 UNK         0.3095 
     80 H80        22.0888  -26.1485  -44.3030 H         1 UNK         0.0454 
     81 H81        23.0313  -28.4065  -43.9836 H         1 UNK         0.0851 
     82 H82        21.5998  -29.1551  -44.6728 H         1 UNK         0.0851 
     83 H83        22.6674  -28.1808  -45.6815 H         1 UNK         0.0851 
     84 H84        19.5391  -27.3059  -45.3129 H         1 UNK         0.2976 
     85 H85        20.0145  -24.7487  -41.5013 H         1 UNK         0.3116 
     86 H86        19.8775  -24.0845  -38.7163 H         1 UNK         0.0646 
     87 H87        21.4138  -22.2309  -39.3772 H         1 UNK         0.0847 
     88 H88        20.0725  -22.3663  -40.5002 H         1 UNK         0.0847 
     89 H89        21.6673  -22.9759  -40.9486 H         1 UNK         0.0847 
     90 H90        22.1633  -26.0274  -40.5448 H         1 UNK         0.3040 
     91 H91        24.0982  -26.0530  -38.2391 H         1 UNK         0.1015 
     92 H92        25.0274  -24.9676  -40.2700 H         1 UNK         0.0786 
     93 H93        24.6138  -26.3745  -41.2474 H         1 UNK         0.0786 
     94 H94        25.8288  -26.5018  -39.9802 H         1 UNK         0.0786 
     95 H95        22.0981  -27.9810  -40.3481 H         1 UNK         0.3172 
     96 H96        21.6133  -30.0805  -40.5939 H         1 UNK         0.0595 
     97 H97        21.5309  -30.3382  -38.0971 H         1 UNK         0.0839 
     98 H98        23.2274  -30.8217  -38.0990 H         1 UNK         0.0839 
     99 H99        22.0274  -31.8153  -38.9051 H         1 UNK         0.0839 
    100 H100       24.0237  -28.7882  -41.6642 H         1 UNK         0.2998 
    101 H101       26.1454  -30.7002  -41.9861 H         1 UNK         0.0822 
    102 H102       25.5939  -28.0339  -43.3939 H         1 UNK         0.0787 
    103 H103       27.1130  -28.9189  -43.4295 H         1 UNK         0.0787 
    104 H104       26.5337  -28.2497  -41.9160 H         1 UNK         0.0787 
    105 H105       24.1617  -32.1647  -42.6867 H         1 UNK         0.3055 
    106 H106       24.7662  -33.1625  -45.2713 H         1 UNK         0.1106 
    107 H107       21.9950  -31.8495  -45.0306 H         1 UNK         0.0828 
    108 H108       23.2579  -31.3966  -46.1708 H         1 UNK         0.0828 
    109 H109       22.4666  -32.9552  -46.3136 H         1 UNK         0.0828 
    110 H110       22.3988  -32.9487  -42.6173 H         1 UNK         0.2931 
    111 H111       21.6515  -35.7380  -42.6838 H         1 UNK         0.0412 
    112 H112       24.7677  -35.2342  -40.0206 H         1 UNK         0.3472 
    113 H113       24.0777  -33.8190  -40.7815 H         1 UNK         0.3472 
    114 H114       21.1735  -33.7081  -40.4459 H         1 UNK         0.0970 
    115 H115       20.3935  -35.2530  -40.6309 H         1 UNK         0.0970 
    116 H116       20.8556  -31.6866  -42.2923 H         1 UNK         0.0612 
    117 H117       19.8390  -31.7093  -40.8680 H         1 UNK         0.0612 
@<TRIPOS>BOND
     1    1    2 1    
     2    1   62 1    
     3    1   63 1    
     4    1   64 1    
     5    2    3 2    
     6    2    4 am   BACKBONE|DICT|INTERRES
     7    4    5 1    
     8    4   65 1    
     9    5    6 1    
    10    5   25 1    
    11    5   66 1    
    12    6    7 1    
    13    6   67 1    
    14    6   68 1    
    15    7    8 1    
    16    8    9 1    
    17    8   69 1    
    18    8   70 1    
    19    9   10 ar   
    20    9   14 ar   
    21   10   11 ar   
    22   10   71 1    
    23   11   12 ar   
    24   11   61 1    
    25   12   13 ar   
    26   12   72 1    
    27   13   14 ar   
    28   13   15 1    
    29   14   73 1    
    30   15   16 1    
    31   15   74 1    
    32   15   75 1    
    33   16   17 1    
    34   17   18 1    
    35   17   76 1    
    36   17   77 1    
    37   18   19 1    
    38   18   27 1    
    39   18   78 1    
    40   19   20 am   BACKBONE|DICT|INTERRES
    41   19   79 1    
    42   20   21 2    
    43   20   22 1    
    44   22   23 1    
    45   22   24 1    
    46   22   80 1    
    47   23   81 1    
    48   23   82 1    
    49   23   83 1    
    50   24   25 am   BACKBONE|DICT|INTERRES
    51   24   84 1    
    52   25   26 2    
    53   27   28 2    
    54   27   29 am   BACKBONE|DICT|INTERRES
    55   29   30 1    
    56   29   85 1    
    57   30   31 1    
    58   30   32 1    
    59   30   86 1    
    60   31   87 1    
    61   31   88 1    
    62   31   89 1    
    63   32   33 2    
    64   32   34 am   BACKBONE|DICT|INTERRES
    65   34   35 1    
    66   34   90 1    
    67   35   36 1    
    68   35   37 1    
    69   35   91 1    
    70   36   92 1    
    71   36   93 1    
    72   36   94 1    
    73   37   38 2    
    74   37   39 am   BACKBONE|DICT|INTERRES
    75   39   40 1    
    76   39   95 1    
    77   40   41 1    
    78   40   42 1    
    79   40   96 1    
    80   41   97 1    
    81   41   98 1    
    82   41   99 1    
    83   42   43 2    
    84   42   44 am   BACKBONE|DICT|INTERRES
    85   44   45 1    
    86   44  100 1    
    87   45   46 1    
    88   45   47 1    
    89   45  101 1    
    90   46  102 1    
    91   46  103 1    
    92   46  104 1    
    93   47   48 2    
    94   47   49 am   BACKBONE|DICT|INTERRES
    95   49   50 1    
    96   49  105 1    
    97   50   51 1    
    98   50   52 1    
    99   50  106 1    
   100   51  107 1    
   101   51  108 1    
   102   51  109 1    
   103   52   53 2    
   104   52   54 am   BACKBONE|DICT|INTERRES
   105   54   55 1    
   106   54  110 1    
   107   55   56 1    
   108   55   59 1    
   109   55  111 1    
   110   56   57 am   BACKBONE|DICT|INTERRES
   111   56   58 2    
   112   57  112 1    
   113   57  113 1    
   114   59   60 1    
   115   59  114 1    
   116   59  115 1    
   117   60   61 1    
   118   61  116 1    
   119   61  117 1    
@<TRIPOS>SUBSTRUCTURE
     1 UNK         1 GROUP             0       ****    0 ROOT    
