@<TRIPOS>MOLECULE
3R8
117   119    1
SMALL
USER_CHARGES


@<TRIPOS>ATOM
      1 CA         20.4928  -30.0071  -42.1258 C.3       0 UNK        -0.2013 
      2 C          19.4694  -29.0027  -42.6265 C.2       0 UNK         0.4866 
      3 O          19.6283  -28.4879  -43.7295 O.2       0 UNK        -0.5176 
      4 N          18.4512  -28.6838  -41.8137 N.am      1 UNK        -0.4884 
      5 CA         17.4615  -27.6141  -42.0327 C.3       1 UNK         0.0853 
      6 C6         16.5210  -27.8353  -43.2547 C.3       10 UNK        -0.0849 
      7 S7         15.4370  -29.2908  -43.0715 S.3       10 UNK        -0.2776 
      8 C8         15.4382  -29.9712  -44.7672 C.3       10 UNK         0.0316 
      9 C9         16.7828  -30.5891  -45.1211 C.ar      10 UNK        -0.0863 
     10 C10        17.2218  -31.7199  -44.4331 C.ar      10 UNK        -0.1009 
     11 C11        18.4999  -32.2492  -44.6520 C.ar      10 UNK        -0.0712 
     12 C12        19.3066  -31.6649  -45.6372 C.ar      10 UNK        -0.0894 
     13 C13        18.8560  -30.5679  -46.3824 C.ar      10 UNK        -0.0745 
     14 C14        17.5935  -30.0301  -46.1113 C.ar      10 UNK        -0.0972 
     15 C15        19.7075  -29.9957  -47.5121 C.3       10 UNK         0.0209 
     16 S16        19.9792  -28.1969  -47.3773 S.3       10 UNK        -0.2568 
     17 C17        21.5117  -28.1272  -46.3943 C.3       10 UNK        -0.0983 
     18 CA         21.7949  -26.6932  -45.8775 C.3       3 UNK         0.0876 
     19 N          20.7911  -26.2453  -44.9099 N.am      3 UNK        -0.4424 
     20 C          20.5597  -24.9670  -44.5715 C.2       2 UNK         0.4918 
     21 O          21.1893  -24.0245  -45.0539 O.2       2 UNK        -0.4875 
     22 CA         19.4542  -24.6701  -43.5371 C.3       2 UNK         0.0481 
     23 CB         18.5545  -23.5004  -43.9764 C.3       2 UNK        -0.1831 
     24 N          18.6264  -25.8454  -43.2734 N.am      2 UNK        -0.4498 
     25 C          18.1677  -26.2400  -42.0789 C.2       1 UNK         0.5027 
     26 O          18.3088  -25.5946  -41.0389 O.2       1 UNK        -0.4969 
     27 C          23.1975  -26.5858  -45.2529 C.2       3 UNK         0.5005 
     28 O          23.5952  -27.4657  -44.4853 O.2       3 UNK        -0.5279 
     29 N          23.8969  -25.4793  -45.5536 N.am      4 UNK        -0.4463 
     30 CA         25.2777  -25.1466  -45.1637 C.3       4 UNK         0.0283 
     31 CB         26.2663  -26.0900  -45.8815 C.3       4 UNK        -0.1875 
     32 C          25.5393  -25.1050  -43.6421 C.2       4 UNK         0.4949 
     33 O          26.6995  -25.1421  -43.2303 O.2       4 UNK        -0.5039 
     34 N          24.4644  -25.0566  -42.8393 N.am      5 UNK        -0.4663 
     35 CA         24.4328  -25.2375  -41.3821 C.3       5 UNK         0.0242 
     36 CB         25.0862  -24.0358  -40.6665 C.3       5 UNK        -0.1982 
     37 C          25.0143  -26.5975  -40.9328 C.2       5 UNK         0.5017 
     38 O          25.6204  -26.6770  -39.8629 O.2       5 UNK        -0.5012 
     39 N          24.8300  -27.6415  -41.7599 N.am      6 UNK        -0.4439 
     40 CA         25.3841  -28.9851  -41.5529 C.3       6 UNK         0.0297 
     41 CB         25.1683  -29.8239  -42.8233 C.3       6 UNK        -0.2006 
     42 C          24.8226  -29.7243  -40.3253 C.2       6 UNK         0.4892 
     43 O          25.5216  -30.5714  -39.7689 O.2       6 UNK        -0.5089 
     44 N          23.5777  -29.3995  -39.9401 N.am      7 UNK        -0.4243 
     45 CA         22.8388  -29.9162  -38.7772 C.3       7 UNK         0.0196 
     46 CB         23.5180  -29.4760  -37.4627 C.3       7 UNK        -0.2007 
     47 C          22.5569  -31.4343  -38.8114 C.2       7 UNK         0.5020 
     48 O          22.2633  -32.0216  -37.7698 O.2       7 UNK        -0.5147 
     49 N          22.6128  -32.0442  -40.0049 N.am      8 UNK        -0.4734 
     50 CA         22.3194  -33.4649  -40.2383 C.3       8 UNK         0.0238 
     51 CB         22.8206  -33.8538  -41.6390 C.3       8 UNK        -0.1912 
     52 C          20.8278  -33.8182  -40.0829 C.2       8 UNK         0.5038 
     53 O          20.5037  -34.9779  -39.8255 O.2       8 UNK        -0.5046 
     54 N          19.9665  -32.8094  -40.2392 N.am      9 UNK        -0.4200 
     55 CA         18.5178  -32.8493  -40.0467 C.3       9 UNK         0.0839 
     56 C          18.1322  -31.6792  -39.1100 C.2       9 UNK         0.5513 
     57 N          17.3929  -31.9451  -38.0435 N.am      9 UNK        -0.7519 
     58 O          18.4716  -30.5253  -39.3724 O.2       9 UNK        -0.4960 
     59 C59        17.7606  -32.7155  -41.3897 C.3       10 UNK        -0.0876 
     60 S60        17.9945  -34.1252  -42.5307 S.3       10 UNK        -0.2414 
     61 C61        19.0625  -33.4289  -43.8477 C.3       10 UNK         0.0169 
     62 H62        20.2788  -30.9922  -42.5331 H         1 UNK         0.0903 
     63 H63        20.4990  -30.0563  -41.0390 H         1 UNK         0.0903 
     64 H64        21.4898  -29.7155  -42.4555 H         1 UNK         0.0903 
     65 H65        18.3823  -29.1507  -40.9142 H         1 UNK         0.3096 
     66 H66        16.8340  -27.5975  -41.1398 H         1 UNK         0.1121 
     67 H67        17.0948  -27.9302  -44.1768 H         1 UNK         0.0849 
     68 H68        15.8705  -26.9695  -43.3939 H         1 UNK         0.0849 
     69 H69        14.6632  -30.7352  -44.8437 H         1 UNK         0.0865 
     70 H70        15.1661  -29.1863  -45.4747 H         1 UNK         0.0865 
     71 H71        16.5601  -32.1495  -43.6970 H         1 UNK         0.1346 
     72 H72        20.2884  -32.0747  -45.8314 H         1 UNK         0.1412 
     73 H73        17.2492  -29.1695  -46.6682 H         1 UNK         0.1426 
     74 H74        20.6710  -30.5037  -47.5757 H         1 UNK         0.0716 
     75 H75        19.1972  -30.1948  -48.4552 H         1 UNK         0.0716 
     76 H76        22.3277  -28.4731  -47.0316 H         1 UNK         0.0695 
     77 H77        21.4457  -28.8378  -45.5684 H         1 UNK         0.0695 
     78 H78        21.7592  -26.0243  -46.7406 H         1 UNK         0.0983 
     79 H79        20.2959  -27.0015  -44.4380 H         1 UNK         0.3095 
     80 H80        19.9724  -24.3809  -42.6208 H         1 UNK         0.0454 
     81 H81        17.8055  -23.2703  -43.2187 H         1 UNK         0.0851 
     82 H82        18.0324  -23.7238  -44.9074 H         1 UNK         0.0851 
     83 H83        19.1369  -22.5922  -44.1371 H         1 UNK         0.0851 
     84 H84        18.5079  -26.4849  -44.0485 H         1 UNK         0.2976 
     85 H85        23.4315  -24.7763  -46.1140 H         1 UNK         0.3116 
     86 H86        25.4605  -24.1342  -45.5267 H         1 UNK         0.0646 
     87 H87        26.0973  -26.0993  -46.9582 H         1 UNK         0.0847 
     88 H88        27.2987  -25.7760  -45.7228 H         1 UNK         0.0847 
     89 H89        26.1796  -27.1151  -45.5191 H         1 UNK         0.0847 
     90 H90        23.5637  -25.0201  -43.2958 H         1 UNK         0.3040 
     91 H91        23.3796  -25.2559  -41.0970 H         1 UNK         0.1015 
     92 H92        26.1605  -23.9906  -40.8479 H         1 UNK         0.0786 
     93 H93        24.9422  -24.0971  -39.5870 H         1 UNK         0.0786 
     94 H94        24.6504  -23.0927  -40.9962 H         1 UNK         0.0786 
     95 H95        24.3518  -27.4844  -42.6445 H         1 UNK         0.3172 
     96 H96        26.4596  -28.8749  -41.3997 H         1 UNK         0.0595 
     97 H97        25.6544  -29.3670  -43.6857 H         1 UNK         0.0839 
     98 H98        24.1096  -29.9356  -43.0606 H         1 UNK         0.0839 
     99 H99        25.5868  -30.8250  -42.7098 H         1 UNK         0.0839 
    100 H100       23.1060  -28.6866  -40.4782 H         1 UNK         0.2998 
    101 H101       21.8587  -29.4375  -38.8098 H         1 UNK         0.0822 
    102 H102       22.8952  -29.7123  -36.5990 H         1 UNK         0.0787 
    103 H103       24.4772  -29.9738  -37.3169 H         1 UNK         0.0787 
    104 H104       23.6938  -28.4002  -37.4482 H         1 UNK         0.0787 
    105 H105       22.9065  -31.5008  -40.8027 H         1 UNK         0.3055 
    106 H106       22.8688  -34.0525  -39.4990 H         1 UNK         0.1106 
    107 H107       23.8958  -33.6994  -41.7324 H         1 UNK         0.0828 
    108 H108       22.6283  -34.9081  -41.8438 H         1 UNK         0.0828 
    109 H109       22.3287  -33.2755  -42.4217 H         1 UNK         0.0828 
    110 H110       20.3486  -31.8867  -40.3732 H         1 UNK         0.2931 
    111 H111       18.2299  -33.7895  -39.5716 H         1 UNK         0.0412 
    112 H112       17.1020  -32.8869  -37.8300 H         1 UNK         0.3472 
    113 H113       17.1237  -31.1880  -37.4345 H         1 UNK         0.3472 
    114 H114       16.6875  -32.6353  -41.2048 H         1 UNK         0.0970 
    115 H115       18.0441  -31.7851  -41.8818 H         1 UNK         0.0970 
    116 H116       20.0109  -33.1368  -43.3972 H         1 UNK         0.0612 
    117 H117       19.2942  -34.2358  -44.5441 H         1 UNK         0.0612 
@<TRIPOS>BOND
     1    1    2 1    
     2    1   62 1    
     3    1   63 1    
     4    1   64 1    
     5    2    3 2    
     6    2    4 am   BACKBONE|DICT|INTERRES
     7    4    5 1    
     8    4   65 1    
     9    5    6 1    
    10    5   25 1    
    11    5   66 1    
    12    6    7 1    
    13    6   67 1    
    14    6   68 1    
    15    7    8 1    
    16    8    9 1    
    17    8   69 1    
    18    8   70 1    
    19    9   10 ar   
    20    9   14 ar   
    21   10   11 ar   
    22   10   71 1    
    23   11   12 ar   
    24   11   61 1    
    25   12   13 ar   
    26   12   72 1    
    27   13   14 ar   
    28   13   15 1    
    29   14   73 1    
    30   15   16 1    
    31   15   74 1    
    32   15   75 1    
    33   16   17 1    
    34   17   18 1    
    35   17   76 1    
    36   17   77 1    
    37   18   19 1    
    38   18   27 1    
    39   18   78 1    
    40   19   20 am   BACKBONE|DICT|INTERRES
    41   19   79 1    
    42   20   21 2    
    43   20   22 1    
    44   22   23 1    
    45   22   24 1    
    46   22   80 1    
    47   23   81 1    
    48   23   82 1    
    49   23   83 1    
    50   24   25 am   BACKBONE|DICT|INTERRES
    51   24   84 1    
    52   25   26 2    
    53   27   28 2    
    54   27   29 am   BACKBONE|DICT|INTERRES
    55   29   30 1    
    56   29   85 1    
    57   30   31 1    
    58   30   32 1    
    59   30   86 1    
    60   31   87 1    
    61   31   88 1    
    62   31   89 1    
    63   32   33 2    
    64   32   34 am   BACKBONE|DICT|INTERRES
    65   34   35 1    
    66   34   90 1    
    67   35   36 1    
    68   35   37 1    
    69   35   91 1    
    70   36   92 1    
    71   36   93 1    
    72   36   94 1    
    73   37   38 2    
    74   37   39 am   BACKBONE|DICT|INTERRES
    75   39   40 1    
    76   39   95 1    
    77   40   41 1    
    78   40   42 1    
    79   40   96 1    
    80   41   97 1    
    81   41   98 1    
    82   41   99 1    
    83   42   43 2    
    84   42   44 am   BACKBONE|DICT|INTERRES
    85   44   45 1    
    86   44  100 1    
    87   45   46 1    
    88   45   47 1    
    89   45  101 1    
    90   46  102 1    
    91   46  103 1    
    92   46  104 1    
    93   47   48 2    
    94   47   49 am   BACKBONE|DICT|INTERRES
    95   49   50 1    
    96   49  105 1    
    97   50   51 1    
    98   50   52 1    
    99   50  106 1    
   100   51  107 1    
   101   51  108 1    
   102   51  109 1    
   103   52   53 2    
   104   52   54 am   BACKBONE|DICT|INTERRES
   105   54   55 1    
   106   54  110 1    
   107   55   56 1    
   108   55   59 1    
   109   55  111 1    
   110   56   57 am   BACKBONE|DICT|INTERRES
   111   56   58 2    
   112   57  112 1    
   113   57  113 1    
   114   59   60 1    
   115   59  114 1    
   116   59  115 1    
   117   60   61 1    
   118   61  116 1    
   119   61  117 1    
@<TRIPOS>SUBSTRUCTURE
     1 UNK         1 GROUP             0       ****    0 ROOT    
