@<TRIPOS>MOLECULE
3R8
117   119    1
SMALL
USER_CHARGES


@<TRIPOS>ATOM
      1 CA         12.5189  -25.1834  -41.9214 C.3       0 UNK        -0.2013 
      2 C          13.4691  -26.0374  -42.7467 C.2       0 UNK         0.4866 
      3 O          13.8313  -27.1339  -42.3191 O.2       0 UNK        -0.5176 
      4 N          13.8826  -25.5393  -43.9208 N.am      1 UNK        -0.4884 
      5 CA         14.7940  -26.1588  -44.8968 C.3       1 UNK         0.0853 
      6 C6         14.3246  -27.5588  -45.3819 C.3       10 UNK        -0.0849 
      7 S7         14.9728  -27.9983  -47.0314 S.3       10 UNK        -0.2776 
      8 C8         15.9777  -29.4904  -46.6925 C.3       10 UNK         0.0316 
      9 C9         17.4416  -29.2201  -46.3391 C.ar      10 UNK        -0.0863 
     10 C10        18.0859  -30.0277  -45.3934 C.ar      10 UNK        -0.1009 
     11 C11        19.4497  -29.8653  -45.1253 C.ar      10 UNK        -0.0712 
     12 C12        20.1727  -28.8859  -45.8099 C.ar      10 UNK        -0.0894 
     13 C13        19.5431  -28.0569  -46.7420 C.ar      10 UNK        -0.0745 
     14 C14        18.1810  -28.2345  -47.0062 C.ar      10 UNK        -0.0972 
     15 C15        20.3397  -26.9995  -47.4973 C.3       10 UNK         0.0209 
     16 S16        20.3969  -25.4002  -46.6209 S.3       10 UNK        -0.2568 
     17 C17        21.6223  -25.7285  -45.3076 C.3       10 UNK        -0.0983 
     18 CA         21.0563  -25.6169  -43.8658 C.3       3 UNK         0.0876 
     19 N          19.8256  -26.3864  -43.6877 N.am      3 UNK        -0.4424 
     20 C          18.8978  -26.1511  -42.7556 C.2       2 UNK         0.4918 
     21 O          18.9106  -25.1845  -41.9900 O.2       2 UNK        -0.4875 
     22 CA         17.7671  -27.1899  -42.6627 C.3       2 UNK         0.0481 
     23 CB         17.5286  -27.6187  -41.2046 C.3       2 UNK        -0.1831 
     24 N          16.4902  -26.7846  -43.2498 N.am      2 UNK        -0.4498 
     25 C          16.2615  -26.1858  -44.4267 C.2       1 UNK         0.5027 
     26 O          17.1243  -25.6825  -45.1439 O.2       1 UNK        -0.4969 
     27 C          22.1153  -26.1160  -42.8645 C.2       3 UNK         0.5005 
     28 O          22.0876  -27.2860  -42.4732 O.2       3 UNK        -0.5279 
     29 N          23.1047  -25.2715  -42.5449 N.am      4 UNK        -0.4463 
     30 CA         24.2898  -25.6336  -41.7533 C.3       4 UNK         0.0283 
     31 CB         24.8883  -24.3567  -41.1339 C.3       4 UNK        -0.1875 
     32 C          25.3228  -26.4327  -42.5822 C.2       4 UNK         0.4949 
     33 O          26.5070  -26.0940  -42.5907 O.2       4 UNK        -0.5039 
     34 N          24.8461  -27.4588  -43.2975 N.am      5 UNK        -0.4663 
     35 CA         25.6261  -28.2865  -44.2182 C.3       5 UNK         0.0242 
     36 CB         24.6732  -28.9379  -45.2350 C.3       5 UNK        -0.1982 
     37 C          26.4576  -29.3566  -43.4959 C.2       5 UNK         0.5017 
     38 O          27.5733  -29.6477  -43.9285 O.2       5 UNK        -0.5012 
     39 N          25.9021  -29.9200  -42.4178 N.am      6 UNK        -0.4439 
     40 CA         26.4923  -30.9639  -41.5867 C.3       6 UNK         0.0297 
     41 CB         26.5015  -32.3120  -42.3361 C.3       6 UNK        -0.2006 
     42 C          25.6623  -31.0773  -40.3060 C.2       6 UNK         0.4892 
     43 O          24.4826  -30.7144  -40.3124 O.2       6 UNK        -0.5089 
     44 N          26.2718  -31.6316  -39.2492 N.am      7 UNK        -0.4243 
     45 CA         25.6364  -31.8830  -37.9486 C.3       7 UNK         0.0196 
     46 CB         26.6910  -32.4011  -36.9577 C.3       7 UNK        -0.2007 
     47 C          24.4408  -32.8513  -38.0161 C.2       7 UNK         0.5020 
     48 O          23.5246  -32.7386  -37.2020 O.2       7 UNK        -0.5147 
     49 N          24.4428  -33.7493  -39.0123 N.am      8 UNK        -0.4734 
     50 CA         23.3458  -34.6706  -39.3292 C.3       8 UNK         0.0238 
     51 CB         23.8104  -35.6437  -40.4251 C.3       8 UNK        -0.1912 
     52 C          22.0386  -33.9704  -39.7513 C.2       8 UNK         0.5038 
     53 O          20.9737  -34.5777  -39.6324 O.2       8 UNK        -0.5046 
     54 N          22.1352  -32.7173  -40.2176 N.am      9 UNK        -0.4200 
     55 CA         20.9927  -31.8359  -40.4929 C.3       9 UNK         0.0839 
     56 C          20.3431  -31.2350  -39.2060 C.2       9 UNK         0.5513 
     57 N          20.9485  -31.3510  -38.0283 N.am      9 UNK        -0.7519 
     58 O          19.2527  -30.6740  -39.2654 O.2       9 UNK        -0.4960 
     59 C59        21.3896  -30.7489  -41.5276 C.3       10 UNK        -0.0876 
     60 S60        19.9680  -30.0537  -42.4344 S.3       10 UNK        -0.2414 
     61 C61        20.1553  -30.7456  -44.1034 C.3       10 UNK         0.0169 
     62 H62        12.9652  -24.9544  -40.9540 H         1 UNK         0.0903 
     63 H63        12.2797  -24.2422  -42.4160 H         1 UNK         0.0903 
     64 H64        11.5873  -25.7212  -41.7478 H         1 UNK         0.0903 
     65 H65        13.5609  -24.6174  -44.1849 H         1 UNK         0.3096 
     66 H66        14.7640  -25.4885  -45.7583 H         1 UNK         0.1121 
     67 H67        14.5674  -28.3360  -44.6550 H         1 UNK         0.0849 
     68 H68        13.2367  -27.5695  -45.4646 H         1 UNK         0.0849 
     69 H69        15.4938  -30.0849  -45.9162 H         1 UNK         0.0865 
     70 H70        15.9671  -30.1105  -47.5898 H         1 UNK         0.0865 
     71 H71        17.5322  -30.7981  -44.8740 H         1 UNK         0.1346 
     72 H72        21.2298  -28.7752  -45.6137 H         1 UNK         0.1412 
     73 H73        17.6997  -27.6094  -47.7456 H         1 UNK         0.1426 
     74 H74        21.3544  -27.3521  -47.6891 H         1 UNK         0.0716 
     75 H75        19.8917  -26.8369  -48.4787 H         1 UNK         0.0716 
     76 H76        22.0750  -26.7055  -45.4771 H         1 UNK         0.0695 
     77 H77        22.4341  -25.0110  -45.4402 H         1 UNK         0.0695 
     78 H78        20.8418  -24.5668  -43.6550 H         1 UNK         0.0983 
     79 H79        19.7220  -27.1962  -44.2827 H         1 UNK         0.3095 
     80 H80        18.0764  -28.0728  -43.2202 H         1 UNK         0.0454 
     81 H81        18.4615  -27.9253  -40.7291 H         1 UNK         0.0851 
     82 H82        17.1097  -26.8068  -40.6090 H         1 UNK         0.0851 
     83 H83        16.8462  -28.4667  -41.1462 H         1 UNK         0.0851 
     84 H84        15.6580  -27.0925  -42.7528 H         1 UNK         0.2976 
     85 H85        23.0987  -24.3414  -42.9400 H         1 UNK         0.3116 
     86 H86        23.9767  -26.2804  -40.9307 H         1 UNK         0.0646 
     87 H87        25.7354  -24.5944  -40.4889 H         1 UNK         0.0847 
     88 H88        24.1564  -23.8319  -40.5198 H         1 UNK         0.0847 
     89 H89        25.2448  -23.6650  -41.8981 H         1 UNK         0.0847 
     90 H90        23.8569  -27.6693  -43.1958 H         1 UNK         0.3040 
     91 H91        26.3201  -27.6427  -44.7637 H         1 UNK         0.1015 
     92 H92        24.1456  -28.1855  -45.8213 H         1 UNK         0.0786 
     93 H93        23.9277  -29.5677  -44.7475 H         1 UNK         0.0786 
     94 H94        25.2225  -29.5664  -45.9375 H         1 UNK         0.0786 
     95 H95        24.9934  -29.6051  -42.0991 H         1 UNK         0.3172 
     96 H96        27.5118  -30.6743  -41.3237 H         1 UNK         0.0595 
     97 H97        25.4950  -32.6175  -42.6256 H         1 UNK         0.0839 
     98 H98        26.9190  -33.1065  -41.7165 H         1 UNK         0.0839 
     99 H99        27.1076  -32.2656  -43.2407 H         1 UNK         0.0839 
    100 H100       27.2400  -31.9068  -39.3380 H         1 UNK         0.2998 
    101 H101       25.2567  -30.9283  -37.5781 H         1 UNK         0.0822 
    102 H102       27.5002  -31.6824  -36.8263 H         1 UNK         0.0787 
    103 H103       26.2510  -32.5730  -35.9742 H         1 UNK         0.0787 
    104 H104       27.1279  -33.3443  -37.2883 H         1 UNK         0.0787 
    105 H105       25.2440  -33.7705  -39.6259 H         1 UNK         0.3055 
    106 H106       23.1232  -35.2451  -38.4272 H         1 UNK         0.1106 
    107 H107       23.0264  -36.3631  -40.6665 H         1 UNK         0.0828 
    108 H108       24.0675  -35.1212  -41.3475 H         1 UNK         0.0828 
    109 H109       24.6825  -36.2151  -40.1067 H         1 UNK         0.0828 
    110 H110       23.0458  -32.2739  -40.2451 H         1 UNK         0.2931 
    111 H111       20.2241  -32.4573  -40.9570 H         1 UNK         0.0412 
    112 H112       20.5025  -30.9640  -37.2119 H         1 UNK         0.3472 
    113 H113       21.8342  -31.8335  -37.9322 H         1 UNK         0.3472 
    114 H114       22.0933  -31.1592  -42.2528 H         1 UNK         0.0970 
    115 H115       21.9236  -29.9294  -41.0422 H         1 UNK         0.0970 
    116 H116       21.2131  -30.8280  -44.3572 H         1 UNK         0.0612 
    117 H117       19.7493  -31.7579  -44.1242 H         1 UNK         0.0612 
@<TRIPOS>BOND
     1    1    2 1    
     2    1   62 1    
     3    1   63 1    
     4    1   64 1    
     5    2    3 2    
     6    2    4 am   BACKBONE|DICT|INTERRES
     7    4    5 1    
     8    4   65 1    
     9    5    6 1    
    10    5   25 1    
    11    5   66 1    
    12    6    7 1    
    13    6   67 1    
    14    6   68 1    
    15    7    8 1    
    16    8    9 1    
    17    8   69 1    
    18    8   70 1    
    19    9   10 ar   
    20    9   14 ar   
    21   10   11 ar   
    22   10   71 1    
    23   11   12 ar   
    24   11   61 1    
    25   12   13 ar   
    26   12   72 1    
    27   13   14 ar   
    28   13   15 1    
    29   14   73 1    
    30   15   16 1    
    31   15   74 1    
    32   15   75 1    
    33   16   17 1    
    34   17   18 1    
    35   17   76 1    
    36   17   77 1    
    37   18   19 1    
    38   18   27 1    
    39   18   78 1    
    40   19   20 am   BACKBONE|DICT|INTERRES
    41   19   79 1    
    42   20   21 2    
    43   20   22 1    
    44   22   23 1    
    45   22   24 1    
    46   22   80 1    
    47   23   81 1    
    48   23   82 1    
    49   23   83 1    
    50   24   25 am   BACKBONE|DICT|INTERRES
    51   24   84 1    
    52   25   26 2    
    53   27   28 2    
    54   27   29 am   BACKBONE|DICT|INTERRES
    55   29   30 1    
    56   29   85 1    
    57   30   31 1    
    58   30   32 1    
    59   30   86 1    
    60   31   87 1    
    61   31   88 1    
    62   31   89 1    
    63   32   33 2    
    64   32   34 am   BACKBONE|DICT|INTERRES
    65   34   35 1    
    66   34   90 1    
    67   35   36 1    
    68   35   37 1    
    69   35   91 1    
    70   36   92 1    
    71   36   93 1    
    72   36   94 1    
    73   37   38 2    
    74   37   39 am   BACKBONE|DICT|INTERRES
    75   39   40 1    
    76   39   95 1    
    77   40   41 1    
    78   40   42 1    
    79   40   96 1    
    80   41   97 1    
    81   41   98 1    
    82   41   99 1    
    83   42   43 2    
    84   42   44 am   BACKBONE|DICT|INTERRES
    85   44   45 1    
    86   44  100 1    
    87   45   46 1    
    88   45   47 1    
    89   45  101 1    
    90   46  102 1    
    91   46  103 1    
    92   46  104 1    
    93   47   48 2    
    94   47   49 am   BACKBONE|DICT|INTERRES
    95   49   50 1    
    96   49  105 1    
    97   50   51 1    
    98   50   52 1    
    99   50  106 1    
   100   51  107 1    
   101   51  108 1    
   102   51  109 1    
   103   52   53 2    
   104   52   54 am   BACKBONE|DICT|INTERRES
   105   54   55 1    
   106   54  110 1    
   107   55   56 1    
   108   55   59 1    
   109   55  111 1    
   110   56   57 am   BACKBONE|DICT|INTERRES
   111   56   58 2    
   112   57  112 1    
   113   57  113 1    
   114   59   60 1    
   115   59  114 1    
   116   59  115 1    
   117   60   61 1    
   118   61  116 1    
   119   61  117 1    
@<TRIPOS>SUBSTRUCTURE
     1 UNK         1 GROUP             0       ****    0 ROOT    
