@<TRIPOS>MOLECULE
3R8
117   119    1
SMALL
USER_CHARGES


@<TRIPOS>ATOM
      1 CA         15.4513  -22.8189  -45.6152 C.3       0 UNK        -0.2013 
      2 C          16.6505  -23.6809  -45.9802 C.2       0 UNK         0.4866 
      3 O          17.5125  -23.2395  -46.7402 O.2       0 UNK        -0.5176 
      4 N          16.7136  -24.9078  -45.4440 N.am      1 UNK        -0.4884 
      5 CA         17.7996  -25.8698  -45.6845 C.3       1 UNK         0.0853 
      6 C6         17.3490  -27.3168  -45.3459 C.3       10 UNK        -0.0849 
      7 S7         18.1508  -28.5736  -46.3999 S.3       10 UNK        -0.2776 
      8 C8         19.4064  -29.2763  -45.2828 C.3       10 UNK         0.0316 
      9 C9         18.8110  -30.2760  -44.3031 C.ar      10 UNK        -0.0863 
     10 C10        18.6037  -31.6012  -44.6934 C.ar      10 UNK        -0.1009 
     11 C11        18.1003  -32.5448  -43.7891 C.ar      10 UNK        -0.0712 
     12 C12        17.7924  -32.1381  -42.4864 C.ar      10 UNK        -0.0894 
     13 C13        17.9935  -30.8131  -42.0812 C.ar      10 UNK        -0.0745 
     14 C14        18.4943  -29.8872  -43.0001 C.ar      10 UNK        -0.0972 
     15 C15        17.6558  -30.3869  -40.6567 C.3       10 UNK         0.0209 
     16 S16        19.1101  -29.7696  -39.7400 S.3       10 UNK        -0.2568 
     17 C17        19.0505  -27.9713  -40.0531 C.3       10 UNK        -0.0983 
     18 CA         20.2849  -27.4261  -40.8206 C.3       3 UNK         0.0876 
     19 N          19.9314  -26.1979  -41.5510 N.am      3 UNK        -0.4424 
     20 C          20.7495  -25.4055  -42.2587 C.2       2 UNK         0.4918 
     21 O          21.9669  -25.5696  -42.3428 O.2       2 UNK        -0.4875 
     22 CA         20.0719  -24.2315  -42.9883 C.3       2 UNK         0.0481 
     23 CB         21.0767  -23.3330  -43.7411 C.3       2 UNK        -0.1831 
     24 N          18.9944  -24.6884  -43.8763 N.am      2 UNK        -0.4498 
     25 C          19.1073  -25.4916  -44.9489 C.2       1 UNK         0.5027 
     26 O          20.1790  -25.9300  -45.3661 O.2       1 UNK        -0.4969 
     27 C          21.5073  -27.2806  -39.8857 C.2       3 UNK         0.5005 
     28 O          22.3254  -28.1961  -39.8095 O.2       3 UNK        -0.5279 
     29 N          21.6408  -26.1174  -39.2314 N.am      4 UNK        -0.4463 
     30 CA         22.7627  -25.7799  -38.3490 C.3       4 UNK         0.0283 
     31 CB         22.4520  -24.4625  -37.6204 C.3       4 UNK        -0.1875 
     32 C          24.1271  -25.6864  -39.0613 C.2       4 UNK         0.4949 
     33 O          25.1513  -25.8951  -38.4107 O.2       4 UNK        -0.5039 
     34 N          24.1233  -25.3705  -40.3633 N.am      5 UNK        -0.4663 
     35 CA         25.3212  -25.2663  -41.1989 C.3       5 UNK         0.0242 
     36 CB         25.2398  -23.9794  -42.0377 C.3       5 UNK        -0.1982 
     37 C          25.4760  -26.4911  -42.1117 C.2       5 UNK         0.5017 
     38 O          26.5859  -27.0055  -42.2505 O.2       5 UNK        -0.5012 
     39 N          24.3679  -26.9276  -42.7249 N.am      6 UNK        -0.4439 
     40 CA         24.3164  -28.0242  -43.6937 C.3       6 UNK         0.0297 
     41 CB         23.0038  -27.9161  -44.4875 C.3       6 UNK        -0.2006 
     42 C          24.4338  -29.4252  -43.0687 C.2       6 UNK         0.4892 
     43 O          24.7980  -30.3571  -43.7873 O.2       6 UNK        -0.5089 
     44 N          24.1049  -29.5429  -41.7724 N.am      7 UNK        -0.4243 
     45 CA         23.8796  -30.7671  -40.9931 C.3       7 UNK         0.0196 
     46 CB         25.0631  -31.7541  -41.0841 C.3       7 UNK        -0.2007 
     47 C          22.5411  -31.4347  -41.3561 C.2       7 UNK         0.5020 
     48 O          21.9564  -31.1582  -42.4062 O.2       7 UNK        -0.5147 
     49 N          22.0709  -32.3228  -40.4721 N.am      8 UNK        -0.4734 
     50 CA         20.7926  -33.0293  -40.5979 C.3       8 UNK         0.0238 
     51 CB         20.3113  -33.4506  -39.1968 C.3       8 UNK        -0.1912 
     52 C          20.8738  -34.2110  -41.5825 C.2       8 UNK         0.5038 
     53 O          20.6758  -35.3586  -41.1790 O.2       8 UNK        -0.5046 
     54 N          21.2021  -33.9086  -42.8456 N.am      9 UNK        -0.4200 
     55 CA         21.4499  -34.8650  -43.9393 C.3       9 UNK         0.0839 
     56 C          22.6935  -35.7853  -43.7208 C.2       9 UNK         0.5513 
     57 N          23.6084  -35.4608  -42.8143 N.am      9 UNK        -0.7519 
     58 O          22.8593  -36.7899  -44.4083 O.2       9 UNK        -0.4960 
     59 C59        20.1664  -35.6477  -44.3533 C.3       10 UNK        -0.0876 
     60 S60        19.0425  -34.6620  -45.3990 S.3       10 UNK        -0.2414 
     61 C61        17.8280  -33.9882  -44.2125 C.3       10 UNK         0.0169 
     62 H62        14.7683  -23.3330  -44.9392 H         1 UNK         0.0903 
     63 H63        15.7826  -21.9014  -45.1295 H         1 UNK         0.0903 
     64 H64        14.8976  -22.5475  -46.5137 H         1 UNK         0.0903 
     65 H65        15.9693  -25.2208  -44.8357 H         1 UNK         0.3096 
     66 H66        18.0258  -25.8251  -46.7529 H         1 UNK         0.1121 
     67 H67        17.4831  -27.5469  -44.2884 H         1 UNK         0.0849 
     68 H68        16.2783  -27.4245  -45.5276 H         1 UNK         0.0849 
     69 H69        19.9198  -28.4779  -44.7474 H         1 UNK         0.0865 
     70 H70        20.1719  -29.7711  -45.8826 H         1 UNK         0.0865 
     71 H71        18.8347  -31.8925  -45.7085 H         1 UNK         0.1346 
     72 H72        17.3913  -32.8572  -41.7851 H         1 UNK         0.1412 
     73 H73        18.6473  -28.8629  -42.6987 H         1 UNK         0.1426 
     74 H74        17.2515  -31.2333  -40.0994 H         1 UNK         0.0716 
     75 H75        16.8628  -29.6385  -40.6734 H         1 UNK         0.0716 
     76 H76        18.9224  -27.4573  -39.0983 H         1 UNK         0.0695 
     77 H77        18.1394  -27.7560  -40.6122 H         1 UNK         0.0695 
     78 H78        20.5724  -28.1533  -41.5831 H         1 UNK         0.0983 
     79 H79        18.9523  -25.9532  -41.5394 H         1 UNK         0.3095 
     80 H80        19.6001  -23.6185  -42.2191 H         1 UNK         0.0454 
     81 H81        21.8062  -22.9048  -43.0527 H         1 UNK         0.0851 
     82 H82        20.5731  -22.5036  -44.2372 H         1 UNK         0.0851 
     83 H83        21.6351  -23.8861  -44.4969 H         1 UNK         0.0851 
     84 H84        18.0645  -24.3730  -43.6379 H         1 UNK         0.2976 
     85 H85        20.9296  -25.4118  -39.3576 H         1 UNK         0.3116 
     86 H86        22.8426  -26.5715  -37.6008 H         1 UNK         0.0646 
     87 H87        23.2557  -24.1993  -36.9311 H         1 UNK         0.0847 
     88 H88        22.3378  -23.6317  -38.3179 H         1 UNK         0.0847 
     89 H89        21.5374  -24.5381  -37.0321 H         1 UNK         0.0847 
     90 H90        23.2321  -25.2608  -40.8349 H         1 UNK         0.3040 
     91 H91        26.2163  -25.2043  -40.5755 H         1 UNK         0.1015 
     92 H92        26.1189  -23.8725  -42.6748 H         1 UNK         0.0786 
     93 H93        25.1926  -23.0961  -41.4007 H         1 UNK         0.0786 
     94 H94        24.3628  -23.9703  -42.6865 H         1 UNK         0.0786 
     95 H95        23.4954  -26.4243  -42.5698 H         1 UNK         0.3172 
     96 H96        25.1479  -27.9023  -44.3911 H         1 UNK         0.0595 
     97 H97        22.1353  -28.0342  -43.8385 H         1 UNK         0.0839 
     98 H98        22.9434  -28.6892  -45.2547 H         1 UNK         0.0839 
     99 H99        22.9157  -26.9521  -44.9893 H         1 UNK         0.0839 
    100 H100       23.7760  -28.7058  -41.3052 H         1 UNK         0.2998 
    101 H101       23.8010  -30.4380  -39.9559 H         1 UNK         0.0822 
    102 H102       24.9740  -32.5409  -40.3345 H         1 UNK         0.0787 
    103 H103       25.1142  -32.2452  -42.0563 H         1 UNK         0.0787 
    104 H104       26.0143  -31.2506  -40.9110 H         1 UNK         0.0787 
    105 H105       22.6142  -32.5210  -39.6439 H         1 UNK         0.3055 
    106 H106       20.0584  -32.3323  -41.0000 H         1 UNK         0.1106 
    107 H107       20.1949  -32.5866  -38.5422 H         1 UNK         0.0828 
    108 H108       19.3401  -33.9443  -39.2508 H         1 UNK         0.0828 
    109 H109       21.0052  -34.1441  -38.7204 H         1 UNK         0.0828 
    110 H110       21.3772  -32.9301  -43.0563 H         1 UNK         0.2931 
    111 H111       21.7427  -34.2475  -44.7891 H         1 UNK         0.0412 
    112 H112       23.4955  -34.6358  -42.2489 H         1 UNK         0.3472 
    113 H113       24.4136  -36.0546  -42.6916 H         1 UNK         0.3472 
    114 H114       20.4186  -36.5225  -44.9544 H         1 UNK         0.0970 
    115 H115       19.6366  -36.0450  -43.4874 H         1 UNK         0.0970 
    116 H116       16.8445  -34.0182  -44.6826 H         1 UNK         0.0612 
    117 H117       17.7693  -34.6413  -43.3408 H         1 UNK         0.0612 
@<TRIPOS>BOND
     1    1    2 1    
     2    1   62 1    
     3    1   63 1    
     4    1   64 1    
     5    2    3 2    
     6    2    4 am   BACKBONE|DICT|INTERRES
     7    4    5 1    
     8    4   65 1    
     9    5    6 1    
    10    5   25 1    
    11    5   66 1    
    12    6    7 1    
    13    6   67 1    
    14    6   68 1    
    15    7    8 1    
    16    8    9 1    
    17    8   69 1    
    18    8   70 1    
    19    9   10 ar   
    20    9   14 ar   
    21   10   11 ar   
    22   10   71 1    
    23   11   12 ar   
    24   11   61 1    
    25   12   13 ar   
    26   12   72 1    
    27   13   14 ar   
    28   13   15 1    
    29   14   73 1    
    30   15   16 1    
    31   15   74 1    
    32   15   75 1    
    33   16   17 1    
    34   17   18 1    
    35   17   76 1    
    36   17   77 1    
    37   18   19 1    
    38   18   27 1    
    39   18   78 1    
    40   19   20 am   BACKBONE|DICT|INTERRES
    41   19   79 1    
    42   20   21 2    
    43   20   22 1    
    44   22   23 1    
    45   22   24 1    
    46   22   80 1    
    47   23   81 1    
    48   23   82 1    
    49   23   83 1    
    50   24   25 am   BACKBONE|DICT|INTERRES
    51   24   84 1    
    52   25   26 2    
    53   27   28 2    
    54   27   29 am   BACKBONE|DICT|INTERRES
    55   29   30 1    
    56   29   85 1    
    57   30   31 1    
    58   30   32 1    
    59   30   86 1    
    60   31   87 1    
    61   31   88 1    
    62   31   89 1    
    63   32   33 2    
    64   32   34 am   BACKBONE|DICT|INTERRES
    65   34   35 1    
    66   34   90 1    
    67   35   36 1    
    68   35   37 1    
    69   35   91 1    
    70   36   92 1    
    71   36   93 1    
    72   36   94 1    
    73   37   38 2    
    74   37   39 am   BACKBONE|DICT|INTERRES
    75   39   40 1    
    76   39   95 1    
    77   40   41 1    
    78   40   42 1    
    79   40   96 1    
    80   41   97 1    
    81   41   98 1    
    82   41   99 1    
    83   42   43 2    
    84   42   44 am   BACKBONE|DICT|INTERRES
    85   44   45 1    
    86   44  100 1    
    87   45   46 1    
    88   45   47 1    
    89   45  101 1    
    90   46  102 1    
    91   46  103 1    
    92   46  104 1    
    93   47   48 2    
    94   47   49 am   BACKBONE|DICT|INTERRES
    95   49   50 1    
    96   49  105 1    
    97   50   51 1    
    98   50   52 1    
    99   50  106 1    
   100   51  107 1    
   101   51  108 1    
   102   51  109 1    
   103   52   53 2    
   104   52   54 am   BACKBONE|DICT|INTERRES
   105   54   55 1    
   106   54  110 1    
   107   55   56 1    
   108   55   59 1    
   109   55  111 1    
   110   56   57 am   BACKBONE|DICT|INTERRES
   111   56   58 2    
   112   57  112 1    
   113   57  113 1    
   114   59   60 1    
   115   59  114 1    
   116   59  115 1    
   117   60   61 1    
   118   61  116 1    
   119   61  117 1    
@<TRIPOS>SUBSTRUCTURE
     1 UNK         1 GROUP             0       ****    0 ROOT    
