@<TRIPOS>MOLECULE
3R8
117   119    1
SMALL
USER_CHARGES


@<TRIPOS>ATOM
      1 CA         16.7712  -24.0101  -39.0407 C.3       0 UNK        -0.2013 
      2 C          17.1896  -24.4263  -40.4430 C.2       0 UNK         0.4866 
      3 O          18.3076  -24.1266  -40.8626 O.2       0 UNK        -0.5176 
      4 N          16.2990  -25.1077  -41.1745 N.am      1 UNK        -0.4884 
      5 CA         16.5591  -25.6488  -42.5107 C.3       1 UNK         0.0853 
      6 C6         15.2360  -25.9941  -43.2349 C.3       10 UNK        -0.0849 
      7 S7         15.4562  -26.3054  -45.0222 S.3       10 UNK        -0.2776 
      8 C8         14.8939  -28.0324  -45.1994 C.3       10 UNK         0.0316 
      9 C9         16.0443  -28.9968  -45.4575 C.ar      10 UNK        -0.0863 
     10 C10        16.4940  -29.8677  -44.4583 C.ar      10 UNK        -0.1009 
     11 C11        17.4962  -30.8070  -44.7327 C.ar      10 UNK        -0.0712 
     12 C12        18.0480  -30.8680  -46.0159 C.ar      10 UNK        -0.0894 
     13 C13        17.6252  -29.9860  -47.0126 C.ar      10 UNK        -0.0745 
     14 C14        16.6218  -29.0562  -46.7288 C.ar      10 UNK        -0.0972 
     15 C15        18.2325  -30.0465  -48.4042 C.3       10 UNK         0.0209 
     16 S16        19.4966  -28.7599  -48.6367 S.3       10 UNK        -0.2568 
     17 C17        20.9339  -29.4575  -47.7574 C.3       10 UNK        -0.0983 
     18 CA         21.3925  -28.5556  -46.5855 C.3       3 UNK         0.0876 
     19 N          20.4538  -28.5784  -45.4543 N.am      3 UNK        -0.4424 
     20 C          20.4581  -27.6813  -44.4606 C.2       2 UNK         0.4918 
     21 O          21.1890  -26.6902  -44.4312 O.2       2 UNK        -0.4875 
     22 CA         19.5373  -27.9570  -43.2730 C.3       2 UNK         0.0481 
     23 CB         20.3548  -28.1621  -41.9841 C.3       2 UNK        -0.1831 
     24 N          18.6047  -26.8471  -43.1358 N.am      2 UNK        -0.4498 
     25 C          17.4824  -26.8774  -42.4090 C.2       1 UNK         0.5027 
     26 O          17.1436  -27.8247  -41.6944 O.2       1 UNK        -0.4969 
     27 C          22.8327  -28.9112  -46.1538 C.2       3 UNK         0.5005 
     28 O          23.7797  -28.4905  -46.8200 O.2       3 UNK        -0.5279 
     29 N          22.9807  -29.6535  -45.0442 N.am      4 UNK        -0.4463 
     30 CA         24.2682  -29.9698  -44.4177 C.3       4 UNK         0.0283 
     31 CB         24.0643  -31.0748  -43.3704 C.3       4 UNK        -0.1875 
     32 C          24.9559  -28.7462  -43.7821 C.2       4 UNK         0.4949 
     33 O          26.1828  -28.7393  -43.6803 O.2       4 UNK        -0.5039 
     34 N          24.1603  -27.7451  -43.3722 N.am      5 UNK        -0.4663 
     35 CA         24.5132  -26.4313  -42.8106 C.3       5 UNK         0.0242 
     36 CB         25.2898  -25.5847  -43.8373 C.3       5 UNK        -0.1982 
     37 C          25.2437  -26.4572  -41.4546 C.2       5 UNK         0.5017 
     38 O          24.8500  -25.7256  -40.5461 O.2       5 UNK        -0.5012 
     39 N          26.2881  -27.2847  -41.3376 N.am      6 UNK        -0.4439 
     40 CA         27.1152  -27.4589  -40.1396 C.3       6 UNK         0.0297 
     41 CB         28.4308  -28.1456  -40.5411 C.3       6 UNK        -0.2006 
     42 C          26.4184  -28.2512  -39.0178 C.2       6 UNK         0.4892 
     43 O          26.8569  -28.1796  -37.8690 O.2       6 UNK        -0.5089 
     44 N          25.3601  -28.9895  -39.3642 N.am      7 UNK        -0.4243 
     45 CA         24.5168  -29.7685  -38.4673 C.3       7 UNK         0.0196 
     46 CB         25.1133  -31.1764  -38.2872 C.3       7 UNK        -0.2007 
     47 C          23.1172  -29.8380  -39.0834 C.2       7 UNK         0.5020 
     48 O          22.9623  -29.5839  -40.2813 O.2       7 UNK        -0.5147 
     49 N          22.1240  -30.2273  -38.2757 N.am      8 UNK        -0.4734 
     50 CA         20.7165  -30.3774  -38.6686 C.3       8 UNK         0.0238 
     51 CB         19.8358  -30.2843  -37.4079 C.3       8 UNK        -0.1912 
     52 C          20.4501  -31.6610  -39.4863 C.2       8 UNK         0.5038 
     53 O          19.5411  -32.4238  -39.1542 O.2       8 UNK        -0.5046 
     54 N          21.2682  -31.8840  -40.5226 N.am      9 UNK        -0.4200 
     55 CA         21.2657  -33.0526  -41.4209 C.3       9 UNK         0.0839 
     56 C          21.6239  -34.4062  -40.7326 C.2       9 UNK         0.5513 
     57 N          22.2409  -34.4059  -39.5569 N.am      9 UNK        -0.7519 
     58 O          21.3731  -35.4748  -41.2842 O.2       9 UNK        -0.4960 
     59 C59        19.9860  -33.1402  -42.2997 C.3       10 UNK        -0.0876 
     60 S60        19.7518  -31.6659  -43.3478 S.3       10 UNK        -0.2414 
     61 C61        17.9607  -31.7836  -43.6602 C.3       10 UNK         0.0169 
     62 H62        15.7558  -24.3288  -38.8057 H         1 UNK         0.0903 
     63 H63        17.4432  -24.4485  -38.3035 H         1 UNK         0.0903 
     64 H64        16.8174  -22.9259  -38.9417 H         1 UNK         0.0903 
     65 H65        15.4085  -25.3553  -40.7662 H         1 UNK         0.3096 
     66 H66        17.0663  -24.8713  -43.0873 H         1 UNK         0.1121 
     67 H67        14.5450  -25.1538  -43.1490 H         1 UNK         0.0849 
     68 H68        14.7355  -26.8331  -42.7485 H         1 UNK         0.0849 
     69 H69        14.3143  -28.3497  -44.3319 H         1 UNK         0.0865 
     70 H70        14.2012  -28.0799  -46.0411 H         1 UNK         0.0865 
     71 H71        16.0527  -29.8249  -43.4715 H         1 UNK         0.1346 
     72 H72        18.8092  -31.6047  -46.2354 H         1 UNK         0.1412 
     73 H73        16.2815  -28.3826  -47.5039 H         1 UNK         0.1426 
     74 H74        17.4470  -29.9029  -49.1477 H         1 UNK         0.0716 
     75 H75        18.6608  -31.0300  -48.6041 H         1 UNK         0.0716 
     76 H76        21.7277  -29.5583  -48.5007 H         1 UNK         0.0695 
     77 H77        20.7206  -30.4693  -47.4096 H         1 UNK         0.0695 
     78 H78        21.4387  -27.5277  -46.9535 H         1 UNK         0.0983 
     79 H79        19.7837  -29.3353  -45.4350 H         1 UNK         0.3095 
     80 H80        18.9634  -28.8604  -43.4702 H         1 UNK         0.0454 
     81 H81        20.9342  -27.2759  -41.7225 H         1 UNK         0.0851 
     82 H82        21.0533  -28.9920  -42.0936 H         1 UNK         0.0851 
     83 H83        19.7072  -28.3967  -41.1416 H         1 UNK         0.0851 
     84 H84        18.8232  -26.0307  -43.6921 H         1 UNK         0.2976 
     85 H85        22.1501  -29.9891  -44.5784 H         1 UNK         0.3116 
     86 H86        24.9368  -30.3537  -45.1913 H         1 UNK         0.0646 
     87 H87        23.3581  -30.7705  -42.5989 H         1 UNK         0.0847 
     88 H88        25.0031  -31.3241  -42.8735 H         1 UNK         0.0847 
     89 H89        23.6894  -31.9898  -43.8291 H         1 UNK         0.0847 
     90 H90        23.1679  -27.8776  -43.5081 H         1 UNK         0.3040 
     91 H91        23.5599  -25.9290  -42.6339 H         1 UNK         0.1015 
     92 H92        26.2572  -26.0241  -44.0825 H         1 UNK         0.0786 
     93 H93        25.4771  -24.5810  -43.4534 H         1 UNK         0.0786 
     94 H94        24.7269  -25.4771  -44.7648 H         1 UNK         0.0786 
     95 H95        26.5081  -27.8597  -42.1504 H         1 UNK         0.3172 
     96 H96        27.3527  -26.4699  -39.7423 H         1 UNK         0.0595 
     97 H97        28.2559  -29.1365  -40.9624 H         1 UNK         0.0839 
     98 H98        29.0875  -28.2687  -39.6787 H         1 UNK         0.0839 
     99 H99        28.9760  -27.5581  -41.2801 H         1 UNK         0.0839 
    100 H100       25.0156  -28.9419  -40.3151 H         1 UNK         0.2998 
    101 H101       24.4455  -29.2645  -37.5009 H         1 UNK         0.0822 
    102 H102       26.1163  -31.1298  -37.8625 H         1 UNK         0.0787 
    103 H103       24.5063  -31.7803  -37.6117 H         1 UNK         0.0787 
    104 H104       25.1778  -31.7102  -39.2365 H         1 UNK         0.0787 
    105 H105       22.3446  -30.4541  -37.3160 H         1 UNK         0.3055 
    106 H106       20.4516  -29.5375  -39.3115 H         1 UNK         0.1106 
    107 H107       20.0342  -31.1030  -36.7151 H         1 UNK         0.0828 
    108 H108       18.7766  -30.3247  -37.6661 H         1 UNK         0.0828 
    109 H109       19.9992  -29.3464  -36.8769 H         1 UNK         0.0828 
    110 H110       21.9857  -31.1871  -40.6951 H         1 UNK         0.2931 
    111 H111       22.0994  -32.8834  -42.1015 H         1 UNK         0.0412 
    112 H112       22.4570  -33.5388  -39.0934 H         1 UNK         0.3472 
    113 H113       22.4793  -35.2848  -39.1245 H         1 UNK         0.3472 
    114 H114       19.1053  -33.2902  -41.6733 H         1 UNK         0.0970 
    115 H115       20.0334  -34.0026  -42.9670 H         1 UNK         0.0970 
    116 H116       17.7159  -32.7973  -43.9806 H         1 UNK         0.0612 
    117 H117       17.4292  -31.6126  -42.7227 H         1 UNK         0.0612 
@<TRIPOS>BOND
     1    1    2 1    
     2    1   62 1    
     3    1   63 1    
     4    1   64 1    
     5    2    3 2    
     6    2    4 am   BACKBONE|DICT|INTERRES
     7    4    5 1    
     8    4   65 1    
     9    5    6 1    
    10    5   25 1    
    11    5   66 1    
    12    6    7 1    
    13    6   67 1    
    14    6   68 1    
    15    7    8 1    
    16    8    9 1    
    17    8   69 1    
    18    8   70 1    
    19    9   10 ar   
    20    9   14 ar   
    21   10   11 ar   
    22   10   71 1    
    23   11   12 ar   
    24   11   61 1    
    25   12   13 ar   
    26   12   72 1    
    27   13   14 ar   
    28   13   15 1    
    29   14   73 1    
    30   15   16 1    
    31   15   74 1    
    32   15   75 1    
    33   16   17 1    
    34   17   18 1    
    35   17   76 1    
    36   17   77 1    
    37   18   19 1    
    38   18   27 1    
    39   18   78 1    
    40   19   20 am   BACKBONE|DICT|INTERRES
    41   19   79 1    
    42   20   21 2    
    43   20   22 1    
    44   22   23 1    
    45   22   24 1    
    46   22   80 1    
    47   23   81 1    
    48   23   82 1    
    49   23   83 1    
    50   24   25 am   BACKBONE|DICT|INTERRES
    51   24   84 1    
    52   25   26 2    
    53   27   28 2    
    54   27   29 am   BACKBONE|DICT|INTERRES
    55   29   30 1    
    56   29   85 1    
    57   30   31 1    
    58   30   32 1    
    59   30   86 1    
    60   31   87 1    
    61   31   88 1    
    62   31   89 1    
    63   32   33 2    
    64   32   34 am   BACKBONE|DICT|INTERRES
    65   34   35 1    
    66   34   90 1    
    67   35   36 1    
    68   35   37 1    
    69   35   91 1    
    70   36   92 1    
    71   36   93 1    
    72   36   94 1    
    73   37   38 2    
    74   37   39 am   BACKBONE|DICT|INTERRES
    75   39   40 1    
    76   39   95 1    
    77   40   41 1    
    78   40   42 1    
    79   40   96 1    
    80   41   97 1    
    81   41   98 1    
    82   41   99 1    
    83   42   43 2    
    84   42   44 am   BACKBONE|DICT|INTERRES
    85   44   45 1    
    86   44  100 1    
    87   45   46 1    
    88   45   47 1    
    89   45  101 1    
    90   46  102 1    
    91   46  103 1    
    92   46  104 1    
    93   47   48 2    
    94   47   49 am   BACKBONE|DICT|INTERRES
    95   49   50 1    
    96   49  105 1    
    97   50   51 1    
    98   50   52 1    
    99   50  106 1    
   100   51  107 1    
   101   51  108 1    
   102   51  109 1    
   103   52   53 2    
   104   52   54 am   BACKBONE|DICT|INTERRES
   105   54   55 1    
   106   54  110 1    
   107   55   56 1    
   108   55   59 1    
   109   55  111 1    
   110   56   57 am   BACKBONE|DICT|INTERRES
   111   56   58 2    
   112   57  112 1    
   113   57  113 1    
   114   59   60 1    
   115   59  114 1    
   116   59  115 1    
   117   60   61 1    
   118   61  116 1    
   119   61  117 1    
@<TRIPOS>SUBSTRUCTURE
     1 UNK         1 GROUP             0       ****    0 ROOT    
