@<TRIPOS>MOLECULE
3R8
117   119    1
SMALL
USER_CHARGES


@<TRIPOS>ATOM
      1 CA         22.8093  -24.1821  -45.9761 C.3       0 UNK        -0.2013 
      2 C          21.5527  -24.2469  -46.8423 C.2       0 UNK         0.4866 
      3 O          21.1893  -23.2396  -47.4458 O.2       0 UNK        -0.5176 
      4 N          20.8592  -25.3901  -46.9525 N.am      1 UNK        -0.4884 
      5 CA         21.0981  -26.6631  -46.2585 C.3       1 UNK         0.0853 
      6 C6         20.2604  -27.8247  -46.8549 C.3       10 UNK        -0.0849 
      7 S7         18.4896  -27.4286  -47.0809 S.3       10 UNK        -0.2776 
      8 C8         17.8138  -29.0534  -47.5482 C.3       10 UNK         0.0316 
      9 C9         17.6964  -29.9737  -46.3435 C.ar      10 UNK        -0.0863 
     10 C10        18.5622  -31.0598  -46.1873 C.ar      10 UNK        -0.1009 
     11 C11        18.4614  -31.8877  -45.0652 C.ar      10 UNK        -0.0712 
     12 C12        17.4853  -31.6279  -44.0979 C.ar      10 UNK        -0.0894 
     13 C13        16.6189  -30.5404  -44.2426 C.ar      10 UNK        -0.0745 
     14 C14        16.7198  -29.7280  -45.3752 C.ar      10 UNK        -0.0972 
     15 C15        15.5846  -30.2223  -43.1734 C.3       10 UNK         0.0209 
     16 S16        15.9388  -28.6326  -42.3559 S.3       10 UNK        -0.2568 
     17 C17        17.2489  -29.0827  -41.1683 C.3       10 UNK        -0.0983 
     18 CA         18.6872  -29.0870  -41.7669 C.3       3 UNK         0.0876 
     19 N          19.0356  -27.8491  -42.4706 N.am      3 UNK        -0.4424 
     20 C          19.2858  -26.6497  -41.9309 C.2       2 UNK         0.4918 
     21 O          19.2776  -26.4315  -40.7169 O.2       2 UNK        -0.4875 
     22 CA         19.5336  -25.4769  -42.9076 C.3       2 UNK         0.0481 
     23 CB         20.5681  -24.4755  -42.3571 C.3       2 UNK        -0.1831 
     24 N          19.8611  -25.8511  -44.2939 N.am      2 UNK        -0.4498 
     25 C          20.9220  -26.5478  -44.7313 C.2       1 UNK         0.5027 
     26 O          21.7721  -27.0471  -44.0009 O.2       1 UNK        -0.4969 
     27 C          19.7726  -29.4902  -40.7447 C.2       3 UNK         0.5005 
     28 O          20.8266  -29.9791  -41.1508 O.2       3 UNK        -0.5279 
     29 N          19.4936  -29.3022  -39.4456 N.am      4 UNK        -0.4463 
     30 CA         20.3778  -29.6412  -38.3281 C.3       4 UNK         0.0283 
     31 CB         19.5567  -29.6695  -37.0292 C.3       4 UNK        -0.1875 
     32 C          21.5844  -28.6966  -38.1797 C.2       4 UNK         0.4949 
     33 O          22.5710  -29.0887  -37.5562 O.2       4 UNK        -0.5039 
     34 N          21.5001  -27.4899  -38.7509 N.am      5 UNK        -0.4663 
     35 CA         22.6248  -26.5664  -38.9033 C.3       5 UNK         0.0242 
     36 CB         22.1058  -25.1308  -38.7179 C.3       5 UNK        -0.1982 
     37 C          23.2435  -26.7471  -40.2984 C.2       5 UNK         0.5017 
     38 O          22.6180  -27.3655  -41.1571 O.2       5 UNK        -0.5012 
     39 N          24.4429  -26.1843  -40.5050 N.am      6 UNK        -0.4439 
     40 CA         25.2126  -26.1400  -41.7583 C.3       6 UNK         0.0297 
     41 CB         24.5676  -25.1784  -42.7766 C.3       6 UNK        -0.2006 
     42 C          25.5115  -27.5274  -42.3606 C.2       6 UNK         0.4892 
     43 O          26.6102  -28.0409  -42.1457 O.2       6 UNK        -0.5089 
     44 N          24.5496  -28.1062  -43.0967 N.am      7 UNK        -0.4243 
     45 CA         24.6323  -29.4582  -43.6573 C.3       7 UNK         0.0196 
     46 CB         23.4833  -29.6797  -44.6534 C.3       7 UNK        -0.2007 
     47 C          24.6248  -30.5553  -42.5782 C.2       7 UNK         0.5020 
     48 O          25.2756  -31.5820  -42.7746 O.2       7 UNK        -0.5147 
     49 N          23.9183  -30.3047  -41.4640 N.am      8 UNK        -0.4734 
     50 CA         23.7905  -31.1630  -40.2792 C.3       8 UNK         0.0238 
     51 CB         25.1275  -31.2289  -39.5116 C.3       8 UNK        -0.1912 
     52 C          23.2124  -32.5503  -40.6149 C.2       8 UNK         0.5038 
     53 O          23.8726  -33.5693  -40.3979 O.2       8 UNK        -0.5046 
     54 N          21.9950  -32.5510  -41.1628 N.am      9 UNK        -0.4200 
     55 CA         21.2838  -33.7299  -41.6695 C.3       9 UNK         0.0839 
     56 C          19.7830  -33.7287  -41.2716 C.2       9 UNK         0.5513 
     57 N          19.0975  -34.8493  -41.4551 N.am      9 UNK        -0.7519 
     58 O          19.2269  -32.7377  -40.8045 O.2       9 UNK        -0.4960 
     59 C59        21.5144  -33.9128  -43.1959 C.3       10 UNK        -0.0876 
     60 S60        20.9991  -32.4693  -44.1917 S.3       10 UNK        -0.2414 
     61 C61        19.4216  -33.0499  -44.8835 C.3       10 UNK         0.0169 
     62 H62        22.5429  -24.0412  -44.9293 H         1 UNK         0.0903 
     63 H63        23.4202  -25.0789  -46.0663 H         1 UNK         0.0903 
     64 H64        23.4301  -23.3380  -46.2757 H         1 UNK         0.0903 
     65 H65        20.0369  -25.3916  -47.5408 H         1 UNK         0.3096 
     66 H66        22.1441  -26.9289  -46.4229 H         1 UNK         0.1121 
     67 H67        20.6634  -28.0893  -47.8339 H         1 UNK         0.0849 
     68 H68        20.3605  -28.7257  -46.2455 H         1 UNK         0.0849 
     69 H69        16.8255  -28.9120  -47.9883 H         1 UNK         0.0865 
     70 H70        18.4332  -29.5001  -48.3277 H         1 UNK         0.0865 
     71 H71        19.3260  -31.2545  -46.9280 H         1 UNK         0.1346 
     72 H72        17.4195  -32.2571  -43.2202 H         1 UNK         0.1412 
     73 H73        16.0549  -28.8820  -45.4878 H         1 UNK         0.1426 
     74 H74        14.6008  -30.1642  -43.6412 H         1 UNK         0.0716 
     75 H75        15.5235  -31.0174  -42.4287 H         1 UNK         0.0716 
     76 H76        17.1744  -28.3631  -40.3516 H         1 UNK         0.0695 
     77 H77        17.0117  -30.0589  -40.7407 H         1 UNK         0.0695 
     78 H78        18.7262  -29.8659  -42.5260 H         1 UNK         0.0983 
     79 H79        19.0897  -27.9254  -43.4748 H         1 UNK         0.3095 
     80 H80        18.5809  -24.9498  -42.9726 H         1 UNK         0.0454 
     81 H81        20.2169  -24.0238  -41.4290 H         1 UNK         0.0851 
     82 H82        21.5177  -24.9621  -42.1408 H         1 UNK         0.0851 
     83 H83        20.7540  -23.6627  -43.0586 H         1 UNK         0.0851 
     84 H84        19.2208  -25.5083  -44.9976 H         1 UNK         0.2976 
     85 H85        18.6163  -28.8628  -39.2080 H         1 UNK         0.3116 
     86 H86        20.7686  -30.6458  -38.5038 H         1 UNK         0.0646 
     87 H87        20.1798  -29.9544  -36.1802 H         1 UNK         0.0847 
     88 H88        18.7438  -30.3935  -37.0880 H         1 UNK         0.0847 
     89 H89        19.1249  -28.6939  -36.8022 H         1 UNK         0.0847 
     90 H90        20.6896  -27.2878  -39.3269 H         1 UNK         0.3040 
     91 H91        23.3915  -26.7683  -38.1520 H         1 UNK         0.1015 
     92 H92        21.6758  -24.9930  -37.7257 H         1 UNK         0.0786 
     93 H93        21.3365  -24.8841  -39.4497 H         1 UNK         0.0786 
     94 H94        22.9079  -24.3998  -38.8265 H         1 UNK         0.0786 
     95 H95        24.8859  -25.7267  -39.7201 H         1 UNK         0.3172 
     96 H96        26.1800  -25.7105  -41.4927 H         1 UNK         0.0595 
     97 H97        23.5629  -25.4877  -43.0535 H         1 UNK         0.0839 
     98 H98        25.1560  -25.1276  -43.6936 H         1 UNK         0.0839 
     99 H99        24.5028  -24.1663  -42.3774 H         1 UNK         0.0839 
    100 H100       23.6412  -27.6498  -43.1424 H         1 UNK         0.2998 
    101 H101       25.5755  -29.5359  -44.2022 H         1 UNK         0.0822 
    102 H102       23.4979  -28.9372  -45.4507 H         1 UNK         0.0787 
    103 H103       23.5572  -30.6624  -45.1211 H         1 UNK         0.0787 
    104 H104       22.5112  -29.6287  -44.1604 H         1 UNK         0.0787 
    105 H105       23.3661  -29.4519  -41.4452 H         1 UNK         0.3055 
    106 H106       23.0632  -30.6827  -39.6279 H         1 UNK         0.1106 
    107 H107       25.0175  -31.7984  -38.5880 H         1 UNK         0.0828 
    108 H108       25.9115  -31.7080  -40.0987 H         1 UNK         0.0828 
    109 H109       25.4740  -30.2323  -39.2380 H         1 UNK         0.0828 
    110 H110       21.5009  -31.6645  -41.2696 H         1 UNK         0.2931 
    111 H111       21.6984  -34.6084  -41.1715 H         1 UNK         0.0412 
    112 H112       18.1229  -34.8713  -41.1988 H         1 UNK         0.3472 
    113 H113       19.5364  -35.6798  -41.8208 H         1 UNK         0.3472 
    114 H114       21.0266  -34.8173  -43.5624 H         1 UNK         0.0970 
    115 H115       22.5788  -34.0698  -43.3776 H         1 UNK         0.0970 
    116 H116       18.9733  -33.7993  -44.2299 H         1 UNK         0.0612 
    117 H117       19.6058  -33.5435  -45.8388 H         1 UNK         0.0612 
@<TRIPOS>BOND
     1    1    2 1    
     2    1   62 1    
     3    1   63 1    
     4    1   64 1    
     5    2    3 2    
     6    2    4 am   BACKBONE|DICT|INTERRES
     7    4    5 1    
     8    4   65 1    
     9    5    6 1    
    10    5   25 1    
    11    5   66 1    
    12    6    7 1    
    13    6   67 1    
    14    6   68 1    
    15    7    8 1    
    16    8    9 1    
    17    8   69 1    
    18    8   70 1    
    19    9   10 ar   
    20    9   14 ar   
    21   10   11 ar   
    22   10   71 1    
    23   11   12 ar   
    24   11   61 1    
    25   12   13 ar   
    26   12   72 1    
    27   13   14 ar   
    28   13   15 1    
    29   14   73 1    
    30   15   16 1    
    31   15   74 1    
    32   15   75 1    
    33   16   17 1    
    34   17   18 1    
    35   17   76 1    
    36   17   77 1    
    37   18   19 1    
    38   18   27 1    
    39   18   78 1    
    40   19   20 am   BACKBONE|DICT|INTERRES
    41   19   79 1    
    42   20   21 2    
    43   20   22 1    
    44   22   23 1    
    45   22   24 1    
    46   22   80 1    
    47   23   81 1    
    48   23   82 1    
    49   23   83 1    
    50   24   25 am   BACKBONE|DICT|INTERRES
    51   24   84 1    
    52   25   26 2    
    53   27   28 2    
    54   27   29 am   BACKBONE|DICT|INTERRES
    55   29   30 1    
    56   29   85 1    
    57   30   31 1    
    58   30   32 1    
    59   30   86 1    
    60   31   87 1    
    61   31   88 1    
    62   31   89 1    
    63   32   33 2    
    64   32   34 am   BACKBONE|DICT|INTERRES
    65   34   35 1    
    66   34   90 1    
    67   35   36 1    
    68   35   37 1    
    69   35   91 1    
    70   36   92 1    
    71   36   93 1    
    72   36   94 1    
    73   37   38 2    
    74   37   39 am   BACKBONE|DICT|INTERRES
    75   39   40 1    
    76   39   95 1    
    77   40   41 1    
    78   40   42 1    
    79   40   96 1    
    80   41   97 1    
    81   41   98 1    
    82   41   99 1    
    83   42   43 2    
    84   42   44 am   BACKBONE|DICT|INTERRES
    85   44   45 1    
    86   44  100 1    
    87   45   46 1    
    88   45   47 1    
    89   45  101 1    
    90   46  102 1    
    91   46  103 1    
    92   46  104 1    
    93   47   48 2    
    94   47   49 am   BACKBONE|DICT|INTERRES
    95   49   50 1    
    96   49  105 1    
    97   50   51 1    
    98   50   52 1    
    99   50  106 1    
   100   51  107 1    
   101   51  108 1    
   102   51  109 1    
   103   52   53 2    
   104   52   54 am   BACKBONE|DICT|INTERRES
   105   54   55 1    
   106   54  110 1    
   107   55   56 1    
   108   55   59 1    
   109   55  111 1    
   110   56   57 am   BACKBONE|DICT|INTERRES
   111   56   58 2    
   112   57  112 1    
   113   57  113 1    
   114   59   60 1    
   115   59  114 1    
   116   59  115 1    
   117   60   61 1    
   118   61  116 1    
   119   61  117 1    
@<TRIPOS>SUBSTRUCTURE
     1 UNK         1 GROUP             0       ****    0 ROOT    
