@<TRIPOS>MOLECULE
3R8
117   119    1
SMALL
USER_CHARGES


@<TRIPOS>ATOM
      1 CA         12.6522  -24.8747  -41.6122 C.3       0 UNK        -0.2013 
      2 C          13.4922  -25.1390  -42.8531 C.2       0 UNK         0.4866 
      3 O          13.0314  -24.8914  -43.9678 O.2       0 UNK        -0.5176 
      4 N          14.7185  -25.6384  -42.6691 N.am      1 UNK        -0.4884 
      5 CA         15.6830  -25.9168  -43.7324 C.3       1 UNK         0.0853 
      6 C6         15.3783  -27.2442  -44.4811 C.3       10 UNK        -0.0849 
      7 S7         16.1993  -27.3188  -46.1093 S.3       10 UNK        -0.2776 
      8 C8         16.3476  -29.1134  -46.3644 C.3       10 UNK         0.0316 
      9 C9         17.6203  -29.6708  -45.7439 C.ar      10 UNK        -0.0863 
     10 C10        17.6050  -30.2163  -44.4570 C.ar      10 UNK        -0.1009 
     11 C11        18.7652  -30.7672  -43.9038 C.ar      10 UNK        -0.0712 
     12 C12        19.9439  -30.7813  -44.6584 C.ar      10 UNK        -0.0894 
     13 C13        19.9728  -30.2390  -45.9468 C.ar      10 UNK        -0.0745 
     14 C14        18.8087  -29.6786  -46.4804 C.ar      10 UNK        -0.0972 
     15 C15        21.2441  -30.3140  -46.7827 C.3       10 UNK         0.0209 
     16 S16        22.4648  -29.0407  -46.3306 S.3       10 UNK        -0.2568 
     17 C17        21.7090  -27.5125  -46.9983 C.3       10 UNK        -0.0983 
     18 CA         21.4898  -26.4085  -45.9313 C.3       3 UNK         0.0876 
     19 N          20.7034  -26.9169  -44.8021 N.am      3 UNK        -0.4424 
     20 C          20.1962  -26.1922  -43.7992 C.2       2 UNK         0.4918 
     21 O          20.3719  -24.9810  -43.6634 O.2       2 UNK        -0.4875 
     22 CA         19.3111  -26.9692  -42.8126 C.3       2 UNK         0.0481 
     23 CB         19.5616  -26.5716  -41.3428 C.3       2 UNK        -0.1831 
     24 N          17.8996  -26.8619  -43.1980 N.am      2 UNK        -0.4498 
     25 C          17.0939  -25.7901  -43.1253 C.2       1 UNK         0.5027 
     26 O          17.4031  -24.7231  -42.5919 O.2       1 UNK        -0.4969 
     27 C          22.8262  -25.7295  -45.5485 C.2       3 UNK         0.5005 
     28 O          23.3080  -24.8867  -46.3083 O.2       3 UNK        -0.5279 
     29 N          23.4062  -26.1034  -44.4028 N.am      4 UNK        -0.4463 
     30 CA         24.6874  -25.6323  -43.8838 C.3       4 UNK         0.0283 
     31 CB         25.8428  -26.2767  -44.6788 C.3       4 UNK        -0.1875 
     32 C          24.7694  -26.0012  -42.3977 C.2       4 UNK         0.4949 
     33 O          23.8849  -26.6918  -41.8896 O.2       4 UNK        -0.5039 
     34 N          25.8541  -25.5923  -41.7267 N.am      5 UNK        -0.4663 
     35 CA         26.1490  -25.9614  -40.3335 C.3       5 UNK         0.0242 
     36 CB         27.3633  -25.1563  -39.8432 C.3       5 UNK        -0.1982 
     37 C          26.3845  -27.4725  -40.1268 C.2       5 UNK         0.5017 
     38 O          26.1823  -27.9725  -39.0205 O.2       5 UNK        -0.5012 
     39 N          26.7860  -28.1689  -41.1990 N.am      6 UNK        -0.4439 
     40 CA         26.9981  -29.6167  -41.2536 C.3       6 UNK         0.0297 
     41 CB         28.0291  -29.9164  -42.3562 C.3       6 UNK        -0.2006 
     42 C          25.7071  -30.4311  -41.4818 C.2       6 UNK         0.4892 
     43 O          25.7926  -31.6578  -41.5652 O.2       6 UNK        -0.5089 
     44 N          24.5440  -29.7707  -41.5977 N.am      7 UNK        -0.4243 
     45 CA         23.2315  -30.3782  -41.8480 C.3       7 UNK         0.0196 
     46 CB         22.2786  -29.2877  -42.3615 C.3       7 UNK        -0.2007 
     47 C          22.6603  -31.1105  -40.6163 C.2       7 UNK         0.5020 
     48 O          21.5940  -30.7519  -40.1122 O.2       7 UNK        -0.5147 
     49 N          23.3787  -32.1337  -40.1449 N.am      8 UNK        -0.4734 
     50 CA         23.0345  -32.9687  -38.9933 C.3       8 UNK         0.0238 
     51 CB         24.3252  -33.6097  -38.4489 C.3       8 UNK        -0.1912 
     52 C          21.9492  -34.0106  -39.3322 C.2       8 UNK         0.5038 
     53 O          22.2020  -35.2139  -39.2414 O.2       8 UNK        -0.5046 
     54 N          20.7608  -33.5312  -39.7206 N.am      9 UNK        -0.4200 
     55 CA         19.5687  -34.3555  -39.9862 C.3       9 UNK         0.0839 
     56 C          18.9260  -34.9874  -38.7154 C.2       9 UNK         0.5513 
     57 N          19.2517  -34.5414  -37.5077 N.am      9 UNK        -0.7519 
     58 O          18.1169  -35.9044  -38.8307 O.2       9 UNK        -0.4960 
     59 C59        18.4993  -33.5894  -40.8079 C.3       10 UNK        -0.0876 
     60 S60        19.0652  -33.1343  -42.4825 S.3       10 UNK        -0.2414 
     61 C61        18.7349  -31.3451  -42.4938 C.3       10 UNK         0.0169 
     62 H62        13.1791  -25.1442  -40.6970 H         1 UNK         0.0903 
     63 H63        12.3907  -23.8185  -41.5542 H         1 UNK         0.0903 
     64 H64        11.7293  -25.4525  -41.6541 H         1 UNK         0.0903 
     65 H65        15.0701  -25.7750  -41.7301 H         1 UNK         0.3096 
     66 H66        15.6107  -25.1008  -44.4559 H         1 UNK         0.1121 
     67 H67        15.6191  -28.1141  -43.8698 H         1 UNK         0.0849 
     68 H68        14.3074  -27.3200  -44.6761 H         1 UNK         0.0849 
     69 H69        15.4676  -29.6228  -45.9681 H         1 UNK         0.0865 
     70 H70        16.3479  -29.3133  -47.4371 H         1 UNK         0.0865 
     71 H71        16.6845  -30.2269  -43.8897 H         1 UNK         0.1346 
     72 H72        20.8370  -31.2332  -44.2492 H         1 UNK         0.1412 
     73 H73        18.8182  -29.2703  -47.4820 H         1 UNK         0.1426 
     74 H74        21.0144  -30.2340  -47.8465 H         1 UNK         0.0716 
     75 H75        21.7021  -31.2951  -46.6487 H         1 UNK         0.0716 
     76 H76        20.7530  -27.7559  -47.4622 H         1 UNK         0.0695 
     77 H77        22.3346  -27.1460  -47.8147 H         1 UNK         0.0695 
     78 H78        20.8864  -25.6246  -46.3944 H         1 UNK         0.0983 
     79 H79        20.4998  -27.9060  -44.8407 H         1 UNK         0.3095 
     80 H80        19.5603  -28.0274  -42.8987 H         1 UNK         0.0454 
     81 H81        20.5988  -26.7588  -41.0642 H         1 UNK         0.0851 
     82 H82        18.9338  -27.1479  -40.6637 H         1 UNK         0.0851 
     83 H83        19.3747  -25.5138  -41.1588 H         1 UNK         0.0851 
     84 H84        17.5406  -27.6625  -43.7000 H         1 UNK         0.2976 
     85 H85        22.9275  -26.7499  -43.7880 H         1 UNK         0.3116 
     86 H86        24.7326  -24.5449  -43.9705 H         1 UNK         0.0646 
     87 H87        25.7902  -26.0217  -45.7372 H         1 UNK         0.0847 
     88 H88        25.8256  -27.3647  -44.6007 H         1 UNK         0.0847 
     89 H89        26.8153  -25.9358  -44.3228 H         1 UNK         0.0847 
     90 H90        26.5364  -25.0160  -42.1998 H         1 UNK         0.3040 
     91 H91        25.2849  -25.6859  -39.7243 H         1 UNK         0.1015 
     92 H92        27.5909  -25.3886  -38.8017 H         1 UNK         0.0786 
     93 H93        27.1780  -24.0835  -39.8997 H         1 UNK         0.0786 
     94 H94        28.2573  -25.3756  -40.4284 H         1 UNK         0.0786 
     95 H95        26.9260  -27.6596  -42.0591 H         1 UNK         0.3172 
     96 H96        27.4181  -29.9448  -40.3006 H         1 UNK         0.0595 
     97 H97        28.2683  -30.9802  -42.3925 H         1 UNK         0.0839 
     98 H98        28.9650  -29.3854  -42.1807 H         1 UNK         0.0839 
     99 H99        27.6604  -29.6328  -43.3428 H         1 UNK         0.0839 
    100 H100       24.5489  -28.7631  -41.4959 H         1 UNK         0.2998 
    101 H101       23.3418  -31.1212  -42.6409 H         1 UNK         0.0822 
    102 H102       22.6577  -28.8235  -43.2708 H         1 UNK         0.0787 
    103 H103       21.2996  -29.6974  -42.5882 H         1 UNK         0.0787 
    104 H104       22.1254  -28.5110  -41.6133 H         1 UNK         0.0787 
    105 H105       24.2563  -32.3362  -40.6169 H         1 UNK         0.3055 
    106 H106       22.6274  -32.3284  -38.2073 H         1 UNK         0.1106 
    107 H107       25.0511  -32.8513  -38.1552 H         1 UNK         0.0828 
    108 H108       24.1193  -34.2173  -37.5666 H         1 UNK         0.0828 
    109 H109       24.7983  -34.2568  -39.1888 H         1 UNK         0.0828 
    110 H110       20.6594  -32.5261  -39.8120 H         1 UNK         0.2931 
    111 H111       19.8974  -35.1993  -40.5965 H         1 UNK         0.0412 
    112 H112       19.9075  -33.7849  -37.3991 H         1 UNK         0.3472 
    113 H113       18.8291  -34.9634  -36.6953 H         1 UNK         0.3472 
    114 H114       17.6041  -34.2012  -40.9372 H         1 UNK         0.0970 
    115 H115       18.1759  -32.7009  -40.2627 H         1 UNK         0.0970 
    116 H116       19.4656  -30.8382  -41.8647 H         1 UNK         0.0612 
    117 H117       17.7609  -31.1627  -42.0371 H         1 UNK         0.0612 
@<TRIPOS>BOND
     1    1    2 1    
     2    1   62 1    
     3    1   63 1    
     4    1   64 1    
     5    2    3 2    
     6    2    4 am   BACKBONE|DICT|INTERRES
     7    4    5 1    
     8    4   65 1    
     9    5    6 1    
    10    5   25 1    
    11    5   66 1    
    12    6    7 1    
    13    6   67 1    
    14    6   68 1    
    15    7    8 1    
    16    8    9 1    
    17    8   69 1    
    18    8   70 1    
    19    9   10 ar   
    20    9   14 ar   
    21   10   11 ar   
    22   10   71 1    
    23   11   12 ar   
    24   11   61 1    
    25   12   13 ar   
    26   12   72 1    
    27   13   14 ar   
    28   13   15 1    
    29   14   73 1    
    30   15   16 1    
    31   15   74 1    
    32   15   75 1    
    33   16   17 1    
    34   17   18 1    
    35   17   76 1    
    36   17   77 1    
    37   18   19 1    
    38   18   27 1    
    39   18   78 1    
    40   19   20 am   BACKBONE|DICT|INTERRES
    41   19   79 1    
    42   20   21 2    
    43   20   22 1    
    44   22   23 1    
    45   22   24 1    
    46   22   80 1    
    47   23   81 1    
    48   23   82 1    
    49   23   83 1    
    50   24   25 am   BACKBONE|DICT|INTERRES
    51   24   84 1    
    52   25   26 2    
    53   27   28 2    
    54   27   29 am   BACKBONE|DICT|INTERRES
    55   29   30 1    
    56   29   85 1    
    57   30   31 1    
    58   30   32 1    
    59   30   86 1    
    60   31   87 1    
    61   31   88 1    
    62   31   89 1    
    63   32   33 2    
    64   32   34 am   BACKBONE|DICT|INTERRES
    65   34   35 1    
    66   34   90 1    
    67   35   36 1    
    68   35   37 1    
    69   35   91 1    
    70   36   92 1    
    71   36   93 1    
    72   36   94 1    
    73   37   38 2    
    74   37   39 am   BACKBONE|DICT|INTERRES
    75   39   40 1    
    76   39   95 1    
    77   40   41 1    
    78   40   42 1    
    79   40   96 1    
    80   41   97 1    
    81   41   98 1    
    82   41   99 1    
    83   42   43 2    
    84   42   44 am   BACKBONE|DICT|INTERRES
    85   44   45 1    
    86   44  100 1    
    87   45   46 1    
    88   45   47 1    
    89   45  101 1    
    90   46  102 1    
    91   46  103 1    
    92   46  104 1    
    93   47   48 2    
    94   47   49 am   BACKBONE|DICT|INTERRES
    95   49   50 1    
    96   49  105 1    
    97   50   51 1    
    98   50   52 1    
    99   50  106 1    
   100   51  107 1    
   101   51  108 1    
   102   51  109 1    
   103   52   53 2    
   104   52   54 am   BACKBONE|DICT|INTERRES
   105   54   55 1    
   106   54  110 1    
   107   55   56 1    
   108   55   59 1    
   109   55  111 1    
   110   56   57 am   BACKBONE|DICT|INTERRES
   111   56   58 2    
   112   57  112 1    
   113   57  113 1    
   114   59   60 1    
   115   59  114 1    
   116   59  115 1    
   117   60   61 1    
   118   61  116 1    
   119   61  117 1    
@<TRIPOS>SUBSTRUCTURE
     1 UNK         1 GROUP             0       ****    0 ROOT    
