@<TRIPOS>MOLECULE
3R8
117   119    1
SMALL
USER_CHARGES


@<TRIPOS>ATOM
      1 CA         14.4966  -25.7580  -39.9867 C.3       0 UNK        -0.2013 
      2 C          15.7306  -26.2251  -40.7435 C.2       0 UNK         0.4866 
      3 O          16.7698  -26.4554  -40.1241 O.2       0 UNK        -0.5176 
      4 N          15.6162  -26.3629  -42.0730 N.am      1 UNK        -0.4884 
      5 CA         16.6517  -26.7855  -43.0291 C.3       1 UNK         0.0853 
      6 C6         17.2487  -28.1867  -42.7437 C.3       10 UNK        -0.0849 
      7 S7         16.0273  -29.5446  -42.7391 S.3       10 UNK        -0.2776 
      8 C8         16.1523  -30.2316  -44.4240 C.3       10 UNK         0.0316 
      9 C9         17.5733  -30.6191  -44.8164 C.ar      10 UNK        -0.0863 
     10 C10        18.1766  -31.7711  -44.3005 C.ar      10 UNK        -0.1009 
     11 C11        19.4716  -32.1315  -44.6945 C.ar      10 UNK        -0.0712 
     12 C12        20.1722  -31.3136  -45.5878 C.ar      10 UNK        -0.0894 
     13 C13        19.5817  -30.1553  -46.1018 C.ar      10 UNK        -0.0745 
     14 C14        18.2778  -29.8255  -45.7249 C.ar      10 UNK        -0.0972 
     15 C15        20.3283  -29.2754  -47.0943 C.3       10 UNK         0.0209 
     16 S16        20.4823  -27.5579  -46.5085 S.3       10 UNK        -0.2568 
     17 C17        21.8478  -27.7109  -45.3159 C.3       10 UNK        -0.0983 
     18 CA         22.1065  -26.3615  -44.6041 C.3       3 UNK         0.0876 
     19 N          21.0840  -26.0689  -43.5968 N.am      3 UNK        -0.4424 
     20 C          20.8090  -24.8371  -43.1482 C.2       2 UNK         0.4918 
     21 O          21.3470  -23.8203  -43.5919 O.2       2 UNK        -0.4875 
     22 CA         19.7696  -24.7185  -42.0131 C.3       2 UNK         0.0481 
     23 CB         19.2760  -23.2717  -41.8029 C.3       2 UNK        -0.1831 
     24 N          18.6275  -25.6275  -42.1521 N.am      2 UNK        -0.4498 
     25 C          17.7639  -25.7255  -43.1742 C.2       1 UNK         0.5027 
     26 O          17.8037  -25.0261  -44.1872 O.2       1 UNK        -0.4969 
     27 C          23.5045  -26.3382  -43.9607 C.2       3 UNK         0.5005 
     28 O          23.6687  -26.7742  -42.8193 O.2       3 UNK        -0.5279 
     29 N          24.5049  -25.8755  -44.7228 N.am      4 UNK        -0.4463 
     30 CA         25.9044  -25.7662  -44.2908 C.3       4 UNK         0.0283 
     31 CB         26.6996  -24.9902  -45.3537 C.3       4 UNK        -0.1875 
     32 C          26.5872  -27.1148  -43.9891 C.2       4 UNK         0.4949 
     33 O          27.6120  -27.1257  -43.3071 O.2       4 UNK        -0.5039 
     34 N          26.0205  -28.2156  -44.5038 N.am      5 UNK        -0.4663 
     35 CA         26.4909  -29.5838  -44.2944 C.3       5 UNK         0.0242 
     36 CB         25.7155  -30.5410  -45.2166 C.3       5 UNK        -0.1982 
     37 C          26.3975  -30.0371  -42.8277 C.2       5 UNK         0.5017 
     38 O          27.4019  -30.4953  -42.2812 O.2       5 UNK        -0.5012 
     39 N          25.2048  -29.9141  -42.2256 N.am      6 UNK        -0.4439 
     40 CA         24.9085  -30.4062  -40.8750 C.3       6 UNK         0.0297 
     41 CB         24.9293  -31.9538  -40.8493 C.3       6 UNK        -0.2006 
     42 C          23.5890  -29.8449  -40.3112 C.2       6 UNK         0.4892 
     43 O          22.9249  -30.5444  -39.5446 O.2       6 UNK        -0.5089 
     44 N          23.2102  -28.6125  -40.6853 N.am      7 UNK        -0.4243 
     45 CA         21.9572  -27.9342  -40.3261 C.3       7 UNK         0.0196 
     46 CB         21.8701  -27.6448  -38.8100 C.3       7 UNK        -0.2007 
     47 C          20.7378  -28.6805  -40.8926 C.2       7 UNK         0.5020 
     48 O          20.4019  -28.4629  -42.0561 O.2       7 UNK        -0.5147 
     49 N          20.1166  -29.5363  -40.0720 N.am      8 UNK        -0.4734 
     50 CA         19.0060  -30.4199  -40.4419 C.3       8 UNK         0.0238 
     51 CB         17.8387  -30.1858  -39.4663 C.3       8 UNK        -0.1912 
     52 C          19.4118  -31.9033  -40.4828 C.2       8 UNK         0.5038 
     53 O          18.5454  -32.7513  -40.7045 O.2       8 UNK        -0.5046 
     54 N          20.7055  -32.1915  -40.2891 N.am      9 UNK        -0.4200 
     55 CA         21.3241  -33.5243  -40.3263 C.3       9 UNK         0.0839 
     56 C          20.9355  -34.4185  -39.1104 C.2       9 UNK         0.5513 
     57 N          21.3073  -35.6923  -39.1182 N.am      9 UNK        -0.7519 
     58 O          20.3379  -33.9686  -38.1341 O.2       9 UNK        -0.4960 
     59 C59        21.1636  -34.2421  -41.7013 C.3       10 UNK        -0.0876 
     60 S60        21.5437  -33.1709  -43.1382 S.3       10 UNK        -0.2414 
     61 C61        20.0898  -33.4358  -44.2087 C.3       10 UNK         0.0169 
     62 H62        14.7073  -24.8234  -39.4675 H         1 UNK         0.0903 
     63 H63        13.6469  -25.5946  -40.6492 H         1 UNK         0.0903 
     64 H64        14.2095  -26.5027  -39.2447 H         1 UNK         0.0903 
     65 H65        14.7282  -26.1365  -42.4999 H         1 UNK         0.3096 
     66 H66        16.1582  -26.8406  -44.0011 H         1 UNK         0.1121 
     67 H67        18.0520  -28.4095  -43.4451 H         1 UNK         0.0849 
     68 H68        17.7232  -28.1890  -41.7644 H         1 UNK         0.0849 
     69 H69        15.5095  -31.1104  -44.4925 H         1 UNK         0.0865 
     70 H70        15.7432  -29.5064  -45.1292 H         1 UNK         0.0865 
     71 H71        17.6298  -32.3941  -43.6053 H         1 UNK         0.1346 
     72 H72        21.1722  -31.5914  -45.8917 H         1 UNK         0.1412 
     73 H73        17.8171  -28.9363  -46.1337 H         1 UNK         0.1426 
     74 H74        19.7825  -29.2748  -48.0387 H         1 UNK         0.0716 
     75 H75        21.3196  -29.6759  -47.3121 H         1 UNK         0.0716 
     76 H76        21.6216  -28.4999  -44.5954 H         1 UNK         0.0695 
     77 H77        22.7265  -28.0411  -45.8737 H         1 UNK         0.0695 
     78 H78        22.0813  -25.5679  -45.3551 H         1 UNK         0.0983 
     79 H79        20.6581  -26.8742  -43.1460 H         1 UNK         0.3095 
     80 H80        20.2849  -25.0237  -41.1016 H         1 UNK         0.0454 
     81 H81        20.1054  -22.6039  -41.5668 H         1 UNK         0.0851 
     82 H82        18.5684  -23.2103  -40.9762 H         1 UNK         0.0851 
     83 H83        18.7855  -22.8791  -42.6942 H         1 UNK         0.0851 
     84 H84        18.4203  -26.2015  -41.3412 H         1 UNK         0.2976 
     85 H85        24.2969  -25.5481  -45.6560 H         1 UNK         0.3116 
     86 H86        25.9190  -25.1871  -43.3650 H         1 UNK         0.0646 
     87 H87        26.7068  -25.5096  -46.3128 H         1 UNK         0.0847 
     88 H88        26.2866  -23.9938  -45.5122 H         1 UNK         0.0847 
     89 H89        27.7387  -24.8607  -45.0472 H         1 UNK         0.0847 
     90 H90        25.1928  -28.0973  -45.0676 H         1 UNK         0.3040 
     91 H91        27.5448  -29.6188  -44.5802 H         1 UNK         0.1015 
     92 H92        26.0492  -31.5705  -45.0780 H         1 UNK         0.0786 
     93 H93        25.8713  -30.2919  -46.2665 H         1 UNK         0.0786 
     94 H94        24.6423  -30.5186  -45.0229 H         1 UNK         0.0786 
     95 H95        24.4360  -29.5093  -42.7421 H         1 UNK         0.3172 
     96 H96        25.6922  -30.0445  -40.2065 H         1 UNK         0.0595 
     97 H97        24.1833  -32.3711  -41.5262 H         1 UNK         0.0839 
     98 H98        24.7227  -32.3400  -39.8504 H         1 UNK         0.0839 
     99 H99        25.8999  -32.3556  -41.1379 H         1 UNK         0.0839 
    100 H100       23.7784  -28.0915  -41.3472 H         1 UNK         0.2998 
    101 H101       21.9785  -26.9662  -40.8275 H         1 UNK         0.0822 
    102 H102       20.9392  -27.1310  -38.5655 H         1 UNK         0.0787 
    103 H103       22.6861  -26.9954  -38.4929 H         1 UNK         0.0787 
    104 H104       21.9160  -28.5464  -38.1996 H         1 UNK         0.0787 
    105 H105       20.5001  -29.6600  -39.1448 H         1 UNK         0.3055 
    106 H106       18.6712  -30.1974  -41.4553 H         1 UNK         0.1106 
    107 H107       17.5272  -29.1411  -39.4636 H         1 UNK         0.0828 
    108 H108       16.9674  -30.7778  -39.7496 H         1 UNK         0.0828 
    109 H109       18.1048  -30.4607  -38.4452 H         1 UNK         0.0828 
    110 H110       21.3507  -31.4359  -40.0784 H         1 UNK         0.2931 
    111 H111       22.3866  -33.3273  -40.1896 H         1 UNK         0.0412 
    112 H112       21.0731  -36.2721  -38.3270 H         1 UNK         0.3472 
    113 H113       21.8260  -36.0857  -39.8874 H         1 UNK         0.3472 
    114 H114       21.8328  -35.1013  -41.7596 H         1 UNK         0.0970 
    115 H115       20.1553  -34.6485  -41.7847 H         1 UNK         0.0970 
    116 H116       19.3336  -34.0340  -43.7005 H         1 UNK         0.0612 
    117 H117       20.4011  -34.0244  -45.0727 H         1 UNK         0.0612 
@<TRIPOS>BOND
     1    1    2 1    
     2    1   62 1    
     3    1   63 1    
     4    1   64 1    
     5    2    3 2    
     6    2    4 am   BACKBONE|DICT|INTERRES
     7    4    5 1    
     8    4   65 1    
     9    5    6 1    
    10    5   25 1    
    11    5   66 1    
    12    6    7 1    
    13    6   67 1    
    14    6   68 1    
    15    7    8 1    
    16    8    9 1    
    17    8   69 1    
    18    8   70 1    
    19    9   10 ar   
    20    9   14 ar   
    21   10   11 ar   
    22   10   71 1    
    23   11   12 ar   
    24   11   61 1    
    25   12   13 ar   
    26   12   72 1    
    27   13   14 ar   
    28   13   15 1    
    29   14   73 1    
    30   15   16 1    
    31   15   74 1    
    32   15   75 1    
    33   16   17 1    
    34   17   18 1    
    35   17   76 1    
    36   17   77 1    
    37   18   19 1    
    38   18   27 1    
    39   18   78 1    
    40   19   20 am   BACKBONE|DICT|INTERRES
    41   19   79 1    
    42   20   21 2    
    43   20   22 1    
    44   22   23 1    
    45   22   24 1    
    46   22   80 1    
    47   23   81 1    
    48   23   82 1    
    49   23   83 1    
    50   24   25 am   BACKBONE|DICT|INTERRES
    51   24   84 1    
    52   25   26 2    
    53   27   28 2    
    54   27   29 am   BACKBONE|DICT|INTERRES
    55   29   30 1    
    56   29   85 1    
    57   30   31 1    
    58   30   32 1    
    59   30   86 1    
    60   31   87 1    
    61   31   88 1    
    62   31   89 1    
    63   32   33 2    
    64   32   34 am   BACKBONE|DICT|INTERRES
    65   34   35 1    
    66   34   90 1    
    67   35   36 1    
    68   35   37 1    
    69   35   91 1    
    70   36   92 1    
    71   36   93 1    
    72   36   94 1    
    73   37   38 2    
    74   37   39 am   BACKBONE|DICT|INTERRES
    75   39   40 1    
    76   39   95 1    
    77   40   41 1    
    78   40   42 1    
    79   40   96 1    
    80   41   97 1    
    81   41   98 1    
    82   41   99 1    
    83   42   43 2    
    84   42   44 am   BACKBONE|DICT|INTERRES
    85   44   45 1    
    86   44  100 1    
    87   45   46 1    
    88   45   47 1    
    89   45  101 1    
    90   46  102 1    
    91   46  103 1    
    92   46  104 1    
    93   47   48 2    
    94   47   49 am   BACKBONE|DICT|INTERRES
    95   49   50 1    
    96   49  105 1    
    97   50   51 1    
    98   50   52 1    
    99   50  106 1    
   100   51  107 1    
   101   51  108 1    
   102   51  109 1    
   103   52   53 2    
   104   52   54 am   BACKBONE|DICT|INTERRES
   105   54   55 1    
   106   54  110 1    
   107   55   56 1    
   108   55   59 1    
   109   55  111 1    
   110   56   57 am   BACKBONE|DICT|INTERRES
   111   56   58 2    
   112   57  112 1    
   113   57  113 1    
   114   59   60 1    
   115   59  114 1    
   116   59  115 1    
   117   60   61 1    
   118   61  116 1    
   119   61  117 1    
@<TRIPOS>SUBSTRUCTURE
     1 UNK         1 GROUP             0       ****    0 ROOT    
