@<TRIPOS>MOLECULE
3R8
117   119    1
SMALL
USER_CHARGES


@<TRIPOS>ATOM
      1 CA         16.1407  -23.0949  -42.1077 C.3       0 UNK        -0.2013 
      2 C          16.4145  -23.6412  -43.5010 C.2       0 UNK         0.4866 
      3 O          16.3473  -22.8925  -44.4768 O.2       0 UNK        -0.5176 
      4 N          16.7127  -24.9422  -43.6026 N.am      1 UNK        -0.4884 
      5 CA         17.0527  -25.6295  -44.8537 C.3       1 UNK         0.0853 
      6 C6         16.9909  -27.1685  -44.7012 C.3       10 UNK        -0.0849 
      7 S7         15.3712  -27.7788  -44.1137 S.3       10 UNK        -0.2776 
      8 C8         15.4995  -29.5724  -44.4405 C.3       10 UNK         0.0316 
      9 C9         16.8408  -30.1394  -43.9950 C.ar      10 UNK        -0.0863 
     10 C10        17.1768  -30.1738  -42.6390 C.ar      10 UNK        -0.1009 
     11 C11        18.4465  -30.5876  -42.2251 C.ar      10 UNK        -0.0712 
     12 C12        19.3794  -30.9839  -43.1934 C.ar      10 UNK        -0.0894 
     13 C13        19.0441  -30.9841  -44.5515 C.ar      10 UNK        -0.0745 
     14 C14        17.7709  -30.5677  -44.9453 C.ar      10 UNK        -0.0972 
     15 C15        20.0648  -31.4018  -45.6017 C.3       10 UNK         0.0209 
     16 S16        20.6785  -29.9778  -46.5602 S.3       10 UNK        -0.2568 
     17 C17        21.5511  -29.0510  -45.2573 C.3       10 UNK        -0.0983 
     18 CA         22.0686  -27.6633  -45.7061 C.3       3 UNK         0.0876 
     19 N          21.0027  -26.8493  -46.2996 N.am      3 UNK        -0.4424 
     20 C          21.1742  -25.6781  -46.9265 C.2       2 UNK         0.4918 
     21 O          22.2767  -25.1771  -47.1484 O.2       2 UNK        -0.4875 
     22 CA         19.9050  -24.9224  -47.3709 C.3       2 UNK         0.0481 
     23 CB         19.6943  -25.0852  -48.8849 C.3       2 UNK        -0.1831 
     24 N          18.6673  -25.2991  -46.6716 N.am      2 UNK        -0.4498 
     25 C          18.4532  -25.2109  -45.3499 C.2       1 UNK         0.5027 
     26 O          19.3215  -24.8788  -44.5370 O.2       1 UNK        -0.4969 
     27 C          22.7556  -26.9728  -44.5053 C.2       3 UNK         0.5005 
     28 O          23.9229  -27.2661  -44.2411 O.2       3 UNK        -0.5279 
     29 N          22.0165  -26.0932  -43.8056 N.am      4 UNK        -0.4463 
     30 CA         22.3509  -25.4204  -42.5439 C.3       4 UNK         0.0283 
     31 CB         23.6536  -24.6003  -42.6683 C.3       4 UNK        -0.1875 
     32 C          22.3888  -26.3787  -41.3362 C.2       4 UNK         0.4949 
     33 O          22.3425  -27.6006  -41.4871 O.2       4 UNK        -0.5039 
     34 N          22.4743  -25.7941  -40.1336 N.am      5 UNK        -0.4663 
     35 CA         22.4777  -26.5059  -38.8474 C.3       5 UNK         0.0242 
     36 CB         22.2854  -25.4841  -37.7142 C.3       5 UNK        -0.1982 
     37 C          23.7320  -27.3652  -38.5914 C.2       5 UNK         0.5017 
     38 O          23.7116  -28.2023  -37.6892 O.2       5 UNK        -0.5012 
     39 N          24.7951  -27.1445  -39.3763 N.am      6 UNK        -0.4439 
     40 CA         26.0449  -27.9072  -39.3433 C.3       6 UNK         0.0297 
     41 CB         27.1386  -27.0933  -40.0553 C.3       6 UNK        -0.2006 
     42 C          25.9332  -29.3146  -39.9641 C.2       6 UNK         0.4892 
     43 O          26.8347  -30.1275  -39.7520 O.2       6 UNK        -0.5089 
     44 N          24.8670  -29.5765  -40.7339 N.am      7 UNK        -0.4243 
     45 CA         24.6053  -30.8600  -41.3874 C.3       7 UNK         0.0196 
     46 CB         23.5136  -30.6514  -42.4476 C.3       7 UNK        -0.2007 
     47 C          24.1875  -31.9595  -40.3955 C.2       7 UNK         0.5020 
     48 O          23.7089  -31.6638  -39.2989 O.2       7 UNK        -0.5147 
     49 N          24.3449  -33.2200  -40.8226 N.am      8 UNK        -0.4734 
     50 CA         23.9030  -34.4044  -40.0758 C.3       8 UNK         0.0238 
     51 CB         24.6171  -35.6498  -40.6265 C.3       8 UNK        -0.1912 
     52 C          22.3757  -34.6013  -40.1062 C.2       8 UNK         0.5038 
     53 O          21.8287  -35.1857  -39.1703 O.2       8 UNK        -0.5046 
     54 N          21.7282  -34.1104  -41.1735 N.am      9 UNK        -0.4200 
     55 CA         20.2692  -34.1059  -41.3923 C.3       9 UNK         0.0839 
     56 C          19.6328  -35.5145  -41.5975 C.2       9 UNK         0.5513 
     57 N          20.4042  -36.5450  -41.9228 N.am      9 UNK        -0.7519 
     58 O          18.4194  -35.6751  -41.4924 O.2       9 UNK        -0.4960 
     59 C59        19.4988  -33.2452  -40.3471 C.3       10 UNK        -0.0876 
     60 S60        20.1724  -31.5547  -40.1763 S.3       10 UNK        -0.2414 
     61 C61        18.7787  -30.5182  -40.7336 C.3       10 UNK         0.0169 
     62 H62        16.2186  -23.8683  -41.3437 H         1 UNK         0.0903 
     63 H63        16.8545  -22.3076  -41.8670 H         1 UNK         0.0903 
     64 H64        15.1375  -22.6721  -42.0606 H         1 UNK         0.0903 
     65 H65        16.7568  -25.5117  -42.7698 H         1 UNK         0.3096 
     66 H66        16.3219  -25.3271  -45.6075 H         1 UNK         0.1121 
     67 H67        17.7581  -27.5096  -44.0022 H         1 UNK         0.0849 
     68 H68        17.2075  -27.6537  -45.6551 H         1 UNK         0.0849 
     69 H69        14.6933  -30.0910  -43.9197 H         1 UNK         0.0865 
     70 H70        15.3393  -29.7493  -45.5052 H         1 UNK         0.0865 
     71 H71        16.4585  -29.8305  -41.9067 H         1 UNK         0.1346 
     72 H72        20.3776  -31.2730  -42.8992 H         1 UNK         0.1412 
     73 H73        17.5228  -30.5397  -45.9978 H         1 UNK         0.1426 
     74 H74        19.6055  -32.1170  -46.2856 H         1 UNK         0.0716 
     75 H75        20.9092  -31.9174  -45.1412 H         1 UNK         0.0716 
     76 H76        22.3819  -29.6725  -44.9240 H         1 UNK         0.0695 
     77 H77        20.8839  -28.9386  -44.4008 H         1 UNK         0.0695 
     78 H78        22.8317  -27.8126  -46.4730 H         1 UNK         0.0983 
     79 H79        20.0659  -27.2093  -46.2013 H         1 UNK         0.3095 
     80 H80        20.0789  -23.8642  -47.1657 H         1 UNK         0.0454 
     81 H81        20.5837  -24.7814  -49.4390 H         1 UNK         0.0851 
     82 H82        18.8697  -24.4681  -49.2418 H         1 UNK         0.0851 
     83 H83        19.4824  -26.1208  -49.1541 H         1 UNK         0.0851 
     84 H84        17.9058  -25.6036  -47.2618 H         1 UNK         0.2976 
     85 H85        21.0730  -25.9129  -44.1337 H         1 UNK         0.3116 
     86 H86        21.5314  -24.7223  -42.3653 H         1 UNK         0.0646 
     87 H87        23.7887  -23.9377  -41.8131 H         1 UNK         0.0847 
     88 H88        24.5362  -25.2382  -42.7226 H         1 UNK         0.0847 
     89 H89        23.6413  -23.9719  -43.5589 H         1 UNK         0.0847 
     90 H90        22.5032  -24.7851  -40.0863 H         1 UNK         0.3040 
     91 H91        21.6243  -27.1881  -38.8422 H         1 UNK         0.1015 
     92 H92        22.2451  -25.9793  -36.7428 H         1 UNK         0.0786 
     93 H93        21.3527  -24.9316  -37.8305 H         1 UNK         0.0786 
     94 H94        23.1029  -24.7628  -37.6778 H         1 UNK         0.0786 
     95 H95        24.7130  -26.4305  -40.0850 H         1 UNK         0.3172 
     96 H96        26.3404  -28.0348  -38.2997 H         1 UNK         0.0595 
     97 H97        26.8992  -26.9275  -41.1066 H         1 UNK         0.0839 
     98 H98        28.0978  -27.6119  -40.0186 H         1 UNK         0.0839 
     99 H99        27.2819  -26.1206  -39.5842 H         1 UNK         0.0839 
    100 H100       24.1517  -28.8671  -40.8356 H         1 UNK         0.2998 
    101 H101       25.5229  -31.1769  -41.8880 H         1 UNK         0.0822 
    102 H102       23.3288  -31.5612  -43.0193 H         1 UNK         0.0787 
    103 H103       22.5681  -30.3460  -41.9967 H         1 UNK         0.0787 
    104 H104       23.8109  -29.8771  -43.1540 H         1 UNK         0.0787 
    105 H105       24.7623  -33.3817  -41.7286 H         1 UNK         0.3055 
    106 H106       24.1917  -34.2798  -39.0293 H         1 UNK         0.1106 
    107 H107       24.3816  -35.8229  -41.6772 H         1 UNK         0.0828 
    108 H108       25.6997  -35.5592  -40.5349 H         1 UNK         0.0828 
    109 H109       24.3221  -36.5438  -40.0751 H         1 UNK         0.0828 
    110 H110       22.2778  -33.6620  -41.8897 H         1 UNK         0.2931 
    111 H111       20.1367  -33.6201  -42.3585 H         1 UNK         0.0412 
    112 H112       19.9851  -37.4510  -42.0639 H         1 UNK         0.3472 
    113 H113       21.3997  -36.4278  -42.0213 H         1 UNK         0.3472 
    114 H114       18.4433  -33.1783  -40.6168 H         1 UNK         0.0970 
    115 H115       19.5262  -33.7233  -39.3667 H         1 UNK         0.0970 
    116 H116       19.0151  -29.4815  -40.4906 H         1 UNK         0.0612 
    117 H117       17.8991  -30.7798  -40.1432 H         1 UNK         0.0612 
@<TRIPOS>BOND
     1    1    2 1    
     2    1   62 1    
     3    1   63 1    
     4    1   64 1    
     5    2    3 2    
     6    2    4 am   BACKBONE|DICT|INTERRES
     7    4    5 1    
     8    4   65 1    
     9    5    6 1    
    10    5   25 1    
    11    5   66 1    
    12    6    7 1    
    13    6   67 1    
    14    6   68 1    
    15    7    8 1    
    16    8    9 1    
    17    8   69 1    
    18    8   70 1    
    19    9   10 ar   
    20    9   14 ar   
    21   10   11 ar   
    22   10   71 1    
    23   11   12 ar   
    24   11   61 1    
    25   12   13 ar   
    26   12   72 1    
    27   13   14 ar   
    28   13   15 1    
    29   14   73 1    
    30   15   16 1    
    31   15   74 1    
    32   15   75 1    
    33   16   17 1    
    34   17   18 1    
    35   17   76 1    
    36   17   77 1    
    37   18   19 1    
    38   18   27 1    
    39   18   78 1    
    40   19   20 am   BACKBONE|DICT|INTERRES
    41   19   79 1    
    42   20   21 2    
    43   20   22 1    
    44   22   23 1    
    45   22   24 1    
    46   22   80 1    
    47   23   81 1    
    48   23   82 1    
    49   23   83 1    
    50   24   25 am   BACKBONE|DICT|INTERRES
    51   24   84 1    
    52   25   26 2    
    53   27   28 2    
    54   27   29 am   BACKBONE|DICT|INTERRES
    55   29   30 1    
    56   29   85 1    
    57   30   31 1    
    58   30   32 1    
    59   30   86 1    
    60   31   87 1    
    61   31   88 1    
    62   31   89 1    
    63   32   33 2    
    64   32   34 am   BACKBONE|DICT|INTERRES
    65   34   35 1    
    66   34   90 1    
    67   35   36 1    
    68   35   37 1    
    69   35   91 1    
    70   36   92 1    
    71   36   93 1    
    72   36   94 1    
    73   37   38 2    
    74   37   39 am   BACKBONE|DICT|INTERRES
    75   39   40 1    
    76   39   95 1    
    77   40   41 1    
    78   40   42 1    
    79   40   96 1    
    80   41   97 1    
    81   41   98 1    
    82   41   99 1    
    83   42   43 2    
    84   42   44 am   BACKBONE|DICT|INTERRES
    85   44   45 1    
    86   44  100 1    
    87   45   46 1    
    88   45   47 1    
    89   45  101 1    
    90   46  102 1    
    91   46  103 1    
    92   46  104 1    
    93   47   48 2    
    94   47   49 am   BACKBONE|DICT|INTERRES
    95   49   50 1    
    96   49  105 1    
    97   50   51 1    
    98   50   52 1    
    99   50  106 1    
   100   51  107 1    
   101   51  108 1    
   102   51  109 1    
   103   52   53 2    
   104   52   54 am   BACKBONE|DICT|INTERRES
   105   54   55 1    
   106   54  110 1    
   107   55   56 1    
   108   55   59 1    
   109   55  111 1    
   110   56   57 am   BACKBONE|DICT|INTERRES
   111   56   58 2    
   112   57  112 1    
   113   57  113 1    
   114   59   60 1    
   115   59  114 1    
   116   59  115 1    
   117   60   61 1    
   118   61  116 1    
   119   61  117 1    
@<TRIPOS>SUBSTRUCTURE
     1 UNK         1 GROUP             0       ****    0 ROOT    
