@<TRIPOS>MOLECULE
3R8
117   119    1
SMALL
USER_CHARGES


@<TRIPOS>ATOM
      1 CA         14.5529  -23.6028  -41.6274 C.3       0 UNK        -0.2013 
      2 C          14.9807  -24.4837  -42.7916 C.2       0 UNK         0.4866 
      3 O          14.5357  -24.2665  -43.9187 O.2       0 UNK        -0.5176 
      4 N          15.8388  -25.4783  -42.5275 N.am      1 UNK        -0.4884 
      5 CA         16.3582  -26.4235  -43.5246 C.3       1 UNK         0.0853 
      6 C6         17.0446  -27.6411  -42.8551 C.3       10 UNK        -0.0849 
      7 S7         15.8442  -28.8619  -42.2191 S.3       10 UNK        -0.2776 
      8 C8         15.3123  -29.7465  -43.7314 C.3       10 UNK         0.0316 
      9 C9         16.4882  -30.2018  -44.5847 C.ar      10 UNK        -0.0863 
     10 C10        17.2718  -31.2858  -44.1854 C.ar      10 UNK        -0.1009 
     11 C11        18.4140  -31.6376  -44.9107 C.ar      10 UNK        -0.0712 
     12 C12        18.7404  -30.9308  -46.0724 C.ar      10 UNK        -0.0894 
     13 C13        17.9754  -29.8282  -46.4716 C.ar      10 UNK        -0.0745 
     14 C14        16.8348  -29.4910  -45.7372 C.ar      10 UNK        -0.0972 
     15 C15        18.3783  -28.9515  -47.6577 C.3       10 UNK         0.0209 
     16 S16        20.1721  -28.6157  -47.8322 S.3       10 UNK        -0.2568 
     17 C17        20.8049  -28.3969  -46.1324 C.3       10 UNK        -0.0983 
     18 CA         21.3227  -26.9678  -45.8297 C.3       3 UNK         0.0876 
     19 N          20.2220  -26.0358  -45.5569 N.am      3 UNK        -0.4424 
     20 C          20.3343  -24.7299  -45.2750 C.2       2 UNK         0.4918 
     21 O          21.4035  -24.1202  -45.2893 O.2       2 UNK        -0.4875 
     22 CA         19.0531  -23.9588  -44.8881 C.3       2 UNK         0.0481 
     23 CB         18.4266  -23.2818  -46.1228 C.3       2 UNK        -0.1831 
     24 N          18.0525  -24.7294  -44.1283 N.am      2 UNK        -0.4498 
     25 C          17.3144  -25.7702  -44.5427 C.2       1 UNK         0.5027 
     26 O          17.3938  -26.2480  -45.6733 O.2       1 UNK        -0.4969 
     27 C          22.3272  -27.0321  -44.6611 C.2       3 UNK         0.5005 
     28 O          23.5296  -26.8718  -44.8812 O.2       3 UNK        -0.5279 
     29 N          21.8079  -27.2964  -43.4510 N.am      4 UNK        -0.4463 
     30 CA         22.5031  -27.5220  -42.1743 C.3       4 UNK         0.0283 
     31 CB         23.2805  -26.2718  -41.7199 C.3       4 UNK        -0.1875 
     32 C          23.4003  -28.7741  -42.1501 C.2       4 UNK         0.4949 
     33 O          23.2508  -29.5965  -41.2471 O.2       4 UNK        -0.5039 
     34 N          24.3094  -28.8956  -43.1273 N.am      5 UNK        -0.4663 
     35 CA         25.2620  -29.9942  -43.3385 C.3       5 UNK         0.0242 
     36 CB         24.5133  -31.2625  -43.7986 C.3       5 UNK        -0.1982 
     37 C          26.1610  -30.2431  -42.1120 C.2       5 UNK         0.5017 
     38 O          26.2836  -31.3801  -41.6577 O.2       5 UNK        -0.5012 
     39 N          26.7259  -29.1559  -41.5634 N.am      6 UNK        -0.4439 
     40 CA         27.5079  -29.1088  -40.3173 C.3       6 UNK         0.0297 
     41 CB         28.8493  -29.8568  -40.4757 C.3       6 UNK        -0.2006 
     42 C          26.6979  -29.5759  -39.0876 C.2       6 UNK         0.4892 
     43 O          27.2356  -30.2550  -38.2116 O.2       6 UNK        -0.5089 
     44 N          25.4106  -29.1993  -39.0692 N.am      7 UNK        -0.4243 
     45 CA         24.3769  -29.5338  -38.0828 C.3       7 UNK         0.0196 
     46 CB         24.7550  -29.0308  -36.6726 C.3       7 UNK        -0.2007 
     47 C          23.9445  -31.0143  -38.0960 C.2       7 UNK         0.5020 
     48 O          23.3373  -31.4692  -37.1251 O.2       7 UNK        -0.5147 
     49 N          24.2239  -31.7423  -39.1878 N.am      8 UNK        -0.4734 
     50 CA         23.7265  -33.1043  -39.4039 C.3       8 UNK         0.0238 
     51 CB         24.5883  -33.8216  -40.4541 C.3       8 UNK        -0.1912 
     52 C          22.2457  -33.1235  -39.8181 C.2       8 UNK         0.5038 
     53 O          21.5378  -34.0631  -39.4524 O.2       8 UNK        -0.5046 
     54 N          21.8031  -32.0974  -40.5571 N.am      9 UNK        -0.4200 
     55 CA         20.3955  -31.8847  -40.9132 C.3       9 UNK         0.0839 
     56 C          19.6549  -31.1544  -39.7640 C.2       9 UNK         0.5513 
     57 N          18.4438  -31.5817  -39.4353 N.am      9 UNK        -0.7519 
     58 O          20.1495  -30.1809  -39.1997 O.2       9 UNK        -0.4960 
     59 C59        20.2475  -31.1051  -42.2425 C.3       10 UNK        -0.0876 
     60 S60        20.8670  -32.0452  -43.6822 S.3       10 UNK        -0.2414 
     61 C61        19.3361  -32.7340  -44.3990 C.3       10 UNK         0.0169 
     62 H62        13.4718  -23.6494  -41.4996 H         1 UNK         0.0903 
     63 H63        15.0181  -23.9090  -40.6905 H         1 UNK         0.0903 
     64 H64        14.8288  -22.5664  -41.8201 H         1 UNK         0.0903 
     65 H65        16.1467  -25.6277  -41.5766 H         1 UNK         0.3096 
     66 H66        15.5094  -26.7809  -44.1117 H         1 UNK         0.1121 
     67 H67        17.7349  -28.1498  -43.5292 H         1 UNK         0.0849 
     68 H68        17.6696  -27.3133  -42.0225 H         1 UNK         0.0849 
     69 H69        14.7154  -30.6130  -43.4430 H         1 UNK         0.0865 
     70 H70        14.6466  -29.1029  -44.3084 H         1 UNK         0.0865 
     71 H71        17.0223  -31.8181  -43.2775 H         1 UNK         0.1346 
     72 H72        19.6321  -31.1962  -46.6235 H         1 UNK         0.1412 
     73 H73        16.2421  -28.6369  -46.0355 H         1 UNK         0.1426 
     74 H74        17.8699  -27.9883  -47.6038 H         1 UNK         0.0716 
     75 H75        18.0258  -29.4262  -48.5739 H         1 UNK         0.0716 
     76 H76        21.6054  -29.1334  -46.0283 H         1 UNK         0.0695 
     77 H77        20.0566  -28.6785  -45.3922 H         1 UNK         0.0695 
     78 H78        21.8669  -26.5940  -46.6997 H         1 UNK         0.0983 
     79 H79        19.2804  -26.4116  -45.6154 H         1 UNK         0.3095 
     80 H80        19.3698  -23.1628  -44.2122 H         1 UNK         0.0454 
     81 H81        19.1414  -22.6118  -46.6021 H         1 UNK         0.0851 
     82 H82        17.5566  -22.6849  -45.8492 H         1 UNK         0.0851 
     83 H83        18.1129  -24.0069  -46.8742 H         1 UNK         0.0851 
     84 H84        17.9214  -24.4330  -43.1709 H         1 UNK         0.2976 
     85 H85        20.8059  -27.4138  -43.4089 H         1 UNK         0.3116 
     86 H86        21.7145  -27.6947  -41.4397 H         1 UNK         0.0646 
     87 H87        24.0984  -26.0251  -42.3973 H         1 UNK         0.0847 
     88 H88        22.6266  -25.4019  -41.6586 H         1 UNK         0.0847 
     89 H89        23.7131  -26.4205  -40.7298 H         1 UNK         0.0847 
     90 H90        24.3116  -28.1568  -43.8296 H         1 UNK         0.3040 
     91 H91        25.9252  -29.6881  -44.1491 H         1 UNK         0.1015 
     92 H92        25.2105  -32.0651  -44.0421 H         1 UNK         0.0786 
     93 H93        23.9167  -31.0692  -44.6901 H         1 UNK         0.0786 
     94 H94        23.8422  -31.6370  -43.0255 H         1 UNK         0.0786 
     95 H95        26.5550  -28.2655  -42.0110 H         1 UNK         0.3172 
     96 H96        27.7396  -28.0571  -40.1424 H         1 UNK         0.0595 
     97 H97        28.7045  -30.9315  -40.5899 H         1 UNK         0.0839 
     98 H98        29.4847  -29.7079  -39.6017 H         1 UNK         0.0839 
     99 H99        29.4044  -29.4988  -41.3426 H         1 UNK         0.0839 
    100 H100       25.0707  -28.6951  -39.8758 H         1 UNK         0.2998 
    101 H101       23.4910  -28.9781  -38.3950 H         1 UNK         0.0822 
    102 H102       23.9112  -29.1189  -35.9871 H         1 UNK         0.0787 
    103 H103       25.0468  -27.9808  -36.6898 H         1 UNK         0.0787 
    104 H104       25.5785  -29.6028  -36.2444 H         1 UNK         0.0787 
    105 H105       24.7287  -31.3093  -39.9521 H         1 UNK         0.3055 
    106 H106       23.8137  -33.6571  -38.4656 H         1 UNK         0.1106 
    107 H107       25.6429  -33.8125  -40.1780 H         1 UNK         0.0828 
    108 H108       24.2874  -34.8650  -40.5561 H         1 UNK         0.0828 
    109 H109       24.4952  -33.3611  -41.4376 H         1 UNK         0.0828 
    110 H110       22.4329  -31.3291  -40.7672 H         1 UNK         0.2931 
    111 H111       19.9224  -32.8589  -41.0559 H         1 UNK         0.0412 
    112 H112       17.9396  -31.1071  -38.7026 H         1 UNK         0.3472 
    113 H113       18.0268  -32.3755  -39.8961 H         1 UNK         0.3472 
    114 H114       20.7874  -30.1600  -42.1929 H         1 UNK         0.0970 
    115 H115       19.2066  -30.8293  -42.4063 H         1 UNK         0.0970 
    116 H116       18.8344  -33.3496  -43.6508 H         1 UNK         0.0612 
    117 H117       19.5989  -33.4000  -45.2219 H         1 UNK         0.0612 
@<TRIPOS>BOND
     1    1    2 1    
     2    1   62 1    
     3    1   63 1    
     4    1   64 1    
     5    2    3 2    
     6    2    4 am   BACKBONE|DICT|INTERRES
     7    4    5 1    
     8    4   65 1    
     9    5    6 1    
    10    5   25 1    
    11    5   66 1    
    12    6    7 1    
    13    6   67 1    
    14    6   68 1    
    15    7    8 1    
    16    8    9 1    
    17    8   69 1    
    18    8   70 1    
    19    9   10 ar   
    20    9   14 ar   
    21   10   11 ar   
    22   10   71 1    
    23   11   12 ar   
    24   11   61 1    
    25   12   13 ar   
    26   12   72 1    
    27   13   14 ar   
    28   13   15 1    
    29   14   73 1    
    30   15   16 1    
    31   15   74 1    
    32   15   75 1    
    33   16   17 1    
    34   17   18 1    
    35   17   76 1    
    36   17   77 1    
    37   18   19 1    
    38   18   27 1    
    39   18   78 1    
    40   19   20 am   BACKBONE|DICT|INTERRES
    41   19   79 1    
    42   20   21 2    
    43   20   22 1    
    44   22   23 1    
    45   22   24 1    
    46   22   80 1    
    47   23   81 1    
    48   23   82 1    
    49   23   83 1    
    50   24   25 am   BACKBONE|DICT|INTERRES
    51   24   84 1    
    52   25   26 2    
    53   27   28 2    
    54   27   29 am   BACKBONE|DICT|INTERRES
    55   29   30 1    
    56   29   85 1    
    57   30   31 1    
    58   30   32 1    
    59   30   86 1    
    60   31   87 1    
    61   31   88 1    
    62   31   89 1    
    63   32   33 2    
    64   32   34 am   BACKBONE|DICT|INTERRES
    65   34   35 1    
    66   34   90 1    
    67   35   36 1    
    68   35   37 1    
    69   35   91 1    
    70   36   92 1    
    71   36   93 1    
    72   36   94 1    
    73   37   38 2    
    74   37   39 am   BACKBONE|DICT|INTERRES
    75   39   40 1    
    76   39   95 1    
    77   40   41 1    
    78   40   42 1    
    79   40   96 1    
    80   41   97 1    
    81   41   98 1    
    82   41   99 1    
    83   42   43 2    
    84   42   44 am   BACKBONE|DICT|INTERRES
    85   44   45 1    
    86   44  100 1    
    87   45   46 1    
    88   45   47 1    
    89   45  101 1    
    90   46  102 1    
    91   46  103 1    
    92   46  104 1    
    93   47   48 2    
    94   47   49 am   BACKBONE|DICT|INTERRES
    95   49   50 1    
    96   49  105 1    
    97   50   51 1    
    98   50   52 1    
    99   50  106 1    
   100   51  107 1    
   101   51  108 1    
   102   51  109 1    
   103   52   53 2    
   104   52   54 am   BACKBONE|DICT|INTERRES
   105   54   55 1    
   106   54  110 1    
   107   55   56 1    
   108   55   59 1    
   109   55  111 1    
   110   56   57 am   BACKBONE|DICT|INTERRES
   111   56   58 2    
   112   57  112 1    
   113   57  113 1    
   114   59   60 1    
   115   59  114 1    
   116   59  115 1    
   117   60   61 1    
   118   61  116 1    
   119   61  117 1    
@<TRIPOS>SUBSTRUCTURE
     1 UNK         1 GROUP             0       ****    0 ROOT    
