@<TRIPOS>MOLECULE
3R8
117   119    1
SMALL
USER_CHARGES


@<TRIPOS>ATOM
      1 CA         15.7569  -23.8430  -48.0653 C.3       0 UNK        -0.2013 
      2 C          15.5554  -24.8638  -46.9553 C.2       0 UNK         0.4866 
      3 O          14.6424  -24.7068  -46.1448 O.2       0 UNK        -0.5176 
      4 N          16.4024  -25.9026  -46.9204 N.am      1 UNK        -0.4884 
      5 CA         16.4074  -27.0013  -45.9432 C.3       1 UNK         0.0853 
      6 C6         15.1959  -27.9675  -46.0892 C.3       10 UNK        -0.0849 
      7 S7         15.4355  -29.0981  -47.5022 S.3       10 UNK        -0.2776 
      8 C8         16.1088  -30.5837  -46.6749 C.3       10 UNK         0.0316 
      9 C9         17.3361  -30.2633  -45.8293 C.ar      10 UNK        -0.0863 
     10 C10        17.2396  -30.2195  -44.4340 C.ar      10 UNK        -0.1009 
     11 C11        18.3410  -29.8581  -43.6532 C.ar      10 UNK        -0.0712 
     12 C12        19.5507  -29.5556  -44.2858 C.ar      10 UNK        -0.0894 
     13 C13        19.6649  -29.5889  -45.6787 C.ar      10 UNK        -0.0745 
     14 C14        18.5547  -29.9593  -46.4443 C.ar      10 UNK        -0.0972 
     15 C15        20.9805  -29.2337  -46.3627 C.3       10 UNK         0.0209 
     16 S16        21.4285  -27.4728  -46.1768 S.3       10 UNK        -0.2568 
     17 C17        22.3242  -27.4587  -44.5811 C.3       10 UNK        -0.0983 
     18 CA         21.8319  -26.3799  -43.5774 C.3       3 UNK         0.0876 
     19 N          20.3670  -26.2404  -43.5271 N.am      3 UNK        -0.4424 
     20 C          19.7249  -25.1967  -42.9777 C.2       2 UNK         0.4918 
     21 O          20.3027  -24.2472  -42.4471 O.2       2 UNK        -0.4875 
     22 CA         18.1889  -25.2127  -43.0452 C.3       2 UNK         0.0481 
     23 CB         17.5558  -23.8276  -42.8081 C.3       2 UNK        -0.1831 
     24 N          17.7369  -25.7511  -44.3270 N.am      2 UNK        -0.4498 
     25 C          16.6436  -26.5038  -44.5015 C.2       1 UNK         0.5027 
     26 O          15.8633  -26.7996  -43.5941 O.2       1 UNK        -0.4969 
     27 C          22.4489  -26.6221  -42.1805 C.2       3 UNK         0.5005 
     28 O          23.6086  -26.2678  -41.9601 O.2       3 UNK        -0.5279 
     29 N          21.6581  -27.2095  -41.2665 N.am      4 UNK        -0.4463 
     30 CA         21.9663  -27.4743  -39.8589 C.3       4 UNK         0.0283 
     31 CB         21.9880  -26.1498  -39.0616 C.3       4 UNK        -0.1875 
     32 C          23.2332  -28.3346  -39.7012 C.2       4 UNK         0.4949 
     33 O          23.3024  -29.4130  -40.2936 O.2       4 UNK        -0.5039 
     34 N          24.2164  -27.8483  -38.9321 N.am      5 UNK        -0.4663 
     35 CA         25.4813  -28.5207  -38.6161 C.3       5 UNK         0.0242 
     36 CB         26.2615  -27.6632  -37.6065 C.3       5 UNK        -0.1982 
     37 C          26.3668  -28.8580  -39.8304 C.2       5 UNK         0.5017 
     38 O          27.2233  -29.7338  -39.7092 O.2       5 UNK        -0.5012 
     39 N          26.1444  -28.1920  -40.9743 N.am      6 UNK        -0.4439 
     40 CA         26.8088  -28.5032  -42.2436 C.3       6 UNK         0.0297 
     41 CB         26.5780  -27.3598  -43.2439 C.3       6 UNK        -0.2006 
     42 C          26.3533  -29.8459  -42.8463 C.2       6 UNK         0.4892 
     43 O          27.1355  -30.4728  -43.5618 O.2       6 UNK        -0.5089 
     44 N          25.1139  -30.2599  -42.5473 N.am      7 UNK        -0.4243 
     45 CA         24.5325  -31.5351  -42.9731 C.3       7 UNK         0.0196 
     46 CB         23.1531  -31.2641  -43.5921 C.3       7 UNK        -0.2007 
     47 C          24.3957  -32.5314  -41.8123 C.2       7 UNK         0.5020 
     48 O          24.3612  -33.7352  -42.0660 O.2       7 UNK        -0.5147 
     49 N          24.2857  -32.0178  -40.5768 N.am      8 UNK        -0.4734 
     50 CA         23.9318  -32.7304  -39.3419 C.3       8 UNK         0.0238 
     51 CB         24.9997  -33.7787  -38.9630 C.3       8 UNK        -0.1912 
     52 C          22.5014  -33.3026  -39.4092 C.2       8 UNK         0.5038 
     53 O          22.2539  -34.4167  -38.9441 O.2       8 UNK        -0.5046 
     54 N          21.5928  -32.5235  -40.0116 N.am      9 UNK        -0.4200 
     55 CA         20.1855  -32.8744  -40.2519 C.3       9 UNK         0.0839 
     56 C          19.2619  -32.8294  -38.9987 C.2       9 UNK         0.5513 
     57 N          19.7123  -32.3279  -37.8547 N.am      9 UNK        -0.7519 
     58 O          18.1181  -33.2725  -39.0649 O.2       9 UNK        -0.4960 
     59 C59        19.6074  -32.0683  -41.4455 C.3       10 UNK        -0.0876 
     60 S60        19.6525  -30.2596  -41.1908 S.3       10 UNK        -0.2414 
     61 C61        18.1856  -29.7320  -42.1384 C.3       10 UNK         0.0169 
     62 H62        16.5958  -24.1008  -48.7117 H         1 UNK         0.0903 
     63 H63        14.8613  -23.7792  -48.6827 H         1 UNK         0.0903 
     64 H64        15.9477  -22.8584  -47.6391 H         1 UNK         0.0903 
     65 H65        17.1190  -25.9645  -47.6311 H         1 UNK         0.3096 
     66 H66        17.3109  -27.5667  -46.1655 H         1 UNK         0.1121 
     67 H67        14.2661  -27.4137  -46.2245 H         1 UNK         0.0849 
     68 H68        15.0436  -28.5752  -45.1962 H         1 UNK         0.0849 
     69 H69        15.3273  -31.0384  -46.0640 H         1 UNK         0.0865 
     70 H70        16.3719  -31.3245  -47.4314 H         1 UNK         0.0865 
     71 H71        16.2940  -30.4351  -43.9551 H         1 UNK         0.1346 
     72 H72        20.4009  -29.2842  -43.6834 H         1 UNK         0.1412 
     73 H73        18.6254  -29.9825  -47.5235 H         1 UNK         0.1426 
     74 H74        20.9143  -29.4473  -47.4306 H         1 UNK         0.0716 
     75 H75        21.7793  -29.8708  -45.9878 H         1 UNK         0.0716 
     76 H76        23.3776  -27.2841  -44.8069 H         1 UNK         0.0695 
     77 H77        22.2998  -28.4516  -44.1361 H         1 UNK         0.0695 
     78 H78        22.2233  -25.4202  -43.9231 H         1 UNK         0.0983 
     79 H79        19.8303  -26.9668  -43.9779 H         1 UNK         0.3095 
     80 H80        17.8658  -25.8763  -42.2404 H         1 UNK         0.0454 
     81 H81        17.8693  -23.1084  -43.5655 H         1 UNK         0.0851 
     82 H82        17.8401  -23.4252  -41.8350 H         1 UNK         0.0851 
     83 H83        16.4672  -23.8805  -42.8275 H         1 UNK         0.0851 
     84 H84        18.3106  -25.5301  -45.1303 H         1 UNK         0.2976 
     85 H85        20.7412  -27.5058  -41.5671 H         1 UNK         0.3116 
     86 H86        21.1450  -28.0785  -39.4711 H         1 UNK         0.0646 
     87 H87        22.7875  -25.4837  -39.3884 H         1 UNK         0.0847 
     88 H88        22.1128  -26.3291  -37.9929 H         1 UNK         0.0847 
     89 H89        21.0483  -25.6101  -39.1814 H         1 UNK         0.0847 
     90 H90        24.0772  -26.9409  -38.5113 H         1 UNK         0.3040 
     91 H91        25.2327  -29.4704  -38.1372 H         1 UNK         0.1015 
     92 H92        26.5145  -26.6854  -38.0186 H         1 UNK         0.0786 
     93 H93        27.1965  -28.1477  -37.3206 H         1 UNK         0.0786 
     94 H94        25.6898  -27.5060  -36.6916 H         1 UNK         0.0786 
     95 H95        25.4153  -27.4885  -40.9953 H         1 UNK         0.3172 
     96 H96        27.8821  -28.5727  -42.0539 H         1 UNK         0.0595 
     97 H97        25.5263  -27.2636  -43.5129 H         1 UNK         0.0839 
     98 H98        27.1327  -27.5338  -44.1669 H         1 UNK         0.0839 
     99 H99        26.9111  -26.4031  -42.8413 H         1 UNK         0.0839 
    100 H100       24.5480  -29.6884  -41.9306 H         1 UNK         0.2998 
    101 H101       25.1585  -32.0073  -43.7332 H         1 UNK         0.0822 
    102 H102       23.2545  -30.6446  -44.4807 H         1 UNK         0.0787 
    103 H103       22.6665  -32.1917  -43.8973 H         1 UNK         0.0787 
    104 H104       22.4852  -30.7562  -42.8948 H         1 UNK         0.0787 
    105 H105       24.2373  -31.0056  -40.5012 H         1 UNK         0.3055 
    106 H106       23.9165  -31.9795  -38.5502 H         1 UNK         0.1106 
    107 H107       24.8016  -34.1953  -37.9748 H         1 UNK         0.0828 
    108 H108       25.0217  -34.6125  -39.6650 H         1 UNK         0.0828 
    109 H109       25.9956  -33.3367  -38.9344 H         1 UNK         0.0828 
    110 H110       21.8768  -31.6099  -40.3373 H         1 UNK         0.2931 
    111 H111       20.1809  -33.9208  -40.5633 H         1 UNK         0.0412 
    112 H112       19.1060  -32.3103  -37.0497 H         1 UNK         0.3472 
    113 H113       20.6478  -31.9614  -37.7918 H         1 UNK         0.3472 
    114 H114       20.1728  -32.2938  -42.3510 H         1 UNK         0.0970 
    115 H115       18.5843  -32.3855  -41.6559 H         1 UNK         0.0970 
    116 H116       17.3201  -30.2979  -41.7901 H         1 UNK         0.0612 
    117 H117       17.9822  -28.6863  -41.9043 H         1 UNK         0.0612 
@<TRIPOS>BOND
     1    1    2 1    
     2    1   62 1    
     3    1   63 1    
     4    1   64 1    
     5    2    3 2    
     6    2    4 am   BACKBONE|DICT|INTERRES
     7    4    5 1    
     8    4   65 1    
     9    5    6 1    
    10    5   25 1    
    11    5   66 1    
    12    6    7 1    
    13    6   67 1    
    14    6   68 1    
    15    7    8 1    
    16    8    9 1    
    17    8   69 1    
    18    8   70 1    
    19    9   10 ar   
    20    9   14 ar   
    21   10   11 ar   
    22   10   71 1    
    23   11   12 ar   
    24   11   61 1    
    25   12   13 ar   
    26   12   72 1    
    27   13   14 ar   
    28   13   15 1    
    29   14   73 1    
    30   15   16 1    
    31   15   74 1    
    32   15   75 1    
    33   16   17 1    
    34   17   18 1    
    35   17   76 1    
    36   17   77 1    
    37   18   19 1    
    38   18   27 1    
    39   18   78 1    
    40   19   20 am   BACKBONE|DICT|INTERRES
    41   19   79 1    
    42   20   21 2    
    43   20   22 1    
    44   22   23 1    
    45   22   24 1    
    46   22   80 1    
    47   23   81 1    
    48   23   82 1    
    49   23   83 1    
    50   24   25 am   BACKBONE|DICT|INTERRES
    51   24   84 1    
    52   25   26 2    
    53   27   28 2    
    54   27   29 am   BACKBONE|DICT|INTERRES
    55   29   30 1    
    56   29   85 1    
    57   30   31 1    
    58   30   32 1    
    59   30   86 1    
    60   31   87 1    
    61   31   88 1    
    62   31   89 1    
    63   32   33 2    
    64   32   34 am   BACKBONE|DICT|INTERRES
    65   34   35 1    
    66   34   90 1    
    67   35   36 1    
    68   35   37 1    
    69   35   91 1    
    70   36   92 1    
    71   36   93 1    
    72   36   94 1    
    73   37   38 2    
    74   37   39 am   BACKBONE|DICT|INTERRES
    75   39   40 1    
    76   39   95 1    
    77   40   41 1    
    78   40   42 1    
    79   40   96 1    
    80   41   97 1    
    81   41   98 1    
    82   41   99 1    
    83   42   43 2    
    84   42   44 am   BACKBONE|DICT|INTERRES
    85   44   45 1    
    86   44  100 1    
    87   45   46 1    
    88   45   47 1    
    89   45  101 1    
    90   46  102 1    
    91   46  103 1    
    92   46  104 1    
    93   47   48 2    
    94   47   49 am   BACKBONE|DICT|INTERRES
    95   49   50 1    
    96   49  105 1    
    97   50   51 1    
    98   50   52 1    
    99   50  106 1    
   100   51  107 1    
   101   51  108 1    
   102   51  109 1    
   103   52   53 2    
   104   52   54 am   BACKBONE|DICT|INTERRES
   105   54   55 1    
   106   54  110 1    
   107   55   56 1    
   108   55   59 1    
   109   55  111 1    
   110   56   57 am   BACKBONE|DICT|INTERRES
   111   56   58 2    
   112   57  112 1    
   113   57  113 1    
   114   59   60 1    
   115   59  114 1    
   116   59  115 1    
   117   60   61 1    
   118   61  116 1    
   119   61  117 1    
@<TRIPOS>SUBSTRUCTURE
     1 UNK         1 GROUP             0       ****    0 ROOT    
