@<TRIPOS>MOLECULE
3R8
117   119    1
SMALL
USER_CHARGES


@<TRIPOS>ATOM
      1 CA         15.6978  -23.7188  -41.1831 C.3       0 UNK        -0.2013 
      2 C          15.6780  -24.4822  -42.4990 C.2       0 UNK         0.4866 
      3 O          14.6186  -24.9418  -42.9259 O.2       0 UNK        -0.5176 
      4 N          16.8392  -24.6179  -43.1452 N.am      1 UNK        -0.4884 
      5 CA         17.0308  -25.2848  -44.4314 C.3       1 UNK         0.0853 
      6 C6         17.0258  -26.8301  -44.2961 C.3       10 UNK        -0.0849 
      7 S7         16.5860  -27.6633  -45.8598 S.3       10 UNK        -0.2776 
      8 C8         16.5227  -29.4047  -45.3297 C.3       10 UNK         0.0316 
      9 C9         17.8681  -29.8773  -44.8006 C.ar      10 UNK        -0.0863 
     10 C10        18.0563  -30.0739  -43.4285 C.ar      10 UNK        -0.1009 
     11 C11        19.3001  -30.4755  -42.9337 C.ar      10 UNK        -0.0712 
     12 C12        20.3561  -30.6809  -43.8239 C.ar      10 UNK        -0.0894 
     13 C13        20.1863  -30.4714  -45.1961 C.ar      10 UNK        -0.0745 
     14 C14        18.9341  -30.0858  -45.6811 C.ar      10 UNK        -0.0972 
     15 C15        21.3675  -30.6235  -46.1460 C.3       10 UNK         0.0209 
     16 S16        22.0127  -29.0146  -46.7223 S.3       10 UNK        -0.2568 
     17 C17        22.4517  -28.1861  -45.1529 C.3       10 UNK        -0.0983 
     18 CA         22.3981  -26.6347  -45.2034 C.3       3 UNK         0.0876 
     19 N          21.1835  -26.1393  -45.8625 N.am      3 UNK        -0.4424 
     20 C          21.1022  -24.9931  -46.5491 C.2       2 UNK         0.4918 
     21 O          22.0504  -24.2263  -46.7180 O.2       2 UNK        -0.4875 
     22 CA         19.7231  -24.6231  -47.1269 C.3       2 UNK         0.0481 
     23 CB         19.5856  -25.1658  -48.5582 C.3       2 UNK        -0.1831 
     24 N          18.5791  -25.0777  -46.3260 N.am      2 UNK        -0.4498 
     25 C          18.3356  -24.7480  -45.0501 C.2       1 UNK         0.5027 
     26 O          19.1011  -24.0624  -44.3651 O.2       1 UNK        -0.4969 
     27 C          22.5481  -26.0789  -43.7680 C.2       3 UNK         0.5005 
     28 O          23.5038  -26.4558  -43.0858 O.2       3 UNK        -0.5279 
     29 N          21.5792  -25.2752  -43.2930 N.am      4 UNK        -0.4463 
     30 CA         21.3397  -24.9229  -41.8895 C.3       4 UNK         0.0283 
     31 CB         22.4656  -24.0253  -41.3260 C.3       4 UNK        -0.1875 
     32 C          21.0783  -26.2083  -41.0840 C.2       4 UNK         0.4949 
     33 O          19.9936  -26.7780  -41.2038 O.2       4 UNK        -0.5039 
     34 N          22.0903  -26.6733  -40.3456 N.am      5 UNK        -0.4663 
     35 CA         22.1364  -27.9980  -39.7282 C.3       5 UNK         0.0242 
     36 CB         21.7227  -27.8914  -38.2485 C.3       5 UNK        -0.1982 
     37 C          23.5223  -28.6457  -39.9047 C.2       5 UNK         0.5017 
     38 O          23.8449  -29.5738  -39.1625 O.2       5 UNK        -0.5012 
     39 N          24.3276  -28.1601  -40.8663 N.am      6 UNK        -0.4439 
     40 CA         25.7417  -28.5218  -41.0392 C.3       6 UNK         0.0297 
     41 CB         26.3756  -27.6157  -42.1068 C.3       6 UNK        -0.2006 
     42 C          25.9947  -30.0006  -41.3794 C.2       6 UNK         0.4892 
     43 O          27.0513  -30.5250  -41.0257 O.2       6 UNK        -0.5089 
     44 N          25.0262  -30.6467  -42.0420 N.am      7 UNK        -0.4243 
     45 CA         25.0698  -32.0717  -42.3810 C.3       7 UNK         0.0196 
     46 CB         24.1817  -32.3251  -43.6102 C.3       7 UNK        -0.2007 
     47 C          24.6547  -32.9921  -41.2162 C.2       7 UNK         0.5020 
     48 O          24.8058  -34.2063  -41.3519 O.2       7 UNK        -0.5147 
     49 N          24.1317  -32.4204  -40.1165 N.am      8 UNK        -0.4734 
     50 CA         23.6139  -33.1000  -38.9200 C.3       8 UNK         0.0238 
     51 CB         24.7633  -33.7609  -38.1290 C.3       8 UNK        -0.1912 
     52 C          22.4704  -34.0780  -39.2562 C.2       8 UNK         0.5038 
     53 O          22.5682  -35.2722  -38.9662 O.2       8 UNK        -0.5046 
     54 N          21.4212  -33.5466  -39.8988 N.am      9 UNK        -0.4200 
     55 CA         20.2580  -34.3031  -40.3924 C.3       9 UNK         0.0839 
     56 C          19.3469  -34.9497  -39.3047 C.2       9 UNK         0.5513 
     57 N          19.4666  -34.5888  -38.0325 N.am      9 UNK        -0.7519 
     58 O          18.5230  -35.8029  -39.6249 O.2       9 UNK        -0.4960 
     59 C59        19.4445  -33.4848  -41.4323 C.3       10 UNK        -0.0876 
     60 S60        18.5866  -32.0277  -40.7330 S.3       10 UNK        -0.2414 
     61 C61        19.5205  -30.6337  -41.4356 C.3       10 UNK         0.0169 
     62 H62        15.3358  -24.3546  -40.3755 H         1 UNK         0.0903 
     63 H63        16.7006  -23.3798  -40.9234 H         1 UNK         0.0903 
     64 H64        15.0497  -22.8451  -41.2460 H         1 UNK         0.0903 
     65 H65        17.6831  -24.1777  -42.7966 H         1 UNK         0.3096 
     66 H66        16.2124  -24.9728  -45.0847 H         1 UNK         0.1121 
     67 H67        16.2897  -27.1424  -43.5538 H         1 UNK         0.0849 
     68 H68        17.9880  -27.1952  -43.9304 H         1 UNK         0.0849 
     69 H69        15.7425  -29.5257  -44.5765 H         1 UNK         0.0865 
     70 H70        16.2279  -30.0253  -46.1772 H         1 UNK         0.0865 
     71 H71        17.2411  -29.8996  -42.7394 H         1 UNK         0.1346 
     72 H72        21.3244  -30.9634  -43.4420 H         1 UNK         0.1412 
     73 H73        18.7988  -29.9127  -46.7403 H         1 UNK         0.1426 
     74 H74        22.1762  -31.1806  -45.6713 H         1 UNK         0.0716 
     75 H75        21.0609  -31.2114  -47.0122 H         1 UNK         0.0716 
     76 H76        21.7865  -28.5388  -44.3669 H         1 UNK         0.0695 
     77 H77        23.4512  -28.5210  -44.8688 H         1 UNK         0.0695 
     78 H78        23.2684  -26.2921  -45.7675 H         1 UNK         0.0983 
     79 H79        20.3661  -26.7280  -45.7954 H         1 UNK         0.3095 
     80 H80        19.6725  -23.5333  -47.1713 H         1 UNK         0.0454 
     81 H81        19.5927  -26.2565  -48.5791 H         1 UNK         0.0851 
     82 H82        18.6617  -24.8259  -49.0263 H         1 UNK         0.0851 
     83 H83        20.4088  -24.8233  -49.1869 H         1 UNK         0.0851 
     84 H84        17.9139  -25.6810  -46.7921 H         1 UNK         0.2976 
     85 H85        20.8303  -25.0070  -43.9230 H         1 UNK         0.3116 
     86 H86        20.4141  -24.3460  -41.8632 H         1 UNK         0.0646 
     87 H87        23.4491  -24.4926  -41.3722 H         1 UNK         0.0847 
     88 H88        22.5263  -23.0895  -41.8814 H         1 UNK         0.0847 
     89 H89        22.2723  -23.7651  -40.2844 H         1 UNK         0.0847 
     90 H90        22.9444  -26.1338  -40.3103 H         1 UNK         0.3040 
     91 H91        21.4327  -28.6611  -40.2338 H         1 UNK         0.1015 
     92 H92        22.4179  -27.2716  -37.6813 H         1 UNK         0.0786 
     93 H93        21.6948  -28.8731  -37.7737 H         1 UNK         0.0786 
     94 H94        20.7274  -27.4583  -38.1470 H         1 UNK         0.0786 
     95 H95        23.9637  -27.4681  -41.5192 H         1 UNK         0.3172 
     96 H96        26.2421  -28.3217  -40.0894 H         1 UNK         0.0595 
     97 H97        27.4423  -27.8198  -42.2102 H         1 UNK         0.0839 
     98 H98        26.2718  -26.5618  -41.8482 H         1 UNK         0.0839 
     99 H99        25.9190  -27.7662  -43.0859 H         1 UNK         0.0839 
    100 H100       24.1970  -30.1327  -42.2997 H         1 UNK         0.2998 
    101 H101       26.0954  -32.3336  -42.6509 H         1 UNK         0.0822 
    102 H102       24.3250  -33.3386  -43.9873 H         1 UNK         0.0787 
    103 H103       23.1254  -32.2225  -43.3695 H         1 UNK         0.0787 
    104 H104       24.4174  -31.6414  -44.4261 H         1 UNK         0.0787 
    105 H105       24.0876  -31.4071  -40.0808 H         1 UNK         0.3055 
    106 H106       23.1829  -32.3258  -38.2823 H         1 UNK         0.1106 
    107 H107       25.5341  -33.0347  -37.8709 H         1 UNK         0.0828 
    108 H108       24.3972  -34.1902  -37.1956 H         1 UNK         0.0828 
    109 H109       25.2366  -34.5659  -38.6920 H         1 UNK         0.0828 
    110 H110       21.4133  -32.5553  -40.0798 H         1 UNK         0.2931 
    111 H111       20.6765  -35.1501  -40.9401 H         1 UNK         0.0412 
    112 H112       18.8746  -35.0180  -37.3387 H         1 UNK         0.3472 
    113 H113       20.1374  -33.8886  -37.7613 H         1 UNK         0.3472 
    114 H114       20.0975  -33.1731  -42.2483 H         1 UNK         0.0970 
    115 H115       18.6914  -34.1216  -41.9003 H         1 UNK         0.0970 
    116 H116       19.2060  -29.7160  -40.9361 H         1 UNK         0.0612 
    117 H117       20.5791  -30.7603  -41.2061 H         1 UNK         0.0612 
@<TRIPOS>BOND
     1    1    2 1    
     2    1   62 1    
     3    1   63 1    
     4    1   64 1    
     5    2    3 2    
     6    2    4 am   BACKBONE|DICT|INTERRES
     7    4    5 1    
     8    4   65 1    
     9    5    6 1    
    10    5   25 1    
    11    5   66 1    
    12    6    7 1    
    13    6   67 1    
    14    6   68 1    
    15    7    8 1    
    16    8    9 1    
    17    8   69 1    
    18    8   70 1    
    19    9   10 ar   
    20    9   14 ar   
    21   10   11 ar   
    22   10   71 1    
    23   11   12 ar   
    24   11   61 1    
    25   12   13 ar   
    26   12   72 1    
    27   13   14 ar   
    28   13   15 1    
    29   14   73 1    
    30   15   16 1    
    31   15   74 1    
    32   15   75 1    
    33   16   17 1    
    34   17   18 1    
    35   17   76 1    
    36   17   77 1    
    37   18   19 1    
    38   18   27 1    
    39   18   78 1    
    40   19   20 am   BACKBONE|DICT|INTERRES
    41   19   79 1    
    42   20   21 2    
    43   20   22 1    
    44   22   23 1    
    45   22   24 1    
    46   22   80 1    
    47   23   81 1    
    48   23   82 1    
    49   23   83 1    
    50   24   25 am   BACKBONE|DICT|INTERRES
    51   24   84 1    
    52   25   26 2    
    53   27   28 2    
    54   27   29 am   BACKBONE|DICT|INTERRES
    55   29   30 1    
    56   29   85 1    
    57   30   31 1    
    58   30   32 1    
    59   30   86 1    
    60   31   87 1    
    61   31   88 1    
    62   31   89 1    
    63   32   33 2    
    64   32   34 am   BACKBONE|DICT|INTERRES
    65   34   35 1    
    66   34   90 1    
    67   35   36 1    
    68   35   37 1    
    69   35   91 1    
    70   36   92 1    
    71   36   93 1    
    72   36   94 1    
    73   37   38 2    
    74   37   39 am   BACKBONE|DICT|INTERRES
    75   39   40 1    
    76   39   95 1    
    77   40   41 1    
    78   40   42 1    
    79   40   96 1    
    80   41   97 1    
    81   41   98 1    
    82   41   99 1    
    83   42   43 2    
    84   42   44 am   BACKBONE|DICT|INTERRES
    85   44   45 1    
    86   44  100 1    
    87   45   46 1    
    88   45   47 1    
    89   45  101 1    
    90   46  102 1    
    91   46  103 1    
    92   46  104 1    
    93   47   48 2    
    94   47   49 am   BACKBONE|DICT|INTERRES
    95   49   50 1    
    96   49  105 1    
    97   50   51 1    
    98   50   52 1    
    99   50  106 1    
   100   51  107 1    
   101   51  108 1    
   102   51  109 1    
   103   52   53 2    
   104   52   54 am   BACKBONE|DICT|INTERRES
   105   54   55 1    
   106   54  110 1    
   107   55   56 1    
   108   55   59 1    
   109   55  111 1    
   110   56   57 am   BACKBONE|DICT|INTERRES
   111   56   58 2    
   112   57  112 1    
   113   57  113 1    
   114   59   60 1    
   115   59  114 1    
   116   59  115 1    
   117   60   61 1    
   118   61  116 1    
   119   61  117 1    
@<TRIPOS>SUBSTRUCTURE
     1 UNK         1 GROUP             0       ****    0 ROOT    
