@<TRIPOS>MOLECULE
3R8
117   119    1
SMALL
USER_CHARGES


@<TRIPOS>ATOM
      1 CA         17.4977  -25.8736  -50.0585 C.3       0 UNK        -0.2013 
      2 C          18.8149  -25.6785  -49.3224 C.2       0 UNK         0.4866 
      3 O          19.8494  -25.4764  -49.9592 O.2       0 UNK        -0.5176 
      4 N          18.7851  -25.7324  -47.9883 N.am      1 UNK        -0.4884 
      5 CA         19.9379  -25.5665  -47.1045 C.3       1 UNK         0.0853 
      6 C6         20.8244  -26.8416  -47.0196 C.3       10 UNK        -0.0849 
      7 S7         19.9269  -28.3561  -46.5216 S.3       10 UNK        -0.2776 
      8 C8         20.4749  -28.5216  -44.7980 C.3       10 UNK         0.0316 
      9 C9         19.5416  -29.4208  -44.0056 C.ar      10 UNK        -0.0863 
     10 C10        19.8668  -30.7616  -43.7800 C.ar      10 UNK        -0.1009 
     11 C11        19.0317  -31.5715  -43.0048 C.ar      10 UNK        -0.0712 
     12 C12        17.8700  -31.0286  -42.4477 C.ar      10 UNK        -0.0894 
     13 C13        17.5281  -29.6923  -42.6772 C.ar      10 UNK        -0.0745 
     14 C14        18.3599  -28.8982  -43.4718 C.ar      10 UNK        -0.0972 
     15 C15        16.2593  -29.1158  -42.0658 C.3       10 UNK         0.0209 
     16 S16        16.5823  -28.3541  -40.4408 S.3       10 UNK        -0.2568 
     17 C17        16.9908  -26.6333  -40.8906 C.3       10 UNK        -0.0983 
     18 CA         18.5118  -26.3787  -41.0508 C.3       3 UNK         0.0876 
     19 N          18.7608  -25.3217  -42.0415 N.am      3 UNK        -0.4424 
     20 C          19.9459  -25.0613  -42.6039 C.2       2 UNK         0.4918 
     21 O          20.9810  -25.6679  -42.3283 O.2       2 UNK        -0.4875 
     22 CA         19.9942  -23.9159  -43.6245 C.3       2 UNK         0.0481 
     23 CB         21.0489  -22.8713  -43.2220 C.3       2 UNK        -0.1831 
     24 N          20.2973  -24.4250  -44.9623 N.am      2 UNK        -0.4498 
     25 C          19.4267  -25.0924  -45.7317 C.2       1 UNK         0.5027 
     26 O          18.2616  -25.3302  -45.3971 O.2       1 UNK        -0.4969 
     27 C          19.2214  -26.1313  -39.6998 C.2       3 UNK         0.5005 
     28 O          19.5110  -27.0886  -38.9816 O.2       3 UNK        -0.5279 
     29 N          19.5339  -24.8616  -39.3964 N.am      4 UNK        -0.4463 
     30 CA         20.3572  -24.4584  -38.2528 C.3       4 UNK         0.0283 
     31 CB         20.2688  -22.9345  -38.0713 C.3       4 UNK        -0.1875 
     32 C          21.8277  -24.9000  -38.3836 C.2       4 UNK         0.4949 
     33 O          22.4605  -25.1844  -37.3667 O.2       4 UNK        -0.5039 
     34 N          22.3405  -24.9522  -39.6214 N.am      5 UNK        -0.4663 
     35 CA         23.6775  -25.4577  -39.9401 C.3       5 UNK         0.0242 
     36 CB         24.2266  -24.7173  -41.1712 C.3       5 UNK        -0.1982 
     37 C          23.6547  -26.9745  -40.1855 C.2       5 UNK         0.5017 
     38 O          24.5574  -27.6714  -39.7200 O.2       5 UNK        -0.5012 
     39 N          22.6185  -27.4424  -40.8991 N.am      6 UNK        -0.4439 
     40 CA         22.3755  -28.8169  -41.3488 C.3       6 UNK         0.0297 
     41 CB         22.2421  -29.7765  -40.1461 C.3       6 UNK        -0.2006 
     42 C          23.4093  -29.2854  -42.3945 C.2       6 UNK         0.4892 
     43 O          24.1706  -28.4721  -42.9243 O.2       6 UNK        -0.5089 
     44 N          23.3951  -30.5858  -42.7079 N.am      7 UNK        -0.4243 
     45 CA         24.3085  -31.2240  -43.6574 C.3       7 UNK         0.0196 
     46 CB         23.7862  -31.0627  -45.1003 C.3       7 UNK        -0.2007 
     47 C          24.5231  -32.6871  -43.2492 C.2       7 UNK         0.5020 
     48 O          24.3245  -33.5907  -44.0627 O.2       7 UNK        -0.5147 
     49 N          24.8685  -32.8964  -41.9694 N.am      8 UNK        -0.4734 
     50 CA         25.0711  -34.1730  -41.2582 C.3       8 UNK         0.0238 
     51 CB         26.1950  -35.0119  -41.8983 C.3       8 UNK        -0.1912 
     52 C          23.7914  -35.0104  -41.0684 C.2       8 UNK         0.5038 
     53 O          23.5745  -35.5319  -39.9742 O.2       8 UNK        -0.5046 
     54 N          22.9662  -35.0964  -42.1175 N.am      9 UNK        -0.4200 
     55 CA         21.6325  -35.7175  -42.1576 C.3       9 UNK         0.0839 
     56 C          21.6271  -37.2700  -42.0207 C.2       9 UNK         0.5513 
     57 N          22.7503  -37.9532  -42.2062 N.am      9 UNK        -0.7519 
     58 O          20.5844  -37.8715  -41.7746 O.2       9 UNK        -0.4960 
     59 C59        20.6077  -35.0268  -41.2101 C.3       10 UNK        -0.0876 
     60 S60        20.5501  -33.2094  -41.3916 S.3       10 UNK        -0.2414 
     61 C61        19.3804  -33.0325  -42.7691 C.3       10 UNK         0.0169 
     62 H62        17.5659  -26.7310  -50.7275 H         1 UNK         0.0903 
     63 H63        16.6689  -26.0451  -49.3717 H         1 UNK         0.0903 
     64 H64        17.2668  -24.9920  -50.6558 H         1 UNK         0.0903 
     65 H65        17.9138  -25.8677  -47.4888 H         1 UNK         0.3096 
     66 H66        20.5472  -24.7532  -47.5062 H         1 UNK         0.1121 
     67 H67        21.2653  -27.0345  -47.9987 H         1 UNK         0.0849 
     68 H68        21.6742  -26.6771  -46.3545 H         1 UNK         0.0849 
     69 H69        21.4937  -28.9105  -44.7814 H         1 UNK         0.0865 
     70 H70        20.5156  -27.5416  -44.3221 H         1 UNK         0.0865 
     71 H71        20.7719  -31.1757  -44.2001 H         1 UNK         0.1346 
     72 H72        17.2297  -31.6481  -41.8346 H         1 UNK         0.1412 
     73 H73        18.0991  -27.8650  -43.6598 H         1 UNK         0.1426 
     74 H74        15.5235  -29.9105  -41.9329 H         1 UNK         0.0716 
     75 H75        15.7992  -28.3970  -42.7452 H         1 UNK         0.0716 
     76 H76        16.5578  -25.9643  -40.1442 H         1 UNK         0.0695 
     77 H77        16.4656  -26.4012  -41.8183 H         1 UNK         0.0695 
     78 H78        18.9736  -27.2834  -41.4479 H         1 UNK         0.0983 
     79 H79        17.9576  -24.7840  -42.3356 H         1 UNK         0.3095 
     80 H80        19.0227  -23.4174  -43.6509 H         1 UNK         0.0454 
     81 H81        22.0559  -23.2899  -43.2137 H         1 UNK         0.0851 
     82 H82        20.8515  -22.4788  -42.2236 H         1 UNK         0.0851 
     83 H83        21.0466  -22.0230  -43.9065 H         1 UNK         0.0851 
     84 H84        21.2438  -24.2915  -45.2888 H         1 UNK         0.2976 
     85 H85        19.2349  -24.1316  -40.0265 H         1 UNK         0.3116 
     86 H86        19.9477  -24.9325  -37.3581 H         1 UNK         0.0646 
     87 H87        20.8534  -22.6114  -37.2086 H         1 UNK         0.0847 
     88 H88        19.2412  -22.6127  -37.9013 H         1 UNK         0.0847 
     89 H89        20.6509  -22.3986  -38.9411 H         1 UNK         0.0847 
     90 H90        21.7391  -24.7398  -40.4050 H         1 UNK         0.3040 
     91 H91        24.3510  -25.2631  -39.1020 H         1 UNK         0.1015 
     92 H92        24.2680  -23.6412  -41.0020 H         1 UNK         0.0786 
     93 H93        23.6189  -24.8956  -42.0589 H         1 UNK         0.0786 
     94 H94        25.2398  -25.0491  -41.4018 H         1 UNK         0.0786 
     95 H95        21.9929  -26.7519  -41.3091 H         1 UNK         0.3172 
     96 H96        21.4112  -28.7893  -41.8569 H         1 UNK         0.0595 
     97 H97        23.2030  -29.9717  -39.6692 H         1 UNK         0.0839 
     98 H98        21.8242  -30.7363  -40.4458 H         1 UNK         0.0839 
     99 H99        21.5718  -29.3662  -39.3903 H         1 UNK         0.0839 
    100 H100       22.7414  -31.1997  -42.2398 H         1 UNK         0.2998 
    101 H101       25.2872  -30.7430  -43.5942 H         1 UNK         0.0822 
    102 H102       22.8216  -31.5506  -45.2391 H         1 UNK         0.0787 
    103 H103       23.6760  -30.0126  -45.3705 H         1 UNK         0.0787 
    104 H104       24.4797  -31.5060  -45.8160 H         1 UNK         0.0787 
    105 H105       24.9778  -32.0743  -41.3903 H         1 UNK         0.3055 
    106 H106       25.4048  -33.8995  -40.2554 H         1 UNK         0.1106 
    107 H107       25.9365  -35.3506  -42.9018 H         1 UNK         0.0828 
    108 H108       27.1233  -34.4448  -41.9652 H         1 UNK         0.0828 
    109 H109       26.4023  -35.9015  -41.3019 H         1 UNK         0.0828 
    110 H110       23.2750  -34.6484  -42.9765 H         1 UNK         0.2931 
    111 H111       21.2824  -35.5406  -43.1750 H         1 UNK         0.0412 
    112 H112       22.7381  -38.9581  -42.1269 H         1 UNK         0.3472 
    113 H113       23.6093  -37.4720  -42.4198 H         1 UNK         0.3472 
    114 H114       19.6047  -35.4256  -41.3719 H         1 UNK         0.0970 
    115 H115       20.8495  -35.2513  -40.1700 H         1 UNK         0.0970 
    116 H116       19.8167  -33.4624  -43.6720 H         1 UNK         0.0612 
    117 H117       18.4762  -33.6051  -42.5568 H         1 UNK         0.0612 
@<TRIPOS>BOND
     1    1    2 1    
     2    1   62 1    
     3    1   63 1    
     4    1   64 1    
     5    2    3 2    
     6    2    4 am   BACKBONE|DICT|INTERRES
     7    4    5 1    
     8    4   65 1    
     9    5    6 1    
    10    5   25 1    
    11    5   66 1    
    12    6    7 1    
    13    6   67 1    
    14    6   68 1    
    15    7    8 1    
    16    8    9 1    
    17    8   69 1    
    18    8   70 1    
    19    9   10 ar   
    20    9   14 ar   
    21   10   11 ar   
    22   10   71 1    
    23   11   12 ar   
    24   11   61 1    
    25   12   13 ar   
    26   12   72 1    
    27   13   14 ar   
    28   13   15 1    
    29   14   73 1    
    30   15   16 1    
    31   15   74 1    
    32   15   75 1    
    33   16   17 1    
    34   17   18 1    
    35   17   76 1    
    36   17   77 1    
    37   18   19 1    
    38   18   27 1    
    39   18   78 1    
    40   19   20 am   BACKBONE|DICT|INTERRES
    41   19   79 1    
    42   20   21 2    
    43   20   22 1    
    44   22   23 1    
    45   22   24 1    
    46   22   80 1    
    47   23   81 1    
    48   23   82 1    
    49   23   83 1    
    50   24   25 am   BACKBONE|DICT|INTERRES
    51   24   84 1    
    52   25   26 2    
    53   27   28 2    
    54   27   29 am   BACKBONE|DICT|INTERRES
    55   29   30 1    
    56   29   85 1    
    57   30   31 1    
    58   30   32 1    
    59   30   86 1    
    60   31   87 1    
    61   31   88 1    
    62   31   89 1    
    63   32   33 2    
    64   32   34 am   BACKBONE|DICT|INTERRES
    65   34   35 1    
    66   34   90 1    
    67   35   36 1    
    68   35   37 1    
    69   35   91 1    
    70   36   92 1    
    71   36   93 1    
    72   36   94 1    
    73   37   38 2    
    74   37   39 am   BACKBONE|DICT|INTERRES
    75   39   40 1    
    76   39   95 1    
    77   40   41 1    
    78   40   42 1    
    79   40   96 1    
    80   41   97 1    
    81   41   98 1    
    82   41   99 1    
    83   42   43 2    
    84   42   44 am   BACKBONE|DICT|INTERRES
    85   44   45 1    
    86   44  100 1    
    87   45   46 1    
    88   45   47 1    
    89   45  101 1    
    90   46  102 1    
    91   46  103 1    
    92   46  104 1    
    93   47   48 2    
    94   47   49 am   BACKBONE|DICT|INTERRES
    95   49   50 1    
    96   49  105 1    
    97   50   51 1    
    98   50   52 1    
    99   50  106 1    
   100   51  107 1    
   101   51  108 1    
   102   51  109 1    
   103   52   53 2    
   104   52   54 am   BACKBONE|DICT|INTERRES
   105   54   55 1    
   106   54  110 1    
   107   55   56 1    
   108   55   59 1    
   109   55  111 1    
   110   56   57 am   BACKBONE|DICT|INTERRES
   111   56   58 2    
   112   57  112 1    
   113   57  113 1    
   114   59   60 1    
   115   59  114 1    
   116   59  115 1    
   117   60   61 1    
   118   61  116 1    
   119   61  117 1    
@<TRIPOS>SUBSTRUCTURE
     1 UNK         1 GROUP             0       ****    0 ROOT    
