@<TRIPOS>MOLECULE
3R8
117   119    1
SMALL
USER_CHARGES


@<TRIPOS>ATOM
      1 CA         18.7960  -21.5508  -48.2177 C.3       0 UNK        -0.2013 
      2 C          19.5427  -22.4523  -47.2457 C.2       0 UNK         0.4866 
      3 O          20.3045  -21.9583  -46.4139 O.2       0 UNK        -0.5176 
      4 N          19.3371  -23.7715  -47.3475 N.am      1 UNK        -0.4884 
      5 CA         19.9160  -24.7770  -46.4529 C.3       1 UNK         0.0853 
      6 C6         19.8279  -26.1909  -47.0789 C.3       10 UNK        -0.0849 
      7 S7         20.9461  -27.3956  -46.2865 S.3       10 UNK        -0.2776 
      8 C8         20.3531  -28.9527  -47.0241 C.3       10 UNK         0.0316 
      9 C9         19.4715  -29.7428  -46.0656 C.ar      10 UNK        -0.0863 
     10 C10        19.9667  -30.8954  -45.4489 C.ar      10 UNK        -0.1009 
     11 C11        19.1636  -31.6456  -44.5854 C.ar      10 UNK        -0.0712 
     12 C12        17.8530  -31.2302  -44.3306 C.ar      10 UNK        -0.0894 
     13 C13        17.3422  -30.0818  -44.9456 C.ar      10 UNK        -0.0745 
     14 C14        18.1540  -29.3472  -45.8163 C.ar      10 UNK        -0.0972 
     15 C15        15.9086  -29.6393  -44.6862 C.3       10 UNK         0.0209 
     16 S16        15.8301  -28.0557  -43.7896 S.3       10 UNK        -0.2568 
     17 C17        16.5283  -28.5122  -42.1678 C.3       10 UNK        -0.0983 
     18 CA         18.0323  -28.1652  -42.0443 C.3       3 UNK         0.0876 
     19 N          18.2957  -26.7432  -42.2909 N.am      3 UNK        -0.4424 
     20 C          19.4959  -26.1519  -42.2508 C.2       2 UNK         0.4918 
     21 O          20.5514  -26.7307  -41.9832 O.2       2 UNK        -0.4875 
     22 CA         19.5323  -24.6658  -42.6271 C.3       2 UNK         0.0481 
     23 CB         20.4558  -23.8630  -41.6939 C.3       2 UNK        -0.1831 
     24 N          20.0010  -24.5535  -44.0061 N.am      2 UNK        -0.4498 
     25 C          19.2176  -24.7214  -45.0794 C.2       1 UNK         0.5027 
     26 O          17.9912  -24.8445  -45.0213 O.2       1 UNK        -0.4969 
     27 C          18.5738  -28.6218  -40.6762 C.2       3 UNK         0.5005 
     28 O          18.5024  -27.8627  -39.7058 O.2       3 UNK        -0.5279 
     29 N          19.1370  -29.8366  -40.6377 N.am      4 UNK        -0.4463 
     30 CA         19.8621  -30.4683  -39.5264 C.3       4 UNK         0.0283 
     31 CB         19.0152  -30.5566  -38.2415 C.3       4 UNK        -0.1875 
     32 C          21.2428  -29.8470  -39.2472 C.2       4 UNK         0.4949 
     33 O          22.1929  -30.5918  -39.0068 O.2       4 UNK        -0.5039 
     34 N          21.3310  -28.5126  -39.2748 N.am      5 UNK        -0.4663 
     35 CA         22.5214  -27.7379  -38.9359 C.3       5 UNK         0.0242 
     36 CB         22.1047  -26.3015  -38.5756 C.3       5 UNK        -0.1982 
     37 C          23.5891  -27.7383  -40.0397 C.2       5 UNK         0.5017 
     38 O          24.7273  -28.1215  -39.7694 O.2       5 UNK        -0.5012 
     39 N          23.2228  -27.2772  -41.2453 N.am      6 UNK        -0.4439 
     40 CA         24.1624  -26.9604  -42.3292 C.3       6 UNK         0.0297 
     41 CB         23.4388  -26.1898  -43.4452 C.3       6 UNK        -0.2006 
     42 C          24.8879  -28.1829  -42.9077 C.2       6 UNK         0.4892 
     43 O          26.0943  -28.1157  -43.1460 O.2       6 UNK        -0.5089 
     44 N          24.1406  -29.2728  -43.1145 N.am      7 UNK        -0.4243 
     45 CA         24.6587  -30.5399  -43.6367 C.3       7 UNK         0.0196 
     46 CB         23.5774  -31.1828  -44.5191 C.3       7 UNK        -0.2007 
     47 C          25.1055  -31.5074  -42.5257 C.2       7 UNK         0.5020 
     48 O          25.5986  -32.5889  -42.8461 O.2       7 UNK        -0.5147 
     49 N          24.8984  -31.1293  -41.2532 N.am      8 UNK        -0.4734 
     50 CA         25.1235  -31.9259  -40.0367 C.3       8 UNK         0.0238 
     51 CB         26.6267  -32.2120  -39.8329 C.3       8 UNK        -0.1912 
     52 C          24.2567  -33.2028  -39.9692 C.2       8 UNK         0.5038 
     53 O          24.6404  -34.1719  -39.3113 O.2       8 UNK        -0.5046 
     54 N          23.1053  -33.1777  -40.6521 N.am      9 UNK        -0.4200 
     55 CA         22.1103  -34.2563  -40.7103 C.3       9 UNK         0.0839 
     56 C          21.2190  -34.3941  -39.4416 C.2       9 UNK         0.5513 
     57 N          21.2896  -33.4890  -38.4726 N.am      9 UNK        -0.7519 
     58 O          20.4653  -35.3569  -39.3252 O.2       9 UNK        -0.4960 
     59 C59        21.2863  -34.2005  -42.0271 C.3       10 UNK        -0.0876 
     60 S60        20.5282  -32.5750  -42.3739 S.3       10 UNK        -0.2414 
     61 C61        19.7084  -32.9193  -43.9565 C.3       10 UNK         0.0169 
     62 H62        18.1689  -22.1201  -48.9036 H         1 UNK         0.0903 
     63 H63        18.1575  -20.8575  -47.6709 H         1 UNK         0.0903 
     64 H64        19.5030  -20.9692  -48.8088 H         1 UNK         0.0903 
     65 H65        18.6741  -24.1177  -48.0268 H         1 UNK         0.3096 
     66 H66        20.9725  -24.5287  -46.3238 H         1 UNK         0.1121 
     67 H67        20.1112  -26.1446  -48.1320 H         1 UNK         0.0849 
     68 H68        18.8023  -26.5629  -47.0617 H         1 UNK         0.0849 
     69 H69        19.8093  -28.7553  -47.9491 H         1 UNK         0.0865 
     70 H70        21.2220  -29.5463  -47.3128 H         1 UNK         0.0865 
     71 H71        20.9760  -31.2215  -45.6538 H         1 UNK         0.1346 
     72 H72        17.2287  -31.8093  -43.6637 H         1 UNK         0.1412 
     73 H73        17.7557  -28.4631  -46.2934 H         1 UNK         0.1426 
     74 H74        15.3565  -30.3982  -44.1294 H         1 UNK         0.0716 
     75 H75        15.3936  -29.5274  -45.6413 H         1 UNK         0.0716 
     76 H76        16.3614  -29.5778  -41.9982 H         1 UNK         0.0695 
     77 H77        15.9543  -27.9911  -41.3990 H         1 UNK         0.0695 
     78 H78        18.5802  -28.7094  -42.8162 H         1 UNK         0.0983 
     79 H79        17.4949  -26.1947  -42.5687 H         1 UNK         0.3095 
     80 H80        18.5277  -24.2453  -42.5422 H         1 UNK         0.0454 
     81 H81        21.4818  -24.2295  -41.7078 H         1 UNK         0.0851 
     82 H82        20.1067  -23.9231  -40.6623 H         1 UNK         0.0851 
     83 H83        20.4742  -22.8081  -41.9677 H         1 UNK         0.0851 
     84 H84        20.9991  -24.4773  -44.1362 H         1 UNK         0.2976 
     85 H85        19.1629  -30.3685  -41.4982 H         1 UNK         0.3116 
     86 H86        20.0412  -31.4927  -39.8445 H         1 UNK         0.0646 
     87 H87        18.8302  -29.5780  -37.7985 H         1 UNK         0.0847 
     88 H88        19.5243  -31.1562  -37.4861 H         1 UNK         0.0847 
     89 H89        18.0515  -31.0281  -38.4329 H         1 UNK         0.0847 
     90 H90        20.4822  -27.9946  -39.4814 H         1 UNK         0.3040 
     91 H91        22.9739  -28.1854  -38.0476 H         1 UNK         0.1015 
     92 H92        21.5812  -25.8106  -39.3969 H         1 UNK         0.0786 
     93 H93        22.9746  -25.6907  -38.3298 H         1 UNK         0.0786 
     94 H94        21.4456  -26.2886  -37.7073 H         1 UNK         0.0786 
     95 H95        22.2435  -27.0403  -41.4045 H         1 UNK         0.3172 
     96 H96        24.9268  -26.2998  -41.9142 H         1 UNK         0.0595 
     97 H97        22.5914  -26.7517  -43.8387 H         1 UNK         0.0839 
     98 H98        24.1096  -25.9843  -44.2807 H         1 UNK         0.0839 
     99 H99        23.0716  -25.2296  -43.0875 H         1 UNK         0.0839 
    100 H100       23.1554  -29.2299  -42.8954 H         1 UNK         0.2998 
    101 H101       25.5319  -30.3497  -44.2647 H         1 UNK         0.0822 
    102 H102       23.3001  -30.5247  -45.3430 H         1 UNK         0.0787 
    103 H103       23.9280  -32.1184  -44.9569 H         1 UNK         0.0787 
    104 H104       22.6777  -31.4068  -43.9480 H         1 UNK         0.0787 
    105 H105       24.5215  -30.2037  -41.0956 H         1 UNK         0.3055 
    106 H106       24.7955  -31.3021  -39.2034 H         1 UNK         0.1106 
    107 H107       26.8099  -32.6663  -38.8583 H         1 UNK         0.0828 
    108 H108       27.0162  -32.8965  -40.5869 H         1 UNK         0.0828 
    109 H109       27.2140  -31.2948  -39.8755 H         1 UNK         0.0828 
    110 H110       22.8542  -32.3269  -41.1321 H         1 UNK         0.2931 
    111 H111       22.6722  -35.1916  -40.7491 H         1 UNK         0.0412 
    112 H112       20.7227  -33.6057  -37.6483 H         1 UNK         0.3472 
    113 H113       21.8756  -32.6706  -38.5765 H         1 UNK         0.3472 
    114 H114       21.9437  -34.4428  -42.8636 H         1 UNK         0.0970 
    115 H115       20.5096  -34.9678  -42.0347 H         1 UNK         0.0970 
    116 H116       20.4179  -33.3936  -44.6367 H         1 UNK         0.0612 
    117 H117       18.9032  -33.6385  -43.7973 H         1 UNK         0.0612 
@<TRIPOS>BOND
     1    1    2 1    
     2    1   62 1    
     3    1   63 1    
     4    1   64 1    
     5    2    3 2    
     6    2    4 am   BACKBONE|DICT|INTERRES
     7    4    5 1    
     8    4   65 1    
     9    5    6 1    
    10    5   25 1    
    11    5   66 1    
    12    6    7 1    
    13    6   67 1    
    14    6   68 1    
    15    7    8 1    
    16    8    9 1    
    17    8   69 1    
    18    8   70 1    
    19    9   10 ar   
    20    9   14 ar   
    21   10   11 ar   
    22   10   71 1    
    23   11   12 ar   
    24   11   61 1    
    25   12   13 ar   
    26   12   72 1    
    27   13   14 ar   
    28   13   15 1    
    29   14   73 1    
    30   15   16 1    
    31   15   74 1    
    32   15   75 1    
    33   16   17 1    
    34   17   18 1    
    35   17   76 1    
    36   17   77 1    
    37   18   19 1    
    38   18   27 1    
    39   18   78 1    
    40   19   20 am   BACKBONE|DICT|INTERRES
    41   19   79 1    
    42   20   21 2    
    43   20   22 1    
    44   22   23 1    
    45   22   24 1    
    46   22   80 1    
    47   23   81 1    
    48   23   82 1    
    49   23   83 1    
    50   24   25 am   BACKBONE|DICT|INTERRES
    51   24   84 1    
    52   25   26 2    
    53   27   28 2    
    54   27   29 am   BACKBONE|DICT|INTERRES
    55   29   30 1    
    56   29   85 1    
    57   30   31 1    
    58   30   32 1    
    59   30   86 1    
    60   31   87 1    
    61   31   88 1    
    62   31   89 1    
    63   32   33 2    
    64   32   34 am   BACKBONE|DICT|INTERRES
    65   34   35 1    
    66   34   90 1    
    67   35   36 1    
    68   35   37 1    
    69   35   91 1    
    70   36   92 1    
    71   36   93 1    
    72   36   94 1    
    73   37   38 2    
    74   37   39 am   BACKBONE|DICT|INTERRES
    75   39   40 1    
    76   39   95 1    
    77   40   41 1    
    78   40   42 1    
    79   40   96 1    
    80   41   97 1    
    81   41   98 1    
    82   41   99 1    
    83   42   43 2    
    84   42   44 am   BACKBONE|DICT|INTERRES
    85   44   45 1    
    86   44  100 1    
    87   45   46 1    
    88   45   47 1    
    89   45  101 1    
    90   46  102 1    
    91   46  103 1    
    92   46  104 1    
    93   47   48 2    
    94   47   49 am   BACKBONE|DICT|INTERRES
    95   49   50 1    
    96   49  105 1    
    97   50   51 1    
    98   50   52 1    
    99   50  106 1    
   100   51  107 1    
   101   51  108 1    
   102   51  109 1    
   103   52   53 2    
   104   52   54 am   BACKBONE|DICT|INTERRES
   105   54   55 1    
   106   54  110 1    
   107   55   56 1    
   108   55   59 1    
   109   55  111 1    
   110   56   57 am   BACKBONE|DICT|INTERRES
   111   56   58 2    
   112   57  112 1    
   113   57  113 1    
   114   59   60 1    
   115   59  114 1    
   116   59  115 1    
   117   60   61 1    
   118   61  116 1    
   119   61  117 1    
@<TRIPOS>SUBSTRUCTURE
     1 UNK         1 GROUP             0       ****    0 ROOT    
