@<TRIPOS>MOLECULE
3R8
117   119    1
SMALL
USER_CHARGES


@<TRIPOS>ATOM
      1 CA         12.5998  -24.3110  -46.3118 C.3       0 UNK        -0.2013 
      2 C          13.8200  -25.1775  -46.0369 C.2       0 UNK         0.4866 
      3 O          14.1051  -26.0956  -46.8069 O.2       0 UNK        -0.5176 
      4 N          14.5361  -24.9005  -44.9406 N.am      1 UNK        -0.4884 
      5 CA         15.7656  -25.5974  -44.5508 C.3       1 UNK         0.0853 
      6 C6         16.1618  -25.2920  -43.0860 C.3       10 UNK        -0.0849 
      7 S7         15.0251  -26.0017  -41.8482 S.3       10 UNK        -0.2776 
      8 C8         15.5267  -27.7644  -41.7867 C.3       10 UNK         0.0316 
      9 C9         17.0016  -28.0529  -41.4857 C.ar      10 UNK        -0.0863 
     10 C10        17.5314  -29.2904  -41.8729 C.ar      10 UNK        -0.1009 
     11 C11        18.8726  -29.6035  -41.6316 C.ar      10 UNK        -0.0712 
     12 C12        19.6907  -28.6624  -41.0072 C.ar      10 UNK        -0.0894 
     13 C13        19.1924  -27.4137  -40.6388 C.ar      10 UNK        -0.0745 
     14 C14        17.8384  -27.1311  -40.8400 C.ar      10 UNK        -0.0972 
     15 C15        20.1194  -26.3564  -40.0589 C.3       10 UNK         0.0209 
     16 S16        20.5779  -25.1258  -41.3247 S.3       10 UNK        -0.2568 
     17 C17        22.0770  -25.8423  -42.0915 C.3       10 UNK        -0.0983 
     18 CA         21.7994  -26.7838  -43.2966 C.3       3 UNK         0.0876 
     19 N          20.9294  -26.1533  -44.2972 N.am      3 UNK        -0.4424 
     20 C          20.1838  -26.8052  -45.1972 C.2       2 UNK         0.4918 
     21 O          20.1576  -28.0312  -45.3131 O.2       2 UNK        -0.4875 
     22 CA         19.2555  -25.9570  -46.0693 C.3       2 UNK         0.0481 
     23 CB         19.2991  -26.3746  -47.5501 C.3       2 UNK        -0.1831 
     24 N          17.9203  -26.1563  -45.5257 N.am      2 UNK        -0.4498 
     25 C          16.9515  -25.2382  -45.4685 C.2       1 UNK         0.5027 
     26 O          17.0065  -24.1363  -46.0218 O.2       1 UNK        -0.4969 
     27 C          23.0971  -27.2979  -43.9630 C.2       3 UNK         0.5005 
     28 O          24.1600  -26.6939  -43.8045 O.2       3 UNK        -0.5279 
     29 N          22.9633  -28.3654  -44.7626 N.am      4 UNK        -0.4463 
     30 CA         23.9791  -28.9044  -45.6729 C.3       4 UNK         0.0283 
     31 CB         23.3343  -29.9985  -46.5392 C.3       4 UNK        -0.1875 
     32 C          25.2482  -29.4473  -44.9944 C.2       4 UNK         0.4949 
     33 O          26.3159  -29.4161  -45.6068 O.2       4 UNK        -0.5039 
     34 N          25.1154  -29.9363  -43.7586 N.am      5 UNK        -0.4663 
     35 CA         26.2049  -30.4597  -42.9399 C.3       5 UNK         0.0242 
     36 CB         26.5287  -31.9184  -43.3213 C.3       5 UNK        -0.1982 
     37 C          25.7781  -30.2980  -41.4819 C.2       5 UNK         0.5017 
     38 O          25.3216  -31.2621  -40.8619 O.2       5 UNK        -0.5012 
     39 N          25.8496  -29.0485  -41.0004 N.am      6 UNK        -0.4439 
     40 CA         25.3521  -28.5834  -39.7010 C.3       6 UNK         0.0297 
     41 CB         26.2204  -29.1510  -38.5540 C.3       6 UNK        -0.2006 
     42 C          23.8439  -28.8692  -39.5515 C.2       6 UNK         0.4892 
     43 O          23.1195  -28.7910  -40.5439 O.2       6 UNK        -0.5089 
     44 N          23.3998  -29.2137  -38.3371 N.am      7 UNK        -0.4243 
     45 CA         22.0277  -29.6353  -38.0438 C.3       7 UNK         0.0196 
     46 CB         21.7768  -29.4850  -36.5341 C.3       7 UNK        -0.2007 
     47 C          21.7129  -31.0737  -38.5022 C.2       7 UNK         0.5020 
     48 O          20.5415  -31.4509  -38.5088 O.2       7 UNK        -0.5147 
     49 N          22.7435  -31.8647  -38.8341 N.am      8 UNK        -0.4734 
     50 CA         22.6101  -33.2709  -39.2177 C.3       8 UNK         0.0238 
     51 CB         23.9340  -34.0055  -38.9476 C.3       8 UNK        -0.1912 
     52 C          22.1784  -33.4507  -40.6804 C.2       8 UNK         0.5038 
     53 O          21.3022  -34.2752  -40.9453 O.2       8 UNK        -0.5046 
     54 N          22.8062  -32.6923  -41.5906 N.am      9 UNK        -0.4200 
     55 CA         22.6802  -32.8175  -43.0551 C.3       9 UNK         0.0839 
     56 C          23.2349  -34.1683  -43.6080 C.2       9 UNK         0.5513 
     57 N          23.0858  -34.4322  -44.8998 N.am      9 UNK        -0.7519 
     58 O          23.8475  -34.9640  -42.8985 O.2       9 UNK        -0.4960 
     59 C59        21.2554  -32.4757  -43.5850 C.3       10 UNK        -0.0876 
     60 S60        20.7933  -30.7444  -43.2623 S.3       10 UNK        -0.2414 
     61 C61        19.4525  -30.9478  -42.0485 C.3       10 UNK         0.0169 
     62 H62        12.7067  -23.8071  -47.2720 H         1 UNK         0.0903 
     63 H63        11.7021  -24.9275  -46.3481 H         1 UNK         0.0903 
     64 H64        12.4578  -23.5507  -45.5439 H         1 UNK         0.0903 
     65 H65        14.2634  -24.1298  -44.3474 H         1 UNK         0.3096 
     66 H66        15.5857  -26.6701  -44.6516 H         1 UNK         0.1121 
     67 H67        17.1718  -25.6431  -42.8754 H         1 UNK         0.0849 
     68 H68        16.2005  -24.2128  -42.9248 H         1 UNK         0.0849 
     69 H69        15.2530  -28.2246  -42.7373 H         1 UNK         0.0865 
     70 H70        14.9224  -28.2619  -41.0271 H         1 UNK         0.0865 
     71 H71        16.8966  -30.0145  -42.3656 H         1 UNK         0.1346 
     72 H72        20.7300  -28.8986  -40.8469 H         1 UNK         0.1412 
     73 H73        17.4550  -26.1692  -40.5299 H         1 UNK         0.1426 
     74 H74        21.0166  -26.8069  -39.6322 H         1 UNK         0.0716 
     75 H75        19.6141  -25.8456  -39.2381 H         1 UNK         0.0716 
     76 H76        22.6549  -26.3591  -41.3253 H         1 UNK         0.0695 
     77 H77        22.6959  -25.0010  -42.4087 H         1 UNK         0.0695 
     78 H78        21.2831  -27.6618  -42.9086 H         1 UNK         0.0983 
     79 H79        20.8785  -25.1460  -44.2566 H         1 UNK         0.3095 
     80 H80        19.5459  -24.9074  -45.9857 H         1 UNK         0.0454 
     81 H81        18.6407  -25.7513  -48.1552 H         1 UNK         0.0851 
     82 H82        18.9952  -27.4129  -47.6888 H         1 UNK         0.0851 
     83 H83        20.3070  -26.2718  -47.9536 H         1 UNK         0.0851 
     84 H84        17.8030  -27.0294  -45.0270 H         1 UNK         0.2976 
     85 H85        22.0241  -28.7395  -44.8649 H         1 UNK         0.3116 
     86 H86        24.2890  -28.0890  -46.3297 H         1 UNK         0.0646 
     87 H87        24.0505  -30.4052  -47.2547 H         1 UNK         0.0847 
     88 H88        22.4927  -29.6080  -47.1118 H         1 UNK         0.0847 
     89 H89        22.9708  -30.8292  -45.9332 H         1 UNK         0.0847 
     90 H90        24.2105  -29.8736  -43.3099 H         1 UNK         0.3040 
     91 H91        27.1027  -29.8569  -43.0962 H         1 UNK         0.1015 
     92 H92        26.8345  -32.0001  -44.3643 H         1 UNK         0.0786 
     93 H93        25.6789  -32.5815  -43.1696 H         1 UNK         0.0786 
     94 H94        27.3484  -32.3022  -42.7128 H         1 UNK         0.0786 
     95 H95        26.1642  -28.3211  -41.6281 H         1 UNK         0.3172 
     96 H96        25.4598  -27.4979  -39.6996 H         1 UNK         0.0595 
     97 H97        26.0940  -30.2282  -38.4368 H         1 UNK         0.0839 
     98 H98        25.9819  -28.6797  -37.5999 H         1 UNK         0.0839 
     99 H99        27.2787  -28.9648  -38.7373 H         1 UNK         0.0839 
    100 H100       24.0600  -29.2533  -37.5739 H         1 UNK         0.2998 
    101 H101       21.3381  -28.9702  -38.5651 H         1 UNK         0.0822 
    102 H102       21.9318  -28.4570  -36.2060 H         1 UNK         0.0787 
    103 H103       20.7497  -29.7517  -36.2804 H         1 UNK         0.0787 
    104 H104       22.4344  -30.1292  -35.9488 H         1 UNK         0.0787 
    105 H105       23.6740  -31.4713  -38.8499 H         1 UNK         0.3055 
    106 H106       21.8411  -33.7304  -38.5917 H         1 UNK         0.1106 
    107 H107       23.8546  -35.0602  -39.2149 H         1 UNK         0.0828 
    108 H108       24.7583  -33.5865  -39.5259 H         1 UNK         0.0828 
    109 H109       24.2059  -33.9589  -37.8930 H         1 UNK         0.0828 
    110 H110       23.5524  -32.0862  -41.2659 H         1 UNK         0.2931 
    111 H111       23.3587  -32.0650  -43.4541 H         1 UNK         0.0412 
    112 H112       22.6201  -33.7912  -45.5216 H         1 UNK         0.3472 
    113 H113       23.4600  -35.2949  -45.2638 H         1 UNK         0.3472 
    114 H114       21.1967  -32.6026  -44.6662 H         1 UNK         0.0970 
    115 H115       20.5083  -33.1537  -43.1706 H         1 UNK         0.0970 
    116 H116       18.6781  -31.5868  -42.4751 H         1 UNK         0.0612 
    117 H117       19.8374  -31.4633  -41.1682 H         1 UNK         0.0612 
@<TRIPOS>BOND
     1    1    2 1    
     2    1   62 1    
     3    1   63 1    
     4    1   64 1    
     5    2    3 2    
     6    2    4 am   BACKBONE|DICT|INTERRES
     7    4    5 1    
     8    4   65 1    
     9    5    6 1    
    10    5   25 1    
    11    5   66 1    
    12    6    7 1    
    13    6   67 1    
    14    6   68 1    
    15    7    8 1    
    16    8    9 1    
    17    8   69 1    
    18    8   70 1    
    19    9   10 ar   
    20    9   14 ar   
    21   10   11 ar   
    22   10   71 1    
    23   11   12 ar   
    24   11   61 1    
    25   12   13 ar   
    26   12   72 1    
    27   13   14 ar   
    28   13   15 1    
    29   14   73 1    
    30   15   16 1    
    31   15   74 1    
    32   15   75 1    
    33   16   17 1    
    34   17   18 1    
    35   17   76 1    
    36   17   77 1    
    37   18   19 1    
    38   18   27 1    
    39   18   78 1    
    40   19   20 am   BACKBONE|DICT|INTERRES
    41   19   79 1    
    42   20   21 2    
    43   20   22 1    
    44   22   23 1    
    45   22   24 1    
    46   22   80 1    
    47   23   81 1    
    48   23   82 1    
    49   23   83 1    
    50   24   25 am   BACKBONE|DICT|INTERRES
    51   24   84 1    
    52   25   26 2    
    53   27   28 2    
    54   27   29 am   BACKBONE|DICT|INTERRES
    55   29   30 1    
    56   29   85 1    
    57   30   31 1    
    58   30   32 1    
    59   30   86 1    
    60   31   87 1    
    61   31   88 1    
    62   31   89 1    
    63   32   33 2    
    64   32   34 am   BACKBONE|DICT|INTERRES
    65   34   35 1    
    66   34   90 1    
    67   35   36 1    
    68   35   37 1    
    69   35   91 1    
    70   36   92 1    
    71   36   93 1    
    72   36   94 1    
    73   37   38 2    
    74   37   39 am   BACKBONE|DICT|INTERRES
    75   39   40 1    
    76   39   95 1    
    77   40   41 1    
    78   40   42 1    
    79   40   96 1    
    80   41   97 1    
    81   41   98 1    
    82   41   99 1    
    83   42   43 2    
    84   42   44 am   BACKBONE|DICT|INTERRES
    85   44   45 1    
    86   44  100 1    
    87   45   46 1    
    88   45   47 1    
    89   45  101 1    
    90   46  102 1    
    91   46  103 1    
    92   46  104 1    
    93   47   48 2    
    94   47   49 am   BACKBONE|DICT|INTERRES
    95   49   50 1    
    96   49  105 1    
    97   50   51 1    
    98   50   52 1    
    99   50  106 1    
   100   51  107 1    
   101   51  108 1    
   102   51  109 1    
   103   52   53 2    
   104   52   54 am   BACKBONE|DICT|INTERRES
   105   54   55 1    
   106   54  110 1    
   107   55   56 1    
   108   55   59 1    
   109   55  111 1    
   110   56   57 am   BACKBONE|DICT|INTERRES
   111   56   58 2    
   112   57  112 1    
   113   57  113 1    
   114   59   60 1    
   115   59  114 1    
   116   59  115 1    
   117   60   61 1    
   118   61  116 1    
   119   61  117 1    
@<TRIPOS>SUBSTRUCTURE
     1 UNK         1 GROUP             0       ****    0 ROOT    
