@<TRIPOS>MOLECULE
3R8
117   119    1
SMALL
USER_CHARGES


@<TRIPOS>ATOM
      1 CA         15.9470  -30.5692  -47.8351 C.3       0 UNK        -0.2013 
      2 C          16.0293  -29.6933  -46.5941 C.2       0 UNK         0.4866 
      3 O          15.4632  -30.0471  -45.5615 O.2       0 UNK        -0.5176 
      4 N          16.7292  -28.5593  -46.6931 N.am      1 UNK        -0.4884 
      5 CA         17.0066  -27.5934  -45.6292 C.3       1 UNK         0.0853 
      6 C6         15.7340  -26.8387  -45.1429 C.3       10 UNK        -0.0849 
      7 S7         15.9115  -26.0076  -43.5224 S.3       10 UNK        -0.2776 
      8 C8         15.5185  -27.3327  -42.3318 C.3       10 UNK         0.0316 
      9 C9         16.7324  -28.2039  -42.0399 C.ar      10 UNK        -0.0863 
     10 C10        16.7966  -29.5162  -42.5183 C.ar      10 UNK        -0.1009 
     11 C11        17.9294  -30.3019  -42.2867 C.ar      10 UNK        -0.0712 
     12 C12        18.9891  -29.7778  -41.5433 C.ar      10 UNK        -0.0894 
     13 C13        18.9279  -28.4763  -41.0395 C.ar      10 UNK        -0.0745 
     14 C14        17.7972  -27.6935  -41.2899 C.ar      10 UNK        -0.0972 
     15 C15        20.0868  -27.9184  -40.2287 C.3       10 UNK         0.0209 
     16 S16        21.0837  -26.7255  -41.1727 S.3       10 UNK        -0.2568 
     17 C17        21.6771  -27.7032  -42.6062 C.3       10 UNK        -0.0983 
     18 CA         22.0797  -26.8193  -43.8157 C.3       3 UNK         0.0876 
     19 N          20.9570  -25.9810  -44.2420 N.am      3 UNK        -0.4424 
     20 C          20.8680  -25.2938  -45.3867 C.2       2 UNK         0.4918 
     21 O          21.7737  -25.2149  -46.2177 O.2       2 UNK        -0.4875 
     22 CA         19.5050  -24.6175  -45.6333 C.3       2 UNK         0.0481 
     23 CB         19.4120  -23.9112  -47.0026 C.3       2 UNK        -0.1831 
     24 N          18.3946  -25.5620  -45.4373 N.am      2 UNK        -0.4498 
     25 C          18.1524  -26.6855  -46.1297 C.2       1 UNK         0.5027 
     26 O          18.8034  -27.0299  -47.1215 O.2       1 UNK        -0.4969 
     27 C          23.3761  -26.0463  -43.5021 C.2       3 UNK         0.5005 
     28 O          24.4412  -26.6620  -43.4961 O.2       3 UNK        -0.5279 
     29 N          23.2652  -24.7523  -43.1588 N.am      4 UNK        -0.4463 
     30 CA         24.3360  -23.9047  -42.6096 C.3       4 UNK         0.0283 
     31 CB         25.4099  -23.6103  -43.6786 C.3       4 UNK        -0.1875 
     32 C          24.9294  -24.4791  -41.3025 C.2       4 UNK         0.4949 
     33 O          26.1362  -24.3880  -41.0759 O.2       4 UNK        -0.5039 
     34 N          24.0530  -25.0863  -40.4865 N.am      5 UNK        -0.4663 
     35 CA         24.3155  -25.7863  -39.2225 C.3       5 UNK         0.0242 
     36 CB         24.9414  -24.8385  -38.1764 C.3       5 UNK        -0.1982 
     37 C          25.0986  -27.1091  -39.3657 C.2       5 UNK         0.5017 
     38 O          25.5723  -27.6288  -38.3542 O.2       5 UNK        -0.5012 
     39 N          25.2049  -27.6591  -40.5871 N.am      6 UNK        -0.4439 
     40 CA         25.8869  -28.9326  -40.8562 C.3       6 UNK         0.0297 
     41 CB         26.1567  -29.0697  -42.3629 C.3       6 UNK        -0.2006 
     42 C          25.1303  -30.1735  -40.3448 C.2       6 UNK         0.4892 
     43 O          25.7711  -31.1993  -40.1142 O.2       6 UNK        -0.5089 
     44 N          23.7989  -30.0626  -40.1924 N.am      7 UNK        -0.4243 
     45 CA         22.8667  -31.1097  -39.7442 C.3       7 UNK         0.0196 
     46 CB         23.0874  -31.4285  -38.2504 C.3       7 UNK        -0.2007 
     47 C          22.8966  -32.3654  -40.6392 C.2       7 UNK         0.5020 
     48 O          22.9564  -33.4877  -40.1351 O.2       7 UNK        -0.5147 
     49 N          22.8611  -32.1458  -41.9619 N.am      8 UNK        -0.4734 
     50 CA         23.0310  -33.1671  -43.0048 C.3       8 UNK         0.0238 
     51 CB         23.0081  -32.4834  -44.3819 C.3       8 UNK        -0.1912 
     52 C          22.0200  -34.3291  -42.9669 C.2       8 UNK         0.5038 
     53 O          22.3735  -35.4409  -43.3619 O.2       8 UNK        -0.5046 
     54 N          20.7984  -34.0570  -42.4930 N.am      9 UNK        -0.4200 
     55 CA         19.7415  -35.0547  -42.2632 C.3       9 UNK         0.0839 
     56 C          19.8425  -35.7998  -40.8985 C.2       9 UNK         0.5513 
     57 N          20.8037  -35.4993  -40.0325 N.am      9 UNK        -0.7519 
     58 O          19.0400  -36.6894  -40.6269 O.2       9 UNK        -0.4960 
     59 C59        18.3267  -34.4702  -42.5271 C.3       10 UNK        -0.0876 
     60 S60        17.9459  -32.9693  -41.5577 S.3       10 UNK        -0.2414 
     61 C61        18.0308  -31.7046  -42.8621 C.3       10 UNK         0.0169 
     62 H62        16.3596  -31.5557  -47.6256 H         1 UNK         0.0903 
     63 H63        14.9078  -30.6919  -48.1388 H         1 UNK         0.0903 
     64 H64        16.4973  -30.1424  -48.6735 H         1 UNK         0.0903 
     65 H65        17.2287  -28.3426  -47.5489 H         1 UNK         0.3096 
     66 H66        17.4223  -28.1593  -44.7954 H         1 UNK         0.1121 
     67 H67        15.4287  -26.0972  -45.8835 H         1 UNK         0.0849 
     68 H68        14.8897  -27.5237  -45.0633 H         1 UNK         0.0849 
     69 H69        15.1789  -26.8772  -41.4005 H         1 UNK         0.0865 
     70 H70        14.6819  -27.9299  -42.6983 H         1 UNK         0.0865 
     71 H71        15.9733  -29.9193  -43.0908 H         1 UNK         0.1346 
     72 H72        19.8637  -30.3862  -41.3626 H         1 UNK         0.1412 
     73 H73        17.7527  -26.6804  -40.9133 H         1 UNK         0.1426 
     74 H74        20.7320  -28.7173  -39.8663 H         1 UNK         0.0716 
     75 H75        19.6963  -27.4211  -39.3396 H         1 UNK         0.0716 
     76 H76        22.5062  -28.3375  -42.2892 H         1 UNK         0.0695 
     77 H77        20.8923  -28.3866  -42.9284 H         1 UNK         0.0695 
     78 H78        22.3178  -27.4824  -44.6505 H         1 UNK         0.0983 
     79 H79        20.1621  -25.9806  -43.6190 H         1 UNK         0.3095 
     80 H80        19.3963  -23.8521  -44.8635 H         1 UNK         0.0454 
     81 H81        20.1684  -23.1302  -47.0878 H         1 UNK         0.0851 
     82 H82        18.4405  -23.4368  -47.1390 H         1 UNK         0.0851 
     83 H83        19.5680  -24.6011  -47.8322 H         1 UNK         0.0851 
     84 H84        17.7815  -25.3686  -44.6532 H         1 UNK         0.2976 
     85 H85        22.3412  -24.3435  -43.1784 H         1 UNK         0.3116 
     86 H86        23.8706  -22.9555  -42.3401 H         1 UNK         0.0646 
     87 H87        25.9695  -24.5059  -43.9500 H         1 UNK         0.0847 
     88 H88        24.9649  -23.2050  -44.5872 H         1 UNK         0.0847 
     89 H89        26.1306  -22.8763  -43.3163 H         1 UNK         0.0847 
     90 H90        23.0885  -25.1160  -40.7919 H         1 UNK         0.3040 
     91 H91        23.3347  -26.0773  -38.8427 H         1 UNK         0.1015 
     92 H92        24.9678  -25.3049  -37.1907 H         1 UNK         0.0786 
     93 H93        24.3662  -23.9177  -38.0798 H         1 UNK         0.0786 
     94 H94        25.9665  -24.5698  -38.4324 H         1 UNK         0.0786 
     95 H95        24.8428  -27.1556  -41.3889 H         1 UNK         0.3172 
     96 H96        26.8526  -28.9071  -40.3467 H         1 UNK         0.0595 
     97 H97        25.2315  -29.1495  -42.9345 H         1 UNK         0.0839 
     98 H98        26.7444  -29.9643  -42.5736 H         1 UNK         0.0839 
     99 H99        26.7173  -28.2173  -42.7473 H         1 UNK         0.0839 
    100 H100       23.3884  -29.1644  -40.4007 H         1 UNK         0.2998 
    101 H101       21.8614  -30.7023  -39.8416 H         1 UNK         0.0822 
    102 H102       22.3300  -32.1218  -37.8821 H         1 UNK         0.0787 
    103 H103       23.0259  -30.5277  -37.6397 H         1 UNK         0.0787 
    104 H104       24.0608  -31.8871  -38.0735 H         1 UNK         0.0787 
    105 H105       22.8206  -31.1890  -42.2798 H         1 UNK         0.3055 
    106 H106       24.0196  -33.6088  -42.8601 H         1 UNK         0.1106 
    107 H107       23.8017  -31.7414  -44.4717 H         1 UNK         0.0828 
    108 H108       23.1577  -33.2103  -45.1817 H         1 UNK         0.0828 
    109 H109       22.0565  -31.9846  -44.5699 H         1 UNK         0.0828 
    110 H110       20.6044  -33.1251  -42.1605 H         1 UNK         0.2931 
    111 H111       19.8741  -35.8423  -43.0074 H         1 UNK         0.0412 
    112 H112       20.8493  -36.0031  -39.1612 H         1 UNK         0.3472 
    113 H113       21.4969  -34.7851  -40.2321 H         1 UNK         0.3472 
    114 H114       18.2248  -34.2468  -43.5901 H         1 UNK         0.0970 
    115 H115       17.5563  -35.2162  -42.3228 H         1 UNK         0.0970 
    116 H116       17.2347  -31.8827  -43.5872 H         1 UNK         0.0612 
    117 H117       18.9725  -31.8002  -43.4049 H         1 UNK         0.0612 
@<TRIPOS>BOND
     1    1    2 1    
     2    1   62 1    
     3    1   63 1    
     4    1   64 1    
     5    2    3 2    
     6    2    4 am   BACKBONE|DICT|INTERRES
     7    4    5 1    
     8    4   65 1    
     9    5    6 1    
    10    5   25 1    
    11    5   66 1    
    12    6    7 1    
    13    6   67 1    
    14    6   68 1    
    15    7    8 1    
    16    8    9 1    
    17    8   69 1    
    18    8   70 1    
    19    9   10 ar   
    20    9   14 ar   
    21   10   11 ar   
    22   10   71 1    
    23   11   12 ar   
    24   11   61 1    
    25   12   13 ar   
    26   12   72 1    
    27   13   14 ar   
    28   13   15 1    
    29   14   73 1    
    30   15   16 1    
    31   15   74 1    
    32   15   75 1    
    33   16   17 1    
    34   17   18 1    
    35   17   76 1    
    36   17   77 1    
    37   18   19 1    
    38   18   27 1    
    39   18   78 1    
    40   19   20 am   BACKBONE|DICT|INTERRES
    41   19   79 1    
    42   20   21 2    
    43   20   22 1    
    44   22   23 1    
    45   22   24 1    
    46   22   80 1    
    47   23   81 1    
    48   23   82 1    
    49   23   83 1    
    50   24   25 am   BACKBONE|DICT|INTERRES
    51   24   84 1    
    52   25   26 2    
    53   27   28 2    
    54   27   29 am   BACKBONE|DICT|INTERRES
    55   29   30 1    
    56   29   85 1    
    57   30   31 1    
    58   30   32 1    
    59   30   86 1    
    60   31   87 1    
    61   31   88 1    
    62   31   89 1    
    63   32   33 2    
    64   32   34 am   BACKBONE|DICT|INTERRES
    65   34   35 1    
    66   34   90 1    
    67   35   36 1    
    68   35   37 1    
    69   35   91 1    
    70   36   92 1    
    71   36   93 1    
    72   36   94 1    
    73   37   38 2    
    74   37   39 am   BACKBONE|DICT|INTERRES
    75   39   40 1    
    76   39   95 1    
    77   40   41 1    
    78   40   42 1    
    79   40   96 1    
    80   41   97 1    
    81   41   98 1    
    82   41   99 1    
    83   42   43 2    
    84   42   44 am   BACKBONE|DICT|INTERRES
    85   44   45 1    
    86   44  100 1    
    87   45   46 1    
    88   45   47 1    
    89   45  101 1    
    90   46  102 1    
    91   46  103 1    
    92   46  104 1    
    93   47   48 2    
    94   47   49 am   BACKBONE|DICT|INTERRES
    95   49   50 1    
    96   49  105 1    
    97   50   51 1    
    98   50   52 1    
    99   50  106 1    
   100   51  107 1    
   101   51  108 1    
   102   51  109 1    
   103   52   53 2    
   104   52   54 am   BACKBONE|DICT|INTERRES
   105   54   55 1    
   106   54  110 1    
   107   55   56 1    
   108   55   59 1    
   109   55  111 1    
   110   56   57 am   BACKBONE|DICT|INTERRES
   111   56   58 2    
   112   57  112 1    
   113   57  113 1    
   114   59   60 1    
   115   59  114 1    
   116   59  115 1    
   117   60   61 1    
   118   61  116 1    
   119   61  117 1    
@<TRIPOS>SUBSTRUCTURE
     1 UNK         1 GROUP             0       ****    0 ROOT    
