@<TRIPOS>MOLECULE
3R8
117   119    1
SMALL
USER_CHARGES


@<TRIPOS>ATOM
      1 CA         14.3326  -22.4316  -47.7216 C.3       0 UNK        -0.2013 
      2 C          15.5333  -22.8784  -46.9010 C.2       0 UNK         0.4866 
      3 O          16.3456  -22.0439  -46.4997 O.2       0 UNK        -0.5176 
      4 N          15.6576  -24.1886  -46.6568 N.am      1 UNK        -0.4884 
      5 CA         16.7208  -24.7882  -45.8445 C.3       1 UNK         0.0853 
      6 C6         16.7731  -26.3266  -46.0118 C.3       10 UNK        -0.0849 
      7 S7         17.3554  -26.8593  -47.6530 S.3       10 UNK        -0.2776 
      8 C8         17.0050  -28.6507  -47.5879 C.3       10 UNK         0.0316 
      9 C9         17.5665  -29.3105  -46.3330 C.ar      10 UNK        -0.0863 
     10 C10        18.9376  -29.5605  -46.2156 C.ar      10 UNK        -0.1009 
     11 C11        19.4545  -30.1357  -45.0503 C.ar      10 UNK        -0.0712 
     12 C12        18.5899  -30.4709  -44.0034 C.ar      10 UNK        -0.0894 
     13 C13        17.2183  -30.2301  -44.1105 C.ar      10 UNK        -0.0745 
     14 C14        16.7123  -29.6532  -45.2789 C.ar      10 UNK        -0.0972 
     15 C15        16.2784  -30.5985  -42.9721 C.3       10 UNK         0.0209 
     16 S16        15.9800  -29.1879  -41.8595 S.3       10 UNK        -0.2568 
     17 C17        17.4186  -29.2580  -40.7342 C.3       10 UNK        -0.0983 
     18 CA         18.5400  -28.2487  -41.0975 C.3       3 UNK         0.0876 
     19 N          18.0276  -26.8774  -41.2311 N.am      3 UNK        -0.4424 
     20 C          18.5709  -25.9312  -42.0030 C.2       2 UNK         0.4918 
     21 O          19.6527  -26.0598  -42.5825 O.2       2 UNK        -0.4875 
     22 CA         17.7754  -24.6365  -42.1937 C.3       2 UNK         0.0481 
     23 CB         18.5035  -23.4408  -41.5589 C.3       2 UNK        -0.1831 
     24 N          17.6845  -24.4539  -43.6371 N.am      2 UNK        -0.4498 
     25 C          16.5516  -24.4653  -44.3464 C.2       1 UNK         0.5027 
     26 O          15.4249  -24.3356  -43.8596 O.2       1 UNK        -0.4969 
     27 C          19.7519  -28.3398  -40.1391 C.2       3 UNK         0.5005 
     28 O          19.7873  -29.2055  -39.2615 O.2       3 UNK        -0.5279 
     29 N          20.7304  -27.4511  -40.3291 N.am      4 UNK        -0.4463 
     30 CA         21.9942  -27.3844  -39.6000 C.3       4 UNK         0.0283 
     31 CB         21.8289  -26.5236  -38.3326 C.3       4 UNK        -0.1875 
     32 C          23.0857  -26.8702  -40.5501 C.2       4 UNK         0.4949 
     33 O          23.8520  -25.9737  -40.1948 O.2       4 UNK        -0.5039 
     34 N          23.1122  -27.4342  -41.7634 N.am      5 UNK        -0.4663 
     35 CA         24.0843  -27.1220  -42.8121 C.3       5 UNK         0.0242 
     36 CB         23.4688  -27.4623  -44.1789 C.3       5 UNK        -0.1982 
     37 C          25.4063  -27.8822  -42.6183 C.2       5 UNK         0.5017 
     38 O          26.4458  -27.4132  -43.0831 O.2       5 UNK        -0.5012 
     39 N          25.3441  -29.0339  -41.9417 N.am      6 UNK        -0.4439 
     40 CA         26.4673  -29.9016  -41.6081 C.3       6 UNK         0.0297 
     41 CB         26.8103  -30.7940  -42.8169 C.3       6 UNK        -0.2006 
     42 C          26.0698  -30.7501  -40.3968 C.2       6 UNK         0.4892 
     43 O          24.8839  -30.8301  -40.0706 O.2       6 UNK        -0.5089 
     44 N          27.0499  -31.4270  -39.7848 N.am      7 UNK        -0.4243 
     45 CA         26.8346  -32.3687  -38.6765 C.3       7 UNK         0.0196 
     46 CB         28.1958  -32.8415  -38.1411 C.3       7 UNK        -0.2007 
     47 C          25.9535  -33.5786  -39.0501 C.2       7 UNK         0.5020 
     48 O          25.3032  -34.1478  -38.1736 O.2       7 UNK        -0.5147 
     49 N          25.9385  -33.9328  -40.3415 N.am      8 UNK        -0.4734 
     50 CA         25.1215  -34.9989  -40.9224 C.3       8 UNK         0.0238 
     51 CB         26.0119  -35.8307  -41.8643 C.3       8 UNK        -0.1912 
     52 C          23.8798  -34.4677  -41.6674 C.2       8 UNK         0.5038 
     53 O          23.2024  -35.2677  -42.3149 O.2       8 UNK        -0.5046 
     54 N          23.5970  -33.1582  -41.5979 N.am      9 UNK        -0.4200 
     55 CA         22.4721  -32.5190  -42.2908 C.3       9 UNK         0.0839 
     56 C          21.9542  -31.3195  -41.4614 C.2       9 UNK         0.5513 
     57 N          21.0508  -31.5564  -40.5206 N.am      9 UNK        -0.7519 
     58 O          22.3568  -30.1781  -41.6720 O.2       9 UNK        -0.4960 
     59 C59        22.8180  -32.1603  -43.7662 C.3       10 UNK        -0.0876 
     60 S60        21.3371  -32.1468  -44.8316 S.3       10 UNK        -0.2414 
     61 C61        20.9482  -30.3702  -44.8973 C.3       10 UNK         0.0169 
     62 H62        13.7073  -23.2724  -48.0214 H         1 UNK         0.0903 
     63 H63        13.7186  -21.7421  -47.1428 H         1 UNK         0.0903 
     64 H64        14.6645  -21.9179  -48.6235 H         1 UNK         0.0903 
     65 H65        14.9576  -24.8293  -47.0023 H         1 UNK         0.3096 
     66 H66        17.6729  -24.3657  -46.1751 H         1 UNK         0.1121 
     67 H67        15.7938  -26.7682  -45.8160 H         1 UNK         0.0849 
     68 H68        17.4557  -26.7676  -45.2813 H         1 UNK         0.0849 
     69 H69        15.9264  -28.8037  -47.6510 H         1 UNK         0.0865 
     70 H70        17.4297  -29.1285  -48.4720 H         1 UNK         0.0865 
     71 H71        19.6015  -29.2887  -47.0250 H         1 UNK         0.1346 
     72 H72        18.9897  -30.9167  -43.1025 H         1 UNK         0.1412 
     73 H73        15.6513  -29.4592  -45.3603 H         1 UNK         0.1426 
     74 H74        16.6647  -31.4498  -42.4097 H         1 UNK         0.0716 
     75 H75        15.3213  -30.9227  -43.3836 H         1 UNK         0.0716 
     76 H76        17.8108  -30.2766  -40.7214 H         1 UNK         0.0695 
     77 H77        17.0534  -29.0655  -39.7237 H         1 UNK         0.0695 
     78 H78        18.9262  -28.5460  -42.0740 H         1 UNK         0.0983 
     79 H79        17.1433  -26.6948  -40.7790 H         1 UNK         0.3095 
     80 H80        16.7871  -24.7401  -41.7407 H         1 UNK         0.0454 
     81 H81        19.5101  -23.3162  -41.9603 H         1 UNK         0.0851 
     82 H82        18.5954  -23.5691  -40.4797 H         1 UNK         0.0851 
     83 H83        17.9590  -22.5123  -41.7307 H         1 UNK         0.0851 
     84 H84        18.5582  -24.6129  -44.1228 H         1 UNK         0.2976 
     85 H85        20.6292  -26.8040  -41.1084 H         1 UNK         0.3116 
     86 H86        22.2931  -28.3918  -39.3012 H         1 UNK         0.0646 
     87 H87        21.5429  -25.5001  -38.5772 H         1 UNK         0.0847 
     88 H88        22.7597  -26.4786  -37.7658 H         1 UNK         0.0847 
     89 H89        21.0678  -26.9357  -37.6700 H         1 UNK         0.0847 
     90 H90        22.5112  -28.2385  -41.9219 H         1 UNK         0.3040 
     91 H91        24.3047  -26.0523  -42.7878 H         1 UNK         0.1015 
     92 H92        23.2865  -28.5322  -44.2815 H         1 UNK         0.0786 
     93 H93        24.1358  -27.1672  -44.9900 H         1 UNK         0.0786 
     94 H94        22.5222  -26.9425  -44.3304 H         1 UNK         0.0786 
     95 H95        24.4536  -29.3381  -41.5572 H         1 UNK         0.3172 
     96 H96        27.3304  -29.2909  -41.3351 H         1 UNK         0.0595 
     97 H97        25.9703  -31.4299  -43.0996 H         1 UNK         0.0839 
     98 H98        27.6583  -31.4454  -42.6029 H         1 UNK         0.0839 
     99 H99        27.0811  -30.1965  -43.6875 H         1 UNK         0.0839 
    100 H100       28.0007  -31.3132  -40.1076 H         1 UNK         0.2998 
    101 H101       26.3201  -31.8291  -37.8784 H         1 UNK         0.0822 
    102 H102       28.7976  -32.0035  -37.7887 H         1 UNK         0.0787 
    103 H103       28.0683  -33.5226  -37.2982 H         1 UNK         0.0787 
    104 H104       28.7684  -33.3711  -38.9037 H         1 UNK         0.0787 
    105 H105       26.5137  -33.4064  -40.9830 H         1 UNK         0.3055 
    106 H106       24.7539  -35.6600  -40.1343 H         1 UNK         0.1106 
    107 H107       25.4666  -36.6825  -42.2734 H         1 UNK         0.0828 
    108 H108       26.3726  -35.2397  -42.7070 H         1 UNK         0.0828 
    109 H109       26.8793  -36.2306  -41.3389 H         1 UNK         0.0828 
    110 H110       24.1411  -32.5487  -40.9961 H         1 UNK         0.2931 
    111 H111       21.6550  -33.2439  -42.3126 H         1 UNK         0.0412 
    112 H112       20.7273  -32.4920  -40.3331 H         1 UNK         0.3472 
    113 H113       20.6975  -30.7801  -39.9709 H         1 UNK         0.3472 
    114 H114       23.4852  -32.9150  -44.1851 H         1 UNK         0.0970 
    115 H115       23.3641  -31.2184  -43.8440 H         1 UNK         0.0970 
    116 H116       21.2761  -29.8725  -43.9864 H         1 UNK         0.0612 
    117 H117       21.5062  -29.9137  -45.7161 H         1 UNK         0.0612 
@<TRIPOS>BOND
     1    1    2 1    
     2    1   62 1    
     3    1   63 1    
     4    1   64 1    
     5    2    3 2    
     6    2    4 am   BACKBONE|DICT|INTERRES
     7    4    5 1    
     8    4   65 1    
     9    5    6 1    
    10    5   25 1    
    11    5   66 1    
    12    6    7 1    
    13    6   67 1    
    14    6   68 1    
    15    7    8 1    
    16    8    9 1    
    17    8   69 1    
    18    8   70 1    
    19    9   10 ar   
    20    9   14 ar   
    21   10   11 ar   
    22   10   71 1    
    23   11   12 ar   
    24   11   61 1    
    25   12   13 ar   
    26   12   72 1    
    27   13   14 ar   
    28   13   15 1    
    29   14   73 1    
    30   15   16 1    
    31   15   74 1    
    32   15   75 1    
    33   16   17 1    
    34   17   18 1    
    35   17   76 1    
    36   17   77 1    
    37   18   19 1    
    38   18   27 1    
    39   18   78 1    
    40   19   20 am   BACKBONE|DICT|INTERRES
    41   19   79 1    
    42   20   21 2    
    43   20   22 1    
    44   22   23 1    
    45   22   24 1    
    46   22   80 1    
    47   23   81 1    
    48   23   82 1    
    49   23   83 1    
    50   24   25 am   BACKBONE|DICT|INTERRES
    51   24   84 1    
    52   25   26 2    
    53   27   28 2    
    54   27   29 am   BACKBONE|DICT|INTERRES
    55   29   30 1    
    56   29   85 1    
    57   30   31 1    
    58   30   32 1    
    59   30   86 1    
    60   31   87 1    
    61   31   88 1    
    62   31   89 1    
    63   32   33 2    
    64   32   34 am   BACKBONE|DICT|INTERRES
    65   34   35 1    
    66   34   90 1    
    67   35   36 1    
    68   35   37 1    
    69   35   91 1    
    70   36   92 1    
    71   36   93 1    
    72   36   94 1    
    73   37   38 2    
    74   37   39 am   BACKBONE|DICT|INTERRES
    75   39   40 1    
    76   39   95 1    
    77   40   41 1    
    78   40   42 1    
    79   40   96 1    
    80   41   97 1    
    81   41   98 1    
    82   41   99 1    
    83   42   43 2    
    84   42   44 am   BACKBONE|DICT|INTERRES
    85   44   45 1    
    86   44  100 1    
    87   45   46 1    
    88   45   47 1    
    89   45  101 1    
    90   46  102 1    
    91   46  103 1    
    92   46  104 1    
    93   47   48 2    
    94   47   49 am   BACKBONE|DICT|INTERRES
    95   49   50 1    
    96   49  105 1    
    97   50   51 1    
    98   50   52 1    
    99   50  106 1    
   100   51  107 1    
   101   51  108 1    
   102   51  109 1    
   103   52   53 2    
   104   52   54 am   BACKBONE|DICT|INTERRES
   105   54   55 1    
   106   54  110 1    
   107   55   56 1    
   108   55   59 1    
   109   55  111 1    
   110   56   57 am   BACKBONE|DICT|INTERRES
   111   56   58 2    
   112   57  112 1    
   113   57  113 1    
   114   59   60 1    
   115   59  114 1    
   116   59  115 1    
   117   60   61 1    
   118   61  116 1    
   119   61  117 1    
@<TRIPOS>SUBSTRUCTURE
     1 UNK         1 GROUP             0       ****    0 ROOT    
