@<TRIPOS>MOLECULE
3R8
117   119    1
SMALL
USER_CHARGES


@<TRIPOS>ATOM
      1 CA         16.3074  -28.0560  -40.9679 C.3       0 UNK        -0.2013 
      2 C          16.4448  -26.8091  -41.8268 C.2       0 UNK         0.4866 
      3 O          16.2192  -25.7017  -41.3371 O.2       0 UNK        -0.5176 
      4 N          16.7998  -26.9878  -43.1051 N.am      1 UNK        -0.4884 
      5 CA         16.9988  -25.9111  -44.0848 C.3       1 UNK         0.0853 
      6 C6         16.5216  -26.3174  -45.5087 C.3       10 UNK        -0.0849 
      7 S7         14.8316  -27.0169  -45.5084 S.3       10 UNK        -0.2776 
      8 C8         15.0219  -28.5581  -46.4679 C.3       10 UNK         0.0316 
      9 C9         16.1182  -29.4773  -45.9390 C.ar      10 UNK        -0.0863 
     10 C10        16.0100  -30.0692  -44.6748 C.ar      10 UNK        -0.1009 
     11 C11        17.0098  -30.9293  -44.2043 C.ar      10 UNK        -0.0712 
     12 C12        18.1035  -31.2156  -45.0245 C.ar      10 UNK        -0.0894 
     13 C13        18.2447  -30.5995  -46.2694 C.ar      10 UNK        -0.0745 
     14 C14        17.2430  -29.7416  -46.7281 C.ar      10 UNK        -0.0972 
     15 C15        19.4992  -30.8392  -47.0976 C.3       10 UNK         0.0209 
     16 S16        20.7056  -29.4819  -46.9169 S.3       10 UNK        -0.2568 
     17 C17        21.0688  -29.5314  -45.1260 C.3       10 UNK        -0.0983 
     18 CA         21.7203  -28.2414  -44.5745 C.3       3 UNK         0.0876 
     19 N          21.0128  -27.0370  -45.0125 N.am      3 UNK        -0.4424 
     20 C          21.4544  -25.7770  -44.9086 C.2       2 UNK         0.4918 
     21 O          22.5573  -25.4727  -44.4539 O.2       2 UNK        -0.4875 
     22 CA         20.4656  -24.6689  -45.3283 C.3       2 UNK         0.0481 
     23 CB         20.7358  -24.2350  -46.7772 C.3       2 UNK        -0.1831 
     24 N          19.0494  -25.0472  -45.1872 N.am      2 UNK        -0.4498 
     25 C          18.4721  -25.4392  -44.0389 C.2       1 UNK         0.5027 
     26 O          19.0922  -25.4745  -42.9741 O.2       1 UNK        -0.4969 
     27 C          21.8527  -28.3481  -43.0373 C.2       3 UNK         0.5005 
     28 O          22.5998  -29.2077  -42.5699 O.2       3 UNK        -0.5279 
     29 N          21.1613  -27.4996  -42.2557 N.am      4 UNK        -0.4463 
     30 CA         21.2936  -27.4420  -40.7945 C.3       4 UNK         0.0283 
     31 CB         20.2957  -26.4340  -40.2074 C.3       4 UNK        -0.1875 
     32 C          22.7253  -27.1105  -40.3348 C.2       4 UNK         0.4949 
     33 O          23.1824  -27.6533  -39.3290 O.2       4 UNK        -0.5039 
     34 N          23.4238  -26.2764  -41.1187 N.am      5 UNK        -0.4663 
     35 CA         24.8379  -25.9435  -40.9359 C.3       5 UNK         0.0242 
     36 CB         25.1826  -24.7313  -41.8156 C.3       5 UNK        -0.1982 
     37 C          25.7882  -27.1163  -41.2419 C.2       5 UNK         0.5017 
     38 O          26.9065  -27.1290  -40.7268 O.2       5 UNK        -0.5012 
     39 N          25.3351  -28.0911  -42.0430 N.am      6 UNK        -0.4439 
     40 CA         26.0648  -29.3104  -42.3877 C.3       6 UNK         0.0297 
     41 CB         25.7262  -29.7158  -43.8354 C.3       6 UNK        -0.2006 
     42 C          25.7464  -30.4155  -41.3662 C.2       6 UNK         0.4892 
     43 O          25.2269  -31.4696  -41.7347 O.2       6 UNK        -0.5089 
     44 N          26.0568  -30.1333  -40.0924 N.am      7 UNK        -0.4243 
     45 CA         25.9086  -31.0096  -38.9247 C.3       7 UNK         0.0196 
     46 CB         26.9481  -32.1501  -38.9818 C.3       7 UNK        -0.2007 
     47 C          24.4685  -31.5211  -38.7137 C.2       7 UNK         0.5020 
     48 O          24.2773  -32.7089  -38.4488 O.2       7 UNK        -0.5147 
     49 N          23.4904  -30.6075  -38.8190 N.am      8 UNK        -0.4734 
     50 CA         22.0512  -30.8310  -38.6358 C.3       8 UNK         0.0238 
     51 CB         21.7363  -31.2101  -37.1715 C.3       8 UNK        -0.1912 
     52 C          21.4690  -31.8298  -39.6548 C.2       8 UNK         0.5038 
     53 O          21.0265  -32.9119  -39.2626 O.2       8 UNK        -0.5046 
     54 N          21.4717  -31.4409  -40.9387 N.am      9 UNK        -0.4200 
     55 CA         20.9331  -32.2198  -42.0695 C.3       9 UNK         0.0839 
     56 C          21.8007  -33.4603  -42.4429 C.2       9 UNK         0.5513 
     57 N          23.1069  -33.4486  -42.2106 N.am      9 UNK        -0.7519 
     58 O          21.2944  -34.4458  -42.9740 O.2       9 UNK        -0.4960 
     59 C59        19.4154  -32.5618  -41.9318 C.3       10 UNK        -0.0876 
     60 S60        18.3342  -31.0972  -41.7523 S.3       10 UNK        -0.2414 
     61 C61        16.9133  -31.5457  -42.8135 C.3       10 UNK         0.0169 
     62 H62        17.2347  -28.2497  -40.4295 H         1 UNK         0.0903 
     63 H63        15.5075  -27.9307  -40.2386 H         1 UNK         0.0903 
     64 H64        16.0715  -28.9293  -41.5735 H         1 UNK         0.0903 
     65 H65        16.9727  -27.9223  -43.4478 H         1 UNK         0.3096 
     66 H66        16.4012  -25.0482  -43.7823 H         1 UNK         0.1121 
     67 H67        17.2149  -27.0290  -45.9578 H         1 UNK         0.0849 
     68 H68        16.5078  -25.4487  -46.1691 H         1 UNK         0.0849 
     69 H69        14.0734  -29.0969  -46.4570 H         1 UNK         0.0865 
     70 H70        15.2067  -28.2970  -47.5111 H         1 UNK         0.0865 
     71 H71        15.1471  -29.8533  -44.0592 H         1 UNK         0.1346 
     72 H72        18.8797  -31.8794  -44.6742 H         1 UNK         0.1412 
     73 H73        17.3487  -29.2720  -47.6968 H         1 UNK         0.1426 
     74 H74        19.9736  -31.7804  -46.8151 H         1 UNK         0.0716 
     75 H75        19.2304  -30.9368  -48.1503 H         1 UNK         0.0716 
     76 H76        21.7122  -30.3935  -44.9397 H         1 UNK         0.0695 
     77 H77        20.1457  -29.7112  -44.5789 H         1 UNK         0.0695 
     78 H78        22.7359  -28.1815  -44.9719 H         1 UNK         0.0983 
     79 H79        20.1051  -27.1921  -45.4244 H         1 UNK         0.3095 
     80 H80        20.6427  -23.8113  -44.6762 H         1 UNK         0.0454 
     81 H81        20.1114  -23.3883  -47.0626 H         1 UNK         0.0851 
     82 H82        20.5504  -25.0448  -47.4840 H         1 UNK         0.0851 
     83 H83        21.7741  -23.9246  -46.9039 H         1 UNK         0.0851 
     84 H84        18.4935  -25.0251  -46.0299 H         1 UNK         0.2976 
     85 H85        20.5350  -26.8210  -42.6798 H         1 UNK         0.3116 
     86 H86        21.0333  -28.4287  -40.4139 H         1 UNK         0.0646 
     87 H87        19.2695  -26.6952  -40.4638 H         1 UNK         0.0847 
     88 H88        20.3602  -26.4086  -39.1187 H         1 UNK         0.0847 
     89 H89        20.4825  -25.4222  -40.5693 H         1 UNK         0.0847 
     90 H90        22.9692  -25.8918  -41.9366 H         1 UNK         0.3040 
     91 H91        24.9903  -25.6666  -39.8902 H         1 UNK         0.1015 
     92 H92        25.0282  -24.9444  -42.8745 H         1 UNK         0.0786 
     93 H93        26.2265  -24.4402  -41.6896 H         1 UNK         0.0786 
     94 H94        24.5729  -23.8658  -41.5555 H         1 UNK         0.0786 
     95 H95        24.3624  -28.0722  -42.3246 H         1 UNK         0.3172 
     96 H96        27.1397  -29.1228  -42.3436 H         1 UNK         0.0595 
     97 H97        24.6742  -29.9754  -43.9537 H         1 UNK         0.0839 
     98 H98        26.3078  -30.5873  -44.1385 H         1 UNK         0.0839 
     99 H99        25.9554  -28.9138  -44.5370 H         1 UNK         0.0839 
    100 H100       26.4553  -29.2200  -39.9104 H         1 UNK         0.2998 
    101 H101       26.1407  -30.3983  -38.0512 H         1 UNK         0.0822 
    102 H102       26.9295  -32.7442  -38.0672 H         1 UNK         0.0787 
    103 H103       26.7573  -32.8281  -39.8145 H         1 UNK         0.0787 
    104 H104       27.9600  -31.7602  -39.0919 H         1 UNK         0.0787 
    105 H105       23.7456  -29.6525  -39.0512 H         1 UNK         0.3055 
    106 H106       21.5595  -29.8769  -38.8169 H         1 UNK         0.1106 
    107 H107       22.1083  -30.4559  -36.4783 H         1 UNK         0.0828 
    108 H108       20.6598  -31.2903  -37.0152 H         1 UNK         0.0828 
    109 H109       22.1742  -32.1684  -36.8910 H         1 UNK         0.0828 
    110 H110       21.9215  -30.5707  -41.2021 H         1 UNK         0.2931 
    111 H111       21.0227  -31.5621  -42.9330 H         1 UNK         0.0412 
    112 H112       23.6522  -34.2569  -42.4626 H         1 UNK         0.3472 
    113 H113       23.5795  -32.6305  -41.8405 H         1 UNK         0.3472 
    114 H114       19.2416  -33.2218  -41.0814 H         1 UNK         0.0970 
    115 H115       19.0851  -33.1317  -42.8004 H         1 UNK         0.0970 
    116 H116       16.0014  -31.2135  -42.3160 H         1 UNK         0.0612 
    117 H117       16.8256  -32.6295  -42.8983 H         1 UNK         0.0612 
@<TRIPOS>BOND
     1    1    2 1    
     2    1   62 1    
     3    1   63 1    
     4    1   64 1    
     5    2    3 2    
     6    2    4 am   BACKBONE|DICT|INTERRES
     7    4    5 1    
     8    4   65 1    
     9    5    6 1    
    10    5   25 1    
    11    5   66 1    
    12    6    7 1    
    13    6   67 1    
    14    6   68 1    
    15    7    8 1    
    16    8    9 1    
    17    8   69 1    
    18    8   70 1    
    19    9   10 ar   
    20    9   14 ar   
    21   10   11 ar   
    22   10   71 1    
    23   11   12 ar   
    24   11   61 1    
    25   12   13 ar   
    26   12   72 1    
    27   13   14 ar   
    28   13   15 1    
    29   14   73 1    
    30   15   16 1    
    31   15   74 1    
    32   15   75 1    
    33   16   17 1    
    34   17   18 1    
    35   17   76 1    
    36   17   77 1    
    37   18   19 1    
    38   18   27 1    
    39   18   78 1    
    40   19   20 am   BACKBONE|DICT|INTERRES
    41   19   79 1    
    42   20   21 2    
    43   20   22 1    
    44   22   23 1    
    45   22   24 1    
    46   22   80 1    
    47   23   81 1    
    48   23   82 1    
    49   23   83 1    
    50   24   25 am   BACKBONE|DICT|INTERRES
    51   24   84 1    
    52   25   26 2    
    53   27   28 2    
    54   27   29 am   BACKBONE|DICT|INTERRES
    55   29   30 1    
    56   29   85 1    
    57   30   31 1    
    58   30   32 1    
    59   30   86 1    
    60   31   87 1    
    61   31   88 1    
    62   31   89 1    
    63   32   33 2    
    64   32   34 am   BACKBONE|DICT|INTERRES
    65   34   35 1    
    66   34   90 1    
    67   35   36 1    
    68   35   37 1    
    69   35   91 1    
    70   36   92 1    
    71   36   93 1    
    72   36   94 1    
    73   37   38 2    
    74   37   39 am   BACKBONE|DICT|INTERRES
    75   39   40 1    
    76   39   95 1    
    77   40   41 1    
    78   40   42 1    
    79   40   96 1    
    80   41   97 1    
    81   41   98 1    
    82   41   99 1    
    83   42   43 2    
    84   42   44 am   BACKBONE|DICT|INTERRES
    85   44   45 1    
    86   44  100 1    
    87   45   46 1    
    88   45   47 1    
    89   45  101 1    
    90   46  102 1    
    91   46  103 1    
    92   46  104 1    
    93   47   48 2    
    94   47   49 am   BACKBONE|DICT|INTERRES
    95   49   50 1    
    96   49  105 1    
    97   50   51 1    
    98   50   52 1    
    99   50  106 1    
   100   51  107 1    
   101   51  108 1    
   102   51  109 1    
   103   52   53 2    
   104   52   54 am   BACKBONE|DICT|INTERRES
   105   54   55 1    
   106   54  110 1    
   107   55   56 1    
   108   55   59 1    
   109   55  111 1    
   110   56   57 am   BACKBONE|DICT|INTERRES
   111   56   58 2    
   112   57  112 1    
   113   57  113 1    
   114   59   60 1    
   115   59  114 1    
   116   59  115 1    
   117   60   61 1    
   118   61  116 1    
   119   61  117 1    
@<TRIPOS>SUBSTRUCTURE
     1 UNK         1 GROUP             0       ****    0 ROOT    
