@<TRIPOS>MOLECULE
3R8
117   119    1
SMALL
USER_CHARGES


@<TRIPOS>ATOM
      1 CA         15.8814  -23.1437  -44.7455 C.3       0 UNK        -0.2013 
      2 C          16.5337  -24.4910  -44.4734 C.2       0 UNK         0.4866 
      3 O          17.7611  -24.5757  -44.4191 O.2       0 UNK        -0.5176 
      4 N          15.7228  -25.5445  -44.3109 N.am      1 UNK        -0.4884 
      5 CA         16.1768  -26.9041  -43.9947 C.3       1 UNK         0.0853 
      6 C6         15.1058  -27.9656  -44.3444 C.3       10 UNK        -0.0849 
      7 S7         15.0306  -28.1925  -46.1529 S.3       10 UNK        -0.2776 
      8 C8         15.9798  -29.7343  -46.3924 C.3       10 UNK         0.0316 
      9 C9         17.3476  -29.7164  -45.7148 C.ar      10 UNK        -0.0863 
     10 C10        17.5976  -30.5595  -44.6292 C.ar      10 UNK        -0.1009 
     11 C11        18.8541  -30.5838  -44.0199 C.ar      10 UNK        -0.0712 
     12 C12        19.8652  -29.7418  -44.4941 C.ar      10 UNK        -0.0894 
     13 C13        19.6323  -28.8851  -45.5793 C.ar      10 UNK        -0.0745 
     14 C14        18.3707  -28.8875  -46.1872 C.ar      10 UNK        -0.0972 
     15 C15        20.7398  -28.0165  -46.1798 C.3       10 UNK         0.0209 
     16 S16        22.0022  -27.4206  -45.0004 S.3       10 UNK        -0.2568 
     17 C17        21.2457  -25.9045  -44.3059 C.3       10 UNK        -0.0983 
     18 CA         21.0167  -25.9315  -42.7715 C.3       3 UNK         0.0876 
     19 N          20.0658  -26.9764  -42.4039 N.am      3 UNK        -0.4424 
     20 C          19.4828  -27.1317  -41.2072 C.2       2 UNK         0.4918 
     21 O          19.7139  -26.4256  -40.2241 O.2       2 UNK        -0.4875 
     22 CA         18.3947  -28.2218  -41.1556 C.3       2 UNK         0.0481 
     23 CB         17.6498  -28.2976  -39.8065 C.3       2 UNK        -0.1831 
     24 N          17.4770  -28.0701  -42.2939 N.am      2 UNK        -0.4498 
     25 C          16.6709  -27.0243  -42.5399 C.2       1 UNK         0.5027 
     26 O          16.3538  -26.1753  -41.7027 O.2       1 UNK        -0.4969 
     27 C          22.3388  -26.0572  -41.9887 C.2       3 UNK         0.5005 
     28 O          22.8039  -27.1735  -41.7506 O.2       3 UNK        -0.5279 
     29 N          22.9605  -24.9182  -41.6524 N.am      4 UNK        -0.4463 
     30 CA         24.2163  -24.8399  -40.8902 C.3       4 UNK         0.0283 
     31 CB         24.5457  -23.3648  -40.6098 C.3       4 UNK        -0.1875 
     32 C          25.4203  -25.5407  -41.5517 C.2       4 UNK         0.4949 
     33 O          26.3735  -25.8881  -40.8547 O.2       4 UNK        -0.5039 
     34 N          25.3510  -25.7478  -42.8731 N.am      5 UNK        -0.4663 
     35 CA         26.3417  -26.4779  -43.6623 C.3       5 UNK         0.0242 
     36 CB         26.1172  -26.1618  -45.1503 C.3       5 UNK        -0.1982 
     37 C          26.3242  -28.0016  -43.4344 C.2       5 UNK         0.5017 
     38 O          27.3400  -28.6416  -43.7108 O.2       5 UNK        -0.5012 
     39 N          25.1949  -28.5594  -42.9703 N.am      6 UNK        -0.4439 
     40 CA         24.9973  -30.0066  -42.8157 C.3       6 UNK         0.0297 
     41 CB         24.1181  -30.5164  -43.9675 C.3       6 UNK        -0.2006 
     42 C          24.4134  -30.4167  -41.4528 C.2       6 UNK         0.4892 
     43 O          24.5006  -31.5977  -41.1110 O.2       6 UNK        -0.5089 
     44 N          23.8388  -29.4678  -40.6988 N.am      7 UNK        -0.4243 
     45 CA         23.2267  -29.6213  -39.3769 C.3       7 UNK         0.0196 
     46 CB         24.2982  -29.9350  -38.3074 C.3       7 UNK        -0.2007 
     47 C          22.0575  -30.6194  -39.4155 C.2       7 UNK         0.5020 
     48 O          20.9944  -30.2802  -39.9333 O.2       7 UNK        -0.5147 
     49 N          22.2740  -31.8297  -38.8862 N.am      8 UNK        -0.4734 
     50 CA         21.3091  -32.9314  -38.8998 C.3       8 UNK         0.0238 
     51 CB         21.7223  -33.9664  -37.8397 C.3       8 UNK        -0.1912 
     52 C          21.1500  -33.6040  -40.2773 C.2       8 UNK         0.5038 
     53 O          20.1749  -34.3331  -40.4556 O.2       8 UNK        -0.5046 
     54 N          22.1055  -33.3723  -41.1931 N.am      9 UNK        -0.4200 
     55 CA         22.1924  -33.8851  -42.5749 C.3       9 UNK         0.0839 
     56 C          22.1237  -35.4325  -42.7636 C.2       9 UNK         0.5513 
     57 N          22.3599  -36.2337  -41.7320 N.am      9 UNK        -0.7519 
     58 O          21.9063  -35.9201  -43.8701 O.2       9 UNK        -0.4960 
     59 C59        21.3517  -33.0671  -43.6021 C.3       10 UNK        -0.0876 
     60 S60        19.5383  -33.2010  -43.4373 S.3       10 UNK        -0.2414 
     61 C61        19.1058  -31.5322  -42.8562 C.3       10 UNK         0.0169 
     62 H62        16.1476  -22.4342  -43.9625 H         1 UNK         0.0903 
     63 H63        16.2274  -22.7454  -45.6988 H         1 UNK         0.0903 
     64 H64        14.7946  -23.2161  -44.7826 H         1 UNK         0.0903 
     65 H65        14.7222  -25.4140  -44.3511 H         1 UNK         0.3096 
     66 H66        17.0579  -27.0867  -44.6123 H         1 UNK         0.1121 
     67 H67        15.3108  -28.9297  -43.8760 H         1 UNK         0.0849 
     68 H68        14.1233  -27.6632  -43.9777 H         1 UNK         0.0849 
     69 H69        15.3818  -30.5722  -46.0302 H         1 UNK         0.0865 
     70 H70        16.1136  -29.9024  -47.4619 H         1 UNK         0.0865 
     71 H71        16.8190  -31.2178  -44.2669 H         1 UNK         0.1346 
     72 H72        20.8394  -29.7743  -44.0294 H         1 UNK         0.1412 
     73 H73        18.1823  -28.2489  -47.0400 H         1 UNK         0.1426 
     74 H74        20.3142  -27.1599  -46.7049 H         1 UNK         0.0716 
     75 H75        21.2492  -28.6119  -46.9383 H         1 UNK         0.0716 
     76 H76        20.2952  -25.7163  -44.8076 H         1 UNK         0.0695 
     77 H77        21.8829  -25.0601  -44.5746 H         1 UNK         0.0695 
     78 H78        20.5550  -24.9829  -42.4884 H         1 UNK         0.0983 
     79 H79        19.8393  -27.6243  -43.1425 H         1 UNK         0.3095 
     80 H80        18.9064  -29.1727  -41.2941 H         1 UNK         0.0454 
     81 H81        16.8751  -29.0637  -39.8236 H         1 UNK         0.0851 
     82 H82        17.1824  -27.3503  -39.5379 H         1 UNK         0.0851 
     83 H83        18.3417  -28.5535  -39.0032 H         1 UNK         0.0851 
     84 H84        17.6253  -28.7313  -43.0458 H         1 UNK         0.2976 
     85 H85        22.5325  -24.0372  -41.9010 H         1 UNK         0.3116 
     86 H86        24.0458  -25.3384  -39.9335 H         1 UNK         0.0646 
     87 H87        24.6997  -22.8028  -41.5319 H         1 UNK         0.0847 
     88 H88        25.4578  -23.2736  -40.0181 H         1 UNK         0.0847 
     89 H89        23.7493  -22.8781  -40.0465 H         1 UNK         0.0847 
     90 H90        24.5287  -25.4246  -43.3613 H         1 UNK         0.3040 
     91 H91        27.3345  -26.1193  -43.3806 H         1 UNK         0.1015 
     92 H92        25.1330  -26.4897  -45.4886 H         1 UNK         0.0786 
     93 H93        26.8591  -26.6641  -45.7729 H         1 UNK         0.0786 
     94 H94        26.2025  -25.0930  -45.3474 H         1 UNK         0.0786 
     95 H95        24.4057  -27.9588  -42.7535 H         1 UNK         0.3172 
     96 H96        25.9581  -30.5207  -42.8826 H         1 UNK         0.0595 
     97 H97        23.1216  -30.0791  -43.9308 H         1 UNK         0.0839 
     98 H98        24.0117  -31.6003  -43.9275 H         1 UNK         0.0839 
     99 H99        24.5532  -30.2726  -44.9368 H         1 UNK         0.0839 
    100 H100       23.6717  -28.5543  -41.1178 H         1 UNK         0.2998 
    101 H101       22.7888  -28.6526  -39.1297 H         1 UNK         0.0822 
    102 H102       25.0297  -29.1290  -38.2462 H         1 UNK         0.0787 
    103 H103       23.8491  -30.0332  -37.3181 H         1 UNK         0.0787 
    104 H104       24.8452  -30.8545  -38.5176 H         1 UNK         0.0787 
    105 H105       23.1893  -32.0254  -38.5062 H         1 UNK         0.3055 
    106 H106       20.3295  -32.5323  -38.6262 H         1 UNK         0.1106 
    107 H107       21.0071  -34.7892  -37.7966 H         1 UNK         0.0828 
    108 H108       22.7012  -34.3969  -38.0538 H         1 UNK         0.0828 
    109 H109       21.7599  -33.5224  -36.8448 H         1 UNK         0.0828 
    110 H110       22.8779  -32.7720  -40.9220 H         1 UNK         0.2931 
    111 H111       23.2295  -33.6732  -42.8370 H         1 UNK         0.0412 
    112 H112       22.3302  -37.2325  -41.8645 H         1 UNK         0.3472 
    113 H113       22.5407  -35.8492  -40.8189 H         1 UNK         0.3472 
    114 H114       21.6139  -33.3635  -44.6192 H         1 UNK         0.0970 
    115 H115       21.6353  -32.0181  -43.5363 H         1 UNK         0.0970 
    116 H116       19.8934  -31.1517  -42.2053 H         1 UNK         0.0612 
    117 H117       18.2097  -31.5999  -42.2375 H         1 UNK         0.0612 
@<TRIPOS>BOND
     1    1    2 1    
     2    1   62 1    
     3    1   63 1    
     4    1   64 1    
     5    2    3 2    
     6    2    4 am   BACKBONE|DICT|INTERRES
     7    4    5 1    
     8    4   65 1    
     9    5    6 1    
    10    5   25 1    
    11    5   66 1    
    12    6    7 1    
    13    6   67 1    
    14    6   68 1    
    15    7    8 1    
    16    8    9 1    
    17    8   69 1    
    18    8   70 1    
    19    9   10 ar   
    20    9   14 ar   
    21   10   11 ar   
    22   10   71 1    
    23   11   12 ar   
    24   11   61 1    
    25   12   13 ar   
    26   12   72 1    
    27   13   14 ar   
    28   13   15 1    
    29   14   73 1    
    30   15   16 1    
    31   15   74 1    
    32   15   75 1    
    33   16   17 1    
    34   17   18 1    
    35   17   76 1    
    36   17   77 1    
    37   18   19 1    
    38   18   27 1    
    39   18   78 1    
    40   19   20 am   BACKBONE|DICT|INTERRES
    41   19   79 1    
    42   20   21 2    
    43   20   22 1    
    44   22   23 1    
    45   22   24 1    
    46   22   80 1    
    47   23   81 1    
    48   23   82 1    
    49   23   83 1    
    50   24   25 am   BACKBONE|DICT|INTERRES
    51   24   84 1    
    52   25   26 2    
    53   27   28 2    
    54   27   29 am   BACKBONE|DICT|INTERRES
    55   29   30 1    
    56   29   85 1    
    57   30   31 1    
    58   30   32 1    
    59   30   86 1    
    60   31   87 1    
    61   31   88 1    
    62   31   89 1    
    63   32   33 2    
    64   32   34 am   BACKBONE|DICT|INTERRES
    65   34   35 1    
    66   34   90 1    
    67   35   36 1    
    68   35   37 1    
    69   35   91 1    
    70   36   92 1    
    71   36   93 1    
    72   36   94 1    
    73   37   38 2    
    74   37   39 am   BACKBONE|DICT|INTERRES
    75   39   40 1    
    76   39   95 1    
    77   40   41 1    
    78   40   42 1    
    79   40   96 1    
    80   41   97 1    
    81   41   98 1    
    82   41   99 1    
    83   42   43 2    
    84   42   44 am   BACKBONE|DICT|INTERRES
    85   44   45 1    
    86   44  100 1    
    87   45   46 1    
    88   45   47 1    
    89   45  101 1    
    90   46  102 1    
    91   46  103 1    
    92   46  104 1    
    93   47   48 2    
    94   47   49 am   BACKBONE|DICT|INTERRES
    95   49   50 1    
    96   49  105 1    
    97   50   51 1    
    98   50   52 1    
    99   50  106 1    
   100   51  107 1    
   101   51  108 1    
   102   51  109 1    
   103   52   53 2    
   104   52   54 am   BACKBONE|DICT|INTERRES
   105   54   55 1    
   106   54  110 1    
   107   55   56 1    
   108   55   59 1    
   109   55  111 1    
   110   56   57 am   BACKBONE|DICT|INTERRES
   111   56   58 2    
   112   57  112 1    
   113   57  113 1    
   114   59   60 1    
   115   59  114 1    
   116   59  115 1    
   117   60   61 1    
   118   61  116 1    
   119   61  117 1    
@<TRIPOS>SUBSTRUCTURE
     1 UNK         1 GROUP             0       ****    0 ROOT    
