@<TRIPOS>MOLECULE
3R8
117   119    1
SMALL
USER_CHARGES


@<TRIPOS>ATOM
      1 CA         15.8466  -27.4159  -40.6181 C.3       0 UNK        -0.2013 
      2 C          16.3253  -26.3322  -41.5724 C.2       0 UNK         0.4866 
      3 O          16.5691  -25.2045  -41.1435 O.2       0 UNK        -0.5176 
      4 N          16.4649  -26.6641  -42.8627 N.am      1 UNK        -0.4884 
      5 CA         16.8734  -25.7373  -43.9303 C.3       1 UNK         0.0853 
      6 C6         16.2171  -26.0655  -45.2996 C.3       10 UNK        -0.0849 
      7 S7         14.4224  -26.4312  -45.1610 S.3       10 UNK        -0.2776 
      8 C8         14.2139  -28.1504  -45.7603 C.3       10 UNK         0.0316 
      9 C9         15.4177  -29.0470  -45.5025 C.ar      10 UNK        -0.0863 
     10 C10        15.7047  -29.5166  -44.2160 C.ar      10 UNK        -0.1009 
     11 C11        16.8653  -30.2630  -43.9844 C.ar      10 UNK        -0.0712 
     12 C12        17.7079  -30.5805  -45.0518 C.ar      10 UNK        -0.0894 
     13 C13        17.4271  -30.1211  -46.3393 C.ar      10 UNK        -0.0745 
     14 C14        16.2745  -29.3657  -46.5608 C.ar      10 UNK        -0.0972 
     15 C15        18.3835  -30.4000  -47.4863 C.3       10 UNK         0.0209 
     16 S16        19.6849  -29.1289  -47.5728 S.3       10 UNK        -0.2568 
     17 C17        20.9655  -29.8574  -46.5010 C.3       10 UNK        -0.0983 
     18 CA         21.8068  -28.7951  -45.7512 C.3       3 UNK         0.0876 
     19 N          21.0130  -28.0525  -44.7654 N.am      3 UNK        -0.4424 
     20 C          21.3823  -26.8735  -44.2505 C.2       2 UNK         0.4918 
     21 O          22.3247  -26.2062  -44.6818 O.2       2 UNK        -0.4875 
     22 CA         20.5915  -26.3887  -43.0217 C.3       2 UNK         0.0481 
     23 CB         21.0730  -25.0228  -42.4870 C.3       2 UNK        -0.1831 
     24 N          19.1407  -26.3895  -43.2177 N.am      2 UNK        -0.4498 
     25 C          18.4121  -25.6266  -44.0484 C.2       1 UNK         0.5027 
     26 O          18.8974  -24.8432  -44.8655 O.2       1 UNK        -0.4969 
     27 C          23.0107  -29.4824  -45.0700 C.2       3 UNK         0.5005 
     28 O          22.9975  -29.6949  -43.8532 O.2       3 UNK        -0.5279 
     29 N          23.9995  -29.8728  -45.8901 N.am      4 UNK        -0.4463 
     30 CA         25.1477  -30.7267  -45.5612 C.3       4 UNK         0.0283 
     31 CB         24.6798  -32.1915  -45.3966 C.3       4 UNK        -0.1875 
     32 C          25.9650  -30.2008  -44.3659 C.2       4 UNK         0.4949 
     33 O          26.7049  -29.2294  -44.5223 O.2       4 UNK        -0.5039 
     34 N          25.8092  -30.8431  -43.2007 N.am      5 UNK        -0.4663 
     35 CA         26.4500  -30.4832  -41.9338 C.3       5 UNK         0.0242 
     36 CB         26.2850  -31.6553  -40.9535 C.3       5 UNK        -0.1982 
     37 C          25.9150  -29.1835  -41.3048 C.2       5 UNK         0.5017 
     38 O          26.5507  -28.6688  -40.3838 O.2       5 UNK        -0.5012 
     39 N          24.7615  -28.6911  -41.7820 N.am      6 UNK        -0.4439 
     40 CA         24.0506  -27.4716  -41.3838 C.3       6 UNK         0.0297 
     41 CB         24.9082  -26.2065  -41.5863 C.3       6 UNK        -0.2006 
     42 C          23.4444  -27.5357  -39.9744 C.2       6 UNK         0.4892 
     43 O          22.2283  -27.4097  -39.8417 O.2       6 UNK        -0.5089 
     44 N          24.2864  -27.7550  -38.9569 N.am      7 UNK        -0.4243 
     45 CA         23.8930  -27.8757  -37.5504 C.3       7 UNK         0.0196 
     46 CB         25.1460  -27.8359  -36.6610 C.3       7 UNK        -0.2007 
     47 C          23.0686  -29.1435  -37.2766 C.2       7 UNK         0.5020 
     48 O          22.0670  -29.0764  -36.5645 O.2       7 UNK        -0.5147 
     49 N          23.4925  -30.2682  -37.8692 N.am      8 UNK        -0.4734 
     50 CA         22.7802  -31.5501  -37.8137 C.3       8 UNK         0.0238 
     51 CB         23.8051  -32.6968  -37.8392 C.3       8 UNK        -0.1912 
     52 C          21.7503  -31.7105  -38.9482 C.2       8 UNK         0.5038 
     53 O          20.9662  -32.6588  -38.9100 O.2       8 UNK        -0.5046 
     54 N          21.7743  -30.8006  -39.9333 N.am      9 UNK        -0.4200 
     55 CA         20.9034  -30.7673  -41.1208 C.3       9 UNK         0.0839 
     56 C          21.1509  -31.9125  -42.1543 C.2       9 UNK         0.5513 
     57 N          22.2177  -32.6953  -42.0345 N.am      9 UNK        -0.7519 
     58 O          20.3819  -32.0862  -43.0950 O.2       9 UNK        -0.4960 
     59 C59        19.4040  -30.5838  -40.7347 C.3       10 UNK        -0.0876 
     60 S60        18.4970  -29.5308  -41.9140 S.3       10 UNK        -0.2414 
     61 C61        17.2620  -30.6895  -42.5826 C.3       10 UNK         0.0169 
     62 H62        14.9711  -27.0722  -40.0680 H         1 UNK         0.0903 
     63 H63        15.5770  -28.3322  -41.1417 H         1 UNK         0.0903 
     64 H64        16.6300  -27.6544  -39.8991 H         1 UNK         0.0903 
     65 H65        16.2569  -27.6039  -43.1712 H         1 UNK         0.3096 
     66 H66        16.5277  -24.7385  -43.6533 H         1 UNK         0.1121 
     67 H67        16.3234  -25.2086  -45.9672 H         1 UNK         0.0849 
     68 H68        16.7502  -26.8721  -45.7985 H         1 UNK         0.0849 
     69 H69        13.9903  -28.1171  -46.8278 H         1 UNK         0.0865 
     70 H70        13.3318  -28.5838  -45.2868 H         1 UNK         0.0865 
     71 H71        15.0437  -29.2716  -43.3959 H         1 UNK         0.1346 
     72 H72        18.6008  -31.1596  -44.8647 H         1 UNK         0.1412 
     73 H73        16.0659  -28.9917  -47.5542 H         1 UNK         0.1426 
     74 H74        17.8382  -30.4071  -48.4313 H         1 UNK         0.0716 
     75 H75        18.8268  -31.3920  -47.3858 H         1 UNK         0.0716 
     76 H76        21.5954  -30.4697  -47.1492 H         1 UNK         0.0695 
     77 H77        20.5162  -30.5485  -45.7881 H         1 UNK         0.0695 
     78 H78        22.2000  -28.0855  -46.4830 H         1 UNK         0.0983 
     79 H79        20.2414  -28.5500  -44.3464 H         1 UNK         0.3095 
     80 H80        20.7793  -27.1237  -42.2379 H         1 UNK         0.0454 
     81 H81        20.5347  -24.7401  -41.5825 H         1 UNK         0.0851 
     82 H82        20.9417  -24.2273  -43.2208 H         1 UNK         0.0851 
     83 H83        22.1320  -25.0543  -42.2335 H         1 UNK         0.0851 
     84 H84        18.6237  -27.0160  -42.6150 H         1 UNK         0.2976 
     85 H85        23.9361  -29.6065  -46.8633 H         1 UNK         0.3116 
     86 H86        25.8170  -30.6936  -46.4224 H         1 UNK         0.0646 
     87 H87        25.5151  -32.8499  -45.1536 H         1 UNK         0.0847 
     88 H88        24.2421  -32.5655  -46.3222 H         1 UNK         0.0847 
     89 H89        23.9270  -32.3025  -44.6151 H         1 UNK         0.0847 
     90 H90        25.1535  -31.6106  -43.1739 H         1 UNK         0.3040 
     91 H91        27.5157  -30.3326  -42.1199 H         1 UNK         0.1015 
     92 H92        26.7590  -32.5601  -41.3346 H         1 UNK         0.0786 
     93 H93        25.2337  -31.8779  -40.7737 H         1 UNK         0.0786 
     94 H94        26.7456  -31.4336  -39.9894 H         1 UNK         0.0786 
     95 H95        24.3019  -29.2149  -42.5257 H         1 UNK         0.3172 
     96 H96        23.2131  -27.4012  -42.0757 H         1 UNK         0.0595 
     97 H97        25.8053  -26.2078  -40.9671 H         1 UNK         0.0839 
     98 H98        24.3465  -25.3078  -41.3301 H         1 UNK         0.0839 
     99 H99        25.2201  -26.1074  -42.6262 H         1 UNK         0.0839 
    100 H100       25.2664  -27.8975  -39.1877 H         1 UNK         0.2998 
    101 H101       23.2690  -27.0146  -37.3010 H         1 UNK         0.0822 
    102 H102       25.8317  -28.6535  -36.8878 H         1 UNK         0.0787 
    103 H103       25.6897  -26.8992  -36.7858 H         1 UNK         0.0787 
    104 H104       24.8787  -27.9162  -35.6063 H         1 UNK         0.0787 
    105 H105       24.3431  -30.2347  -38.4124 H         1 UNK         0.3055 
    106 H106       22.2276  -31.6175  -36.8734 H         1 UNK         0.1106 
    107 H107       23.3095  -33.6649  -37.7526 H         1 UNK         0.0828 
    108 H108       24.3826  -32.7111  -38.7623 H         1 UNK         0.0828 
    109 H109       24.5051  -32.6205  -37.0070 H         1 UNK         0.0828 
    110 H110       22.4341  -30.0419  -39.8579 H         1 UNK         0.2931 
    111 H111       21.2240  -29.8623  -41.6389 H         1 UNK         0.0412 
    112 H112       22.8462  -32.5874  -41.2575 H         1 UNK         0.3472 
    113 H113       22.3587  -33.4320  -42.7065 H         1 UNK         0.3472 
    114 H114       18.9086  -31.5475  -40.6040 H         1 UNK         0.0970 
    115 H115       19.3240  -30.0848  -39.7677 H         1 UNK         0.0970 
    116 H116       17.6713  -31.7002  -42.6163 H         1 UNK         0.0612 
    117 H117       16.3952  -30.7234  -41.9212 H         1 UNK         0.0612 
@<TRIPOS>BOND
     1    1    2 1    
     2    1   62 1    
     3    1   63 1    
     4    1   64 1    
     5    2    3 2    
     6    2    4 am   BACKBONE|DICT|INTERRES
     7    4    5 1    
     8    4   65 1    
     9    5    6 1    
    10    5   25 1    
    11    5   66 1    
    12    6    7 1    
    13    6   67 1    
    14    6   68 1    
    15    7    8 1    
    16    8    9 1    
    17    8   69 1    
    18    8   70 1    
    19    9   10 ar   
    20    9   14 ar   
    21   10   11 ar   
    22   10   71 1    
    23   11   12 ar   
    24   11   61 1    
    25   12   13 ar   
    26   12   72 1    
    27   13   14 ar   
    28   13   15 1    
    29   14   73 1    
    30   15   16 1    
    31   15   74 1    
    32   15   75 1    
    33   16   17 1    
    34   17   18 1    
    35   17   76 1    
    36   17   77 1    
    37   18   19 1    
    38   18   27 1    
    39   18   78 1    
    40   19   20 am   BACKBONE|DICT|INTERRES
    41   19   79 1    
    42   20   21 2    
    43   20   22 1    
    44   22   23 1    
    45   22   24 1    
    46   22   80 1    
    47   23   81 1    
    48   23   82 1    
    49   23   83 1    
    50   24   25 am   BACKBONE|DICT|INTERRES
    51   24   84 1    
    52   25   26 2    
    53   27   28 2    
    54   27   29 am   BACKBONE|DICT|INTERRES
    55   29   30 1    
    56   29   85 1    
    57   30   31 1    
    58   30   32 1    
    59   30   86 1    
    60   31   87 1    
    61   31   88 1    
    62   31   89 1    
    63   32   33 2    
    64   32   34 am   BACKBONE|DICT|INTERRES
    65   34   35 1    
    66   34   90 1    
    67   35   36 1    
    68   35   37 1    
    69   35   91 1    
    70   36   92 1    
    71   36   93 1    
    72   36   94 1    
    73   37   38 2    
    74   37   39 am   BACKBONE|DICT|INTERRES
    75   39   40 1    
    76   39   95 1    
    77   40   41 1    
    78   40   42 1    
    79   40   96 1    
    80   41   97 1    
    81   41   98 1    
    82   41   99 1    
    83   42   43 2    
    84   42   44 am   BACKBONE|DICT|INTERRES
    85   44   45 1    
    86   44  100 1    
    87   45   46 1    
    88   45   47 1    
    89   45  101 1    
    90   46  102 1    
    91   46  103 1    
    92   46  104 1    
    93   47   48 2    
    94   47   49 am   BACKBONE|DICT|INTERRES
    95   49   50 1    
    96   49  105 1    
    97   50   51 1    
    98   50   52 1    
    99   50  106 1    
   100   51  107 1    
   101   51  108 1    
   102   51  109 1    
   103   52   53 2    
   104   52   54 am   BACKBONE|DICT|INTERRES
   105   54   55 1    
   106   54  110 1    
   107   55   56 1    
   108   55   59 1    
   109   55  111 1    
   110   56   57 am   BACKBONE|DICT|INTERRES
   111   56   58 2    
   112   57  112 1    
   113   57  113 1    
   114   59   60 1    
   115   59  114 1    
   116   59  115 1    
   117   60   61 1    
   118   61  116 1    
   119   61  117 1    
@<TRIPOS>SUBSTRUCTURE
     1 UNK         1 GROUP             0       ****    0 ROOT    
