@<TRIPOS>MOLECULE
3R8
117   119    1
SMALL
USER_CHARGES


@<TRIPOS>ATOM
      1 CA         14.8736  -25.3073  -45.8739 C.3       0 UNK        -0.2013 
      2 C          16.2415  -25.2955  -46.5399 C.2       0 UNK         0.4866 
      3 O          16.3554  -24.8943  -47.6986 O.2       0 UNK        -0.5176 
      4 N          17.2725  -25.7316  -45.8104 N.am      1 UNK        -0.4884 
      5 CA         18.6769  -25.7584  -46.2330 C.3       1 UNK         0.0853 
      6 C6         19.2091  -27.2032  -46.4920 C.3       10 UNK        -0.0849 
      7 S7         18.1174  -28.2331  -47.5384 S.3       10 UNK        -0.2776 
      8 C8         18.3419  -29.9087  -46.8297 C.3       10 UNK         0.0316 
      9 C9         18.0041  -30.0753  -45.3440 C.ar      10 UNK        -0.0863 
     10 C10        18.5048  -31.1910  -44.6656 C.ar      10 UNK        -0.1009 
     11 C11        18.2644  -31.3798  -43.2967 C.ar      10 UNK        -0.0712 
     12 C12        17.5356  -30.4098  -42.6005 C.ar      10 UNK        -0.0894 
     13 C13        17.0156  -29.2958  -43.2642 C.ar      10 UNK        -0.0745 
     14 C14        17.2235  -29.1545  -44.6377 C.ar      10 UNK        -0.0972 
     15 C15        16.2250  -28.2371  -42.5122 C.3       10 UNK         0.0209 
     16 S16        17.1312  -26.6583  -42.4357 S.3       10 UNK        -0.2568 
     17 C17        18.2425  -26.8906  -41.0041 C.3       10 UNK        -0.0983 
     18 CA         19.7363  -27.1018  -41.3715 C.3       3 UNK         0.0876 
     19 N          20.2315  -26.0899  -42.3118 N.am      3 UNK        -0.4424 
     20 C          21.4743  -25.9740  -42.8032 C.2       2 UNK         0.4918 
     21 O          22.4257  -26.6790  -42.4573 O.2       2 UNK        -0.4875 
     22 CA         21.6618  -24.9420  -43.9351 C.3       2 UNK         0.0481 
     23 CB         23.1212  -24.8526  -44.4162 C.3       2 UNK        -0.1831 
     24 N          20.8068  -25.2863  -45.0763 N.am      2 UNK        -0.4498 
     25 C          19.4937  -25.0281  -45.1441 C.2       1 UNK         0.5027 
     26 O          18.9230  -24.2965  -44.3288 O.2       1 UNK        -0.4969 
     27 C          20.5930  -27.1319  -40.0913 C.2       3 UNK         0.5005 
     28 O          20.7035  -26.1028  -39.4206 O.2       3 UNK        -0.5279 
     29 N          21.2215  -28.2803  -39.8063 N.am      4 UNK        -0.4463 
     30 CA         22.1544  -28.5658  -38.7036 C.3       4 UNK         0.0283 
     31 CB         21.4963  -28.3454  -37.3277 C.3       4 UNK        -0.1875 
     32 C          23.5127  -27.8417  -38.7926 C.2       4 UNK         0.4949 
     33 O          24.5125  -28.4033  -38.3458 O.2       4 UNK        -0.5039 
     34 N          23.5417  -26.6334  -39.3698 N.am      5 UNK        -0.4663 
     35 CA         24.7393  -25.8221  -39.6044 C.3       5 UNK         0.0242 
     36 CB         24.3172  -24.4273  -40.0936 C.3       5 UNK        -0.1982 
     37 C          25.7218  -26.4689  -40.5951 C.2       5 UNK         0.5017 
     38 O          26.9332  -26.3578  -40.4023 O.2       5 UNK        -0.5012 
     39 N          25.1820  -27.1452  -41.6155 N.am      6 UNK        -0.4439 
     40 CA         25.9356  -27.9492  -42.5782 C.3       6 UNK         0.0297 
     41 CB         26.3962  -27.0861  -43.7650 C.3       6 UNK        -0.2006 
     42 C          25.1229  -29.1620  -43.0480 C.2       6 UNK         0.4892 
     43 O          25.6881  -30.2486  -43.1788 O.2       6 UNK        -0.5089 
     44 N          23.8138  -28.9780  -43.2679 N.am      7 UNK        -0.4243 
     45 CA         22.8709  -30.0405  -43.6040 C.3       7 UNK         0.0196 
     46 CB         21.7354  -29.4534  -44.4614 C.3       7 UNK        -0.2007 
     47 C          22.3622  -30.6725  -42.3006 C.2       7 UNK         0.5020 
     48 O          21.3148  -30.2763  -41.7875 O.2       7 UNK        -0.5147 
     49 N          23.1578  -31.5924  -41.7443 N.am      8 UNK        -0.4734 
     50 CA         22.8597  -32.2868  -40.4882 C.3       8 UNK         0.0238 
     51 CB         24.1788  -32.6150  -39.7706 C.3       8 UNK        -0.1912 
     52 C          22.0154  -33.5566  -40.6810 C.2       8 UNK         0.5038 
     53 O          21.3558  -33.9774  -39.7304 O.2       8 UNK        -0.5046 
     54 N          22.0518  -34.1416  -41.8878 N.am      9 UNK        -0.4200 
     55 CA         21.3531  -35.3839  -42.2721 C.3       9 UNK         0.0839 
     56 C          21.8257  -36.6593  -41.5053 C.2       9 UNK         0.5513 
     57 N          23.0182  -36.6720  -40.9214 N.am      9 UNK        -0.7519 
     58 O          21.1220  -37.6656  -41.4639 O.2       9 UNK        -0.4960 
     59 C59        19.8038  -35.2257  -42.2934 C.3       10 UNK        -0.0876 
     60 S60        19.2457  -34.0298  -43.5523 S.3       10 UNK        -0.2414 
     61 C61        18.7935  -32.5910  -42.5237 C.3       10 UNK         0.0169 
     62 H62        14.9209  -25.6827  -44.8515 H         1 UNK         0.0903 
     63 H63        14.4606  -24.2993  -45.8460 H         1 UNK         0.0903 
     64 H64        14.1888  -25.9417  -46.4359 H         1 UNK         0.0903 
     65 H65        17.1292  -25.9555  -44.8335 H         1 UNK         0.3096 
     66 H66        18.7985  -25.1762  -47.1491 H         1 UNK         0.1121 
     67 H67        19.3776  -27.7175  -45.5447 H         1 UNK         0.0849 
     68 H68        20.1808  -27.1664  -46.9870 H         1 UNK         0.0849 
     69 H69        17.7282  -30.6064  -47.4008 H         1 UNK         0.0865 
     70 H70        19.3787  -30.2049  -46.9978 H         1 UNK         0.0865 
     71 H71        19.0982  -31.9066  -45.2161 H         1 UNK         0.1346 
     72 H72        17.3685  -30.5266  -41.5384 H         1 UNK         0.1412 
     73 H73        16.7990  -28.3008  -45.1435 H         1 UNK         0.1426 
     74 H74        15.9649  -28.5711  -41.5067 H         1 UNK         0.0716 
     75 H75        15.2793  -28.0707  -43.0300 H         1 UNK         0.0716 
     76 H76        17.8837  -27.7273  -40.4022 H         1 UNK         0.0695 
     77 H77        18.1290  -26.0036  -40.3773 H         1 UNK         0.0695 
     78 H78        19.8212  -28.0659  -41.8765 H         1 UNK         0.0983 
     79 H79        19.5268  -25.4597  -42.6768 H         1 UNK         0.3095 
     80 H80        21.3796  -23.9635  -43.5413 H         1 UNK         0.0454 
     81 H81        23.4519  -25.7879  -44.8679 H         1 UNK         0.0851 
     82 H82        23.7973  -24.6284  -43.5901 H         1 UNK         0.0851 
     83 H83        23.2451  -24.0626  -45.1569 H         1 UNK         0.0851 
     84 H84        21.2177  -25.8948  -45.7694 H         1 UNK         0.2976 
     85 H85        21.1289  -29.0392  -40.4834 H         1 UNK         0.3116 
     86 H86        22.3775  -29.6289  -38.7832 H         1 UNK         0.0646 
     87 H87        21.2753  -27.2941  -37.1419 H         1 UNK         0.0847 
     88 H88        22.1551  -28.6808  -36.5257 H         1 UNK         0.0847 
     89 H89        20.5660  -28.9060  -37.2379 H         1 UNK         0.0847 
     90 H90        22.6496  -26.2378  -39.6504 H         1 UNK         0.3040 
     91 H91        25.2599  -25.7118  -38.6506 H         1 UNK         0.1015 
     92 H92        23.7598  -24.4787  -41.0294 H         1 UNK         0.0786 
     93 H93        25.1882  -23.7933  -40.2659 H         1 UNK         0.0786 
     94 H94        23.6902  -23.9227  -39.3582 H         1 UNK         0.0786 
     95 H95        24.1695  -27.1492  -41.6950 H         1 UNK         0.3172 
     96 H96        26.8240  -28.3461  -42.0817 H         1 UNK         0.0595 
     97 H97        25.5535  -26.6528  -44.3015 H         1 UNK         0.0839 
     98 H98        26.9674  -27.6801  -44.4796 H         1 UNK         0.0839 
     99 H99        27.0392  -26.2697  -43.4360 H         1 UNK         0.0839 
    100 H100       23.3974  -28.0663  -43.0991 H         1 UNK         0.2998 
    101 H101       23.3712  -30.8097  -44.1966 H         1 UNK         0.0822 
    102 H102       22.1238  -28.9526  -45.3481 H         1 UNK         0.0787 
    103 H103       21.0723  -30.2457  -44.8043 H         1 UNK         0.0787 
    104 H104       21.1270  -28.7363  -43.9109 H         1 UNK         0.0787 
    105 H105       24.0430  -31.7977  -42.1902 H         1 UNK         0.3055 
    106 H106       22.2792  -31.6289  -39.8399 H         1 UNK         0.1106 
    107 H107       23.9931  -33.1230  -38.8231 H         1 UNK         0.0828 
    108 H108       24.8175  -33.2646  -40.3700 H         1 UNK         0.0828 
    109 H109       24.7402  -31.7080  -39.5440 H         1 UNK         0.0828 
    110 H110       22.6225  -33.7201  -42.6049 H         1 UNK         0.2931 
    111 H111       21.6636  -35.5738  -43.3003 H         1 UNK         0.0412 
    112 H112       23.3216  -37.5028  -40.4376 H         1 UNK         0.3472 
    113 H113       23.6168  -35.8630  -40.9596 H         1 UNK         0.3472 
    114 H114       19.3240  -36.1743  -42.5407 H         1 UNK         0.0970 
    115 H115       19.4224  -34.9506  -41.3091 H         1 UNK         0.0970 
    116 H116       18.0388  -32.9142  -41.8051 H         1 UNK         0.0612 
    117 H117       19.6620  -32.2833  -41.9441 H         1 UNK         0.0612 
@<TRIPOS>BOND
     1    1    2 1    
     2    1   62 1    
     3    1   63 1    
     4    1   64 1    
     5    2    3 2    
     6    2    4 am   BACKBONE|DICT|INTERRES
     7    4    5 1    
     8    4   65 1    
     9    5    6 1    
    10    5   25 1    
    11    5   66 1    
    12    6    7 1    
    13    6   67 1    
    14    6   68 1    
    15    7    8 1    
    16    8    9 1    
    17    8   69 1    
    18    8   70 1    
    19    9   10 ar   
    20    9   14 ar   
    21   10   11 ar   
    22   10   71 1    
    23   11   12 ar   
    24   11   61 1    
    25   12   13 ar   
    26   12   72 1    
    27   13   14 ar   
    28   13   15 1    
    29   14   73 1    
    30   15   16 1    
    31   15   74 1    
    32   15   75 1    
    33   16   17 1    
    34   17   18 1    
    35   17   76 1    
    36   17   77 1    
    37   18   19 1    
    38   18   27 1    
    39   18   78 1    
    40   19   20 am   BACKBONE|DICT|INTERRES
    41   19   79 1    
    42   20   21 2    
    43   20   22 1    
    44   22   23 1    
    45   22   24 1    
    46   22   80 1    
    47   23   81 1    
    48   23   82 1    
    49   23   83 1    
    50   24   25 am   BACKBONE|DICT|INTERRES
    51   24   84 1    
    52   25   26 2    
    53   27   28 2    
    54   27   29 am   BACKBONE|DICT|INTERRES
    55   29   30 1    
    56   29   85 1    
    57   30   31 1    
    58   30   32 1    
    59   30   86 1    
    60   31   87 1    
    61   31   88 1    
    62   31   89 1    
    63   32   33 2    
    64   32   34 am   BACKBONE|DICT|INTERRES
    65   34   35 1    
    66   34   90 1    
    67   35   36 1    
    68   35   37 1    
    69   35   91 1    
    70   36   92 1    
    71   36   93 1    
    72   36   94 1    
    73   37   38 2    
    74   37   39 am   BACKBONE|DICT|INTERRES
    75   39   40 1    
    76   39   95 1    
    77   40   41 1    
    78   40   42 1    
    79   40   96 1    
    80   41   97 1    
    81   41   98 1    
    82   41   99 1    
    83   42   43 2    
    84   42   44 am   BACKBONE|DICT|INTERRES
    85   44   45 1    
    86   44  100 1    
    87   45   46 1    
    88   45   47 1    
    89   45  101 1    
    90   46  102 1    
    91   46  103 1    
    92   46  104 1    
    93   47   48 2    
    94   47   49 am   BACKBONE|DICT|INTERRES
    95   49   50 1    
    96   49  105 1    
    97   50   51 1    
    98   50   52 1    
    99   50  106 1    
   100   51  107 1    
   101   51  108 1    
   102   51  109 1    
   103   52   53 2    
   104   52   54 am   BACKBONE|DICT|INTERRES
   105   54   55 1    
   106   54  110 1    
   107   55   56 1    
   108   55   59 1    
   109   55  111 1    
   110   56   57 am   BACKBONE|DICT|INTERRES
   111   56   58 2    
   112   57  112 1    
   113   57  113 1    
   114   59   60 1    
   115   59  114 1    
   116   59  115 1    
   117   60   61 1    
   118   61  116 1    
   119   61  117 1    
@<TRIPOS>SUBSTRUCTURE
     1 UNK         1 GROUP             0       ****    0 ROOT    
