@<TRIPOS>MOLECULE
3R8
117   119    1
SMALL
USER_CHARGES


@<TRIPOS>ATOM
      1 CA         18.5950  -25.7840  -39.8382 C.3       0 UNK        -0.2013 
      2 C          18.5725  -25.8039  -41.3593 C.2       0 UNK         0.4866 
      3 O          19.6246  -25.9472  -41.9813 O.2       0 UNK        -0.5176 
      4 N          17.3813  -25.6563  -41.9572 N.am      1 UNK        -0.4884 
      5 CA         17.1310  -25.6439  -43.4058 C.3       1 UNK         0.0853 
      6 C6         17.3444  -27.0340  -44.0682 C.3       10 UNK        -0.0849 
      7 S7         16.1559  -28.2858  -43.4774 S.3       10 UNK        -0.2776 
      8 C8         16.2639  -29.5281  -44.8093 C.3       10 UNK         0.0316 
      9 C9         17.5566  -30.3262  -44.7199 C.ar      10 UNK        -0.0863 
     10 C10        17.5765  -31.5666  -44.0778 C.ar      10 UNK        -0.1009 
     11 C11        18.7717  -32.2817  -43.9441 C.ar      10 UNK        -0.0712 
     12 C12        19.9562  -31.7427  -44.4607 C.ar      10 UNK        -0.0894 
     13 C13        19.9448  -30.5074  -45.1175 C.ar      10 UNK        -0.0745 
     14 C14        18.7387  -29.8187  -45.2641 C.ar      10 UNK        -0.0972 
     15 C15        21.2233  -29.9024  -45.6768 C.3       10 UNK         0.0209 
     16 S16        21.7138  -28.4065  -44.7551 S.3       10 UNK        -0.2568 
     17 C17        22.6000  -27.4900  -46.0663 C.3       10 UNK        -0.0983 
     18 CA         22.8490  -25.9863  -45.7684 C.3       3 UNK         0.0876 
     19 N          21.6256  -25.2548  -45.4437 N.am      3 UNK        -0.4424 
     20 C          20.8487  -24.6359  -46.3378 C.2       2 UNK         0.4918 
     21 O          21.0468  -24.6700  -47.5536 O.2       2 UNK        -0.4875 
     22 CA         19.6358  -23.8799  -45.7764 C.3       2 UNK         0.0481 
     23 CB         18.8111  -23.1627  -46.8662 C.3       2 UNK        -0.1831 
     24 N          18.7979  -24.8182  -45.0358 N.am      2 UNK        -0.4498 
     25 C          17.9120  -24.4932  -44.0855 C.2       1 UNK         0.5027 
     26 O          17.6885  -23.3329  -43.7318 O.2       1 UNK        -0.4969 
     27 C          23.8722  -25.7668  -44.6448 C.2       3 UNK         0.5005 
     28 O          23.4834  -25.5263  -43.4981 O.2       3 UNK        -0.5279 
     29 N          25.1643  -25.8841  -44.9860 N.am      4 UNK        -0.4463 
     30 CA         26.3036  -25.7054  -44.0750 C.3       4 UNK         0.0283 
     31 CB         27.6100  -25.7431  -44.8847 C.3       4 UNK        -0.1875 
     32 C          26.3586  -26.7245  -42.9215 C.2       4 UNK         0.4949 
     33 O          26.9856  -26.4458  -41.8996 O.2       4 UNK        -0.5039 
     34 N          25.6862  -27.8707  -43.0934 N.am      5 UNK        -0.4663 
     35 CA         25.4823  -28.8858  -42.0596 C.3       5 UNK         0.0242 
     36 CB         24.9652  -30.1734  -42.7236 C.3       5 UNK        -0.1982 
     37 C          24.5159  -28.4421  -40.9449 C.2       5 UNK         0.5017 
     38 O          24.5464  -29.0459  -39.8730 O.2       5 UNK        -0.5012 
     39 N          23.6793  -27.4233  -41.2148 N.am      6 UNK        -0.4439 
     40 CA         22.5860  -26.9266  -40.3700 C.3       6 UNK         0.0297 
     41 CB         23.1325  -26.2468  -39.0969 C.3       6 UNK        -0.2006 
     42 C          21.5605  -28.0379  -40.0760 C.2       6 UNK         0.4892 
     43 O          21.2679  -28.3203  -38.9120 O.2       6 UNK        -0.5089 
     44 N          21.0771  -28.6689  -41.1566 N.am      7 UNK        -0.4243 
     45 CA         20.2918  -29.9029  -41.1973 C.3       7 UNK         0.0196 
     46 CB         18.9297  -29.7588  -40.4823 C.3       7 UNK        -0.2007 
     47 C          21.1467  -31.0885  -40.7180 C.2       7 UNK         0.5020 
     48 O          21.8640  -31.6661  -41.5349 O.2       7 UNK        -0.5147 
     49 N          21.0805  -31.4035  -39.4136 N.am      8 UNK        -0.4734 
     50 CA         21.8484  -32.4448  -38.7091 C.3       8 UNK         0.0238 
     51 CB         23.3339  -32.0383  -38.6094 C.3       8 UNK        -0.1912 
     52 C          21.6516  -33.8471  -39.3195 C.2       8 UNK         0.5038 
     53 O          22.6224  -34.5650  -39.5682 O.2       8 UNK        -0.5046 
     54 N          20.3840  -34.1818  -39.5840 N.am      9 UNK        -0.4200 
     55 CA         19.9534  -35.3477  -40.3709 C.3       9 UNK         0.0839 
     56 C          20.1403  -36.7313  -39.6837 C.2       9 UNK         0.5513 
     57 N          20.4476  -36.7996  -38.3942 N.am      9 UNK        -0.7519 
     58 O          20.0030  -37.7625  -40.3368 O.2       9 UNK        -0.4960 
     59 C59        18.5001  -35.1815  -40.8962 C.3       10 UNK        -0.0876 
     60 S60        18.1399  -33.5126  -41.5451 S.3       10 UNK        -0.2414 
     61 C61        18.7796  -33.6343  -43.2432 C.3       10 UNK         0.0169 
     62 H62        17.6439  -25.4543  -39.4207 H         1 UNK         0.0903 
     63 H63        18.8085  -26.7806  -39.4536 H         1 UNK         0.0903 
     64 H64        19.3727  -25.1087  -39.4827 H         1 UNK         0.0903 
     65 H65        16.5599  -25.5204  -41.3845 H         1 UNK         0.3096 
     66 H66        16.0792  -25.3813  -43.5320 H         1 UNK         0.1121 
     67 H67        17.2229  -26.9611  -45.1504 H         1 UNK         0.0849 
     68 H68        18.3557  -27.3997  -43.8813 H         1 UNK         0.0849 
     69 H69        15.4059  -30.1978  -44.7328 H         1 UNK         0.0865 
     70 H70        16.1811  -29.0451  -45.7840 H         1 UNK         0.0865 
     71 H71        16.6635  -31.9709  -43.6621 H         1 UNK         0.1346 
     72 H72        20.8879  -32.2794  -44.3432 H         1 UNK         0.1412 
     73 H73        18.7323  -28.8673  -45.7769 H         1 UNK         0.1426 
     74 H74        21.0591  -29.6621  -46.7279 H         1 UNK         0.0716 
     75 H75        22.0434  -30.6215  -45.6486 H         1 UNK         0.0716 
     76 H76        23.5394  -28.0048  -46.2757 H         1 UNK         0.0695 
     77 H77        22.0164  -27.5624  -46.9852 H         1 UNK         0.0695 
     78 H78        23.2852  -25.5364  -46.6636 H         1 UNK         0.0983 
     79 H79        21.4354  -25.1731  -44.4521 H         1 UNK         0.3095 
     80 H80        20.0238  -23.1287  -45.0854 H         1 UNK         0.0454 
     81 H81        19.4339  -22.4729  -47.4370 H         1 UNK         0.0851 
     82 H82        18.3751  -23.8708  -47.5717 H         1 UNK         0.0851 
     83 H83        17.9993  -22.5775  -46.4348 H         1 UNK         0.0851 
     84 H84        18.9628  -25.7951  -45.2352 H         1 UNK         0.2976 
     85 H85        25.3939  -26.0931  -45.9478 H         1 UNK         0.3116 
     86 H86        26.2105  -24.7154  -43.6234 H         1 UNK         0.0646 
     87 H87        28.4744  -25.5820  -44.2387 H         1 UNK         0.0847 
     88 H88        27.6302  -24.9633  -45.6462 H         1 UNK         0.0847 
     89 H89        27.7508  -26.7040  -45.3812 H         1 UNK         0.0847 
     90 H90        25.2139  -28.0170  -43.9734 H         1 UNK         0.3040 
     91 H91        26.4459  -29.0989  -41.5913 H         1 UNK         0.1015 
     92 H92        25.6651  -30.5467  -43.4713 H         1 UNK         0.0786 
     93 H93        24.0006  -30.0190  -43.2096 H         1 UNK         0.0786 
     94 H94        24.8279  -30.9652  -41.9853 H         1 UNK         0.0786 
     95 H95        23.7570  -26.9644  -42.1181 H         1 UNK         0.3172 
     96 H96        22.0696  -26.1638  -40.9536 H         1 UNK         0.0595 
     97 H97        23.8393  -25.4547  -39.3435 H         1 UNK         0.0839 
     98 H98        23.6378  -26.9560  -38.4406 H         1 UNK         0.0839 
     99 H99        22.3234  -25.7940  -38.5227 H         1 UNK         0.0839 
    100 H100       21.3843  -28.3361  -42.0610 H         1 UNK         0.2998 
    101 H101       20.0756  -30.0812  -42.2501 H         1 UNK         0.0822 
    102 H102       18.3287  -28.9811  -40.9541 H         1 UNK         0.0787 
    103 H103       18.3582  -30.6844  -40.5506 H         1 UNK         0.0787 
    104 H104       19.0234  -29.5096  -39.4261 H         1 UNK         0.0787 
    105 H105       20.4929  -30.8206  -38.8325 H         1 UNK         0.3055 
    106 H106       21.4528  -32.4959  -37.6934 H         1 UNK         0.1106 
    107 H107       23.8081  -31.9939  -39.5906 H         1 UNK         0.0828 
    108 H108       23.4452  -31.0586  -38.1442 H         1 UNK         0.0828 
    109 H109       23.8976  -32.7505  -38.0058 H         1 UNK         0.0828 
    110 H110       19.6571  -33.5183  -39.3609 H         1 UNK         0.2931 
    111 H111       20.6029  -35.3717  -41.2480 H         1 UNK         0.0412 
    112 H112       20.5687  -37.7015  -37.9603 H         1 UNK         0.3472 
    113 H113       20.5696  -35.9578  -37.8544 H         1 UNK         0.3472 
    114 H114       17.7864  -35.3748  -40.0929 H         1 UNK         0.0970 
    115 H115       18.2854  -35.9202  -41.6710 H         1 UNK         0.0970 
    116 H116       18.1709  -34.3394  -43.8106 H         1 UNK         0.0612 
    117 H117       19.7911  -34.0422  -43.2118 H         1 UNK         0.0612 
@<TRIPOS>BOND
     1    1    2 1    
     2    1   62 1    
     3    1   63 1    
     4    1   64 1    
     5    2    3 2    
     6    2    4 am   BACKBONE|DICT|INTERRES
     7    4    5 1    
     8    4   65 1    
     9    5    6 1    
    10    5   25 1    
    11    5   66 1    
    12    6    7 1    
    13    6   67 1    
    14    6   68 1    
    15    7    8 1    
    16    8    9 1    
    17    8   69 1    
    18    8   70 1    
    19    9   10 ar   
    20    9   14 ar   
    21   10   11 ar   
    22   10   71 1    
    23   11   12 ar   
    24   11   61 1    
    25   12   13 ar   
    26   12   72 1    
    27   13   14 ar   
    28   13   15 1    
    29   14   73 1    
    30   15   16 1    
    31   15   74 1    
    32   15   75 1    
    33   16   17 1    
    34   17   18 1    
    35   17   76 1    
    36   17   77 1    
    37   18   19 1    
    38   18   27 1    
    39   18   78 1    
    40   19   20 am   BACKBONE|DICT|INTERRES
    41   19   79 1    
    42   20   21 2    
    43   20   22 1    
    44   22   23 1    
    45   22   24 1    
    46   22   80 1    
    47   23   81 1    
    48   23   82 1    
    49   23   83 1    
    50   24   25 am   BACKBONE|DICT|INTERRES
    51   24   84 1    
    52   25   26 2    
    53   27   28 2    
    54   27   29 am   BACKBONE|DICT|INTERRES
    55   29   30 1    
    56   29   85 1    
    57   30   31 1    
    58   30   32 1    
    59   30   86 1    
    60   31   87 1    
    61   31   88 1    
    62   31   89 1    
    63   32   33 2    
    64   32   34 am   BACKBONE|DICT|INTERRES
    65   34   35 1    
    66   34   90 1    
    67   35   36 1    
    68   35   37 1    
    69   35   91 1    
    70   36   92 1    
    71   36   93 1    
    72   36   94 1    
    73   37   38 2    
    74   37   39 am   BACKBONE|DICT|INTERRES
    75   39   40 1    
    76   39   95 1    
    77   40   41 1    
    78   40   42 1    
    79   40   96 1    
    80   41   97 1    
    81   41   98 1    
    82   41   99 1    
    83   42   43 2    
    84   42   44 am   BACKBONE|DICT|INTERRES
    85   44   45 1    
    86   44  100 1    
    87   45   46 1    
    88   45   47 1    
    89   45  101 1    
    90   46  102 1    
    91   46  103 1    
    92   46  104 1    
    93   47   48 2    
    94   47   49 am   BACKBONE|DICT|INTERRES
    95   49   50 1    
    96   49  105 1    
    97   50   51 1    
    98   50   52 1    
    99   50  106 1    
   100   51  107 1    
   101   51  108 1    
   102   51  109 1    
   103   52   53 2    
   104   52   54 am   BACKBONE|DICT|INTERRES
   105   54   55 1    
   106   54  110 1    
   107   55   56 1    
   108   55   59 1    
   109   55  111 1    
   110   56   57 am   BACKBONE|DICT|INTERRES
   111   56   58 2    
   112   57  112 1    
   113   57  113 1    
   114   59   60 1    
   115   59  114 1    
   116   59  115 1    
   117   60   61 1    
   118   61  116 1    
   119   61  117 1    
@<TRIPOS>SUBSTRUCTURE
     1 UNK         1 GROUP             0       ****    0 ROOT    
