@<TRIPOS>MOLECULE
3R8
117   119    1
SMALL
USER_CHARGES


@<TRIPOS>ATOM
      1 CA         14.3118  -25.8907  -41.6596 C.3       0 UNK        -0.2013 
      2 C          14.9879  -27.2536  -41.5297 C.2       0 UNK         0.4866 
      3 O          14.8212  -27.9120  -40.5051 O.2       0 UNK        -0.5176 
      4 N          15.7472  -27.7288  -42.5277 N.am      1 UNK        -0.4884 
      5 CA         16.0820  -27.0612  -43.7946 C.3       1 UNK         0.0853 
      6 C6         16.7100  -28.0536  -44.7984 C.3       10 UNK        -0.0849 
      7 S7         15.4883  -29.2259  -45.4941 S.3       10 UNK        -0.2776 
      8 C8         16.3895  -30.8190  -45.6353 C.3       10 UNK         0.0316 
      9 C9         17.8847  -30.6809  -45.9116 C.ar      10 UNK        -0.0863 
     10 C10        18.8002  -31.4016  -45.1382 C.ar      10 UNK        -0.1009 
     11 C11        20.1746  -31.1843  -45.2740 C.ar      10 UNK        -0.0712 
     12 C12        20.6330  -30.2723  -46.2267 C.ar      10 UNK        -0.0894 
     13 C13        19.7279  -29.5367  -46.9968 C.ar      10 UNK        -0.0745 
     14 C14        18.3592  -29.7810  -46.8715 C.ar      10 UNK        -0.0972 
     15 C15        20.2159  -28.3997  -47.8811 C.3       10 UNK         0.0209 
     16 S16        20.1213  -26.8033  -46.9943 S.3       10 UNK        -0.2568 
     17 C17        21.4299  -27.0301  -45.7467 C.3       10 UNK        -0.0983 
     18 CA         21.5264  -25.8959  -44.6996 C.3       3 UNK         0.0876 
     19 N          20.3131  -25.7753  -43.8809 N.am      3 UNK        -0.4424 
     20 C          20.0368  -24.7266  -43.0918 C.2       2 UNK         0.4918 
     21 O          20.7289  -23.7081  -43.0552 O.2       2 UNK        -0.4875 
     22 CA         18.8171  -24.8431  -42.1544 C.3       2 UNK         0.0481 
     23 CB         18.1368  -23.4843  -41.8805 C.3       2 UNK        -0.1831 
     24 N          17.8443  -25.8670  -42.5551 N.am      2 UNK        -0.4498 
     25 C          17.0153  -25.8448  -43.6095 C.2       1 UNK         0.5027 
     26 O          16.9553  -24.9186  -44.4179 O.2       1 UNK        -0.4969 
     27 C          22.7646  -26.1537  -43.8169 C.2       3 UNK         0.5005 
     28 O          23.8322  -25.6049  -44.0916 O.2       3 UNK        -0.5279 
     29 N          22.5949  -27.0200  -42.8026 N.am      4 UNK        -0.4463 
     30 CA         23.6201  -27.5306  -41.8825 C.3       4 UNK         0.0283 
     31 CB         24.1661  -26.4058  -40.9795 C.3       4 UNK        -0.1875 
     32 C          24.7378  -28.3403  -42.5702 C.2       4 UNK         0.4949 
     33 O          25.8280  -28.4647  -42.0122 O.2       4 UNK        -0.5039 
     34 N          24.4439  -28.9271  -43.7406 N.am      5 UNK        -0.4663 
     35 CA         25.3756  -29.7512  -44.5219 C.3       5 UNK         0.0242 
     36 CB         24.7650  -30.0470  -45.9005 C.3       5 UNK        -0.1982 
     37 C          25.7691  -31.0597  -43.8134 C.2       5 UNK         0.5017 
     38 O          26.9052  -31.5103  -43.9593 O.2       5 UNK        -0.5012 
     39 N          24.8314  -31.6146  -43.0350 N.am      6 UNK        -0.4439 
     40 CA         25.0269  -32.7598  -42.1430 C.3       6 UNK         0.0297 
     41 CB         23.9333  -33.8057  -42.4306 C.3       6 UNK        -0.2006 
     42 C          25.0156  -32.3229  -40.6643 C.2       6 UNK         0.4892 
     43 O          24.7808  -33.1612  -39.7925 O.2       6 UNK        -0.5089 
     44 N          25.2334  -31.0222  -40.4058 N.am      7 UNK        -0.4243 
     45 CA         25.1855  -30.3061  -39.1231 C.3       7 UNK         0.0196 
     46 CB         26.2377  -30.8379  -38.1300 C.3       7 UNK        -0.2007 
     47 C          23.7845  -30.2569  -38.4900 C.2       7 UNK         0.5020 
     48 O          23.2636  -29.1671  -38.2531 O.2       7 UNK        -0.5147 
     49 N          23.1904  -31.4311  -38.2462 N.am      8 UNK        -0.4734 
     50 CA         21.8877  -31.6198  -37.5991 C.3       8 UNK         0.0238 
     51 CB         21.6657  -33.1201  -37.3486 C.3       8 UNK        -0.1912 
     52 C          20.7024  -31.0243  -38.3782 C.2       8 UNK         0.5038 
     53 O          19.7002  -30.6645  -37.7595 O.2       8 UNK        -0.5046 
     54 N          20.8409  -30.9219  -39.7060 N.am      9 UNK        -0.4200 
     55 CA         19.8791  -30.2692  -40.6037 C.3       9 UNK         0.0839 
     56 C          19.9507  -28.7148  -40.6278 C.2       9 UNK         0.5513 
     57 N          20.8150  -28.0665  -39.8560 N.am      9 UNK        -0.7519 
     58 O          19.2012  -28.0825  -41.3667 O.2       9 UNK        -0.4960 
     59 C59        19.8997  -30.8918  -42.0220 C.3       10 UNK        -0.0876 
     60 S60        21.5135  -30.8226  -42.8782 S.3       10 UNK        -0.2414 
     61 C61        21.1591  -31.8666  -44.3344 C.3       10 UNK         0.0169 
     62 H62        13.7980  -25.7853  -42.6143 H         1 UNK         0.0903 
     63 H63        13.5663  -25.7624  -40.8748 H         1 UNK         0.0903 
     64 H64        15.0395  -25.0863  -41.5576 H         1 UNK         0.0903 
     65 H65        16.1593  -28.6433  -42.4100 H         1 UNK         0.3096 
     66 H66        15.1604  -26.6795  -44.2384 H         1 UNK         0.1121 
     67 H67        17.1482  -27.5217  -45.6462 H         1 UNK         0.0849 
     68 H68        17.5307  -28.5920  -44.3207 H         1 UNK         0.0849 
     69 H69        16.2263  -31.3757  -44.7111 H         1 UNK         0.0865 
     70 H70        15.9362  -31.4117  -46.4307 H         1 UNK         0.0865 
     71 H71        18.4431  -32.0907  -44.3851 H         1 UNK         0.1346 
     72 H72        21.6913  -30.0758  -46.3147 H         1 UNK         0.1412 
     73 H73        17.6586  -29.2007  -47.4564 H         1 UNK         0.1426 
     74 H74        19.6050  -28.3436  -48.7833 H         1 UNK         0.0716 
     75 H75        21.2401  -28.5780  -48.2125 H         1 UNK         0.0716 
     76 H76        21.2574  -27.9704  -45.2258 H         1 UNK         0.0695 
     77 H77        22.3738  -27.1408  -46.2854 H         1 UNK         0.0695 
     78 H78        21.6837  -24.9514  -45.2255 H         1 UNK         0.0983 
     79 H79        19.6858  -26.5653  -43.8699 H         1 UNK         0.3095 
     80 H80        19.2199  -25.1923  -41.2028 H         1 UNK         0.0454 
     81 H81        18.8315  -22.7879  -41.4094 H         1 UNK         0.0851 
     82 H82        17.2870  -23.5934  -41.2070 H         1 UNK         0.0851 
     83 H83        17.7827  -23.0125  -42.7973 H         1 UNK         0.0851 
     84 H84        17.8758  -26.7152  -41.9956 H         1 UNK         0.2976 
     85 H85        21.6681  -27.3994  -42.6648 H         1 UNK         0.3116 
     86 H86        23.1149  -28.2476  -41.2359 H         1 UNK         0.0646 
     87 H87        23.3578  -25.8656  -40.4873 H         1 UNK         0.0847 
     88 H88        24.8060  -26.8094  -40.1940 H         1 UNK         0.0847 
     89 H89        24.7588  -25.6849  -41.5433 H         1 UNK         0.0847 
     90 H90        23.5200  -28.7914  -44.1223 H         1 UNK         0.3040 
     91 H91        26.2891  -29.1701  -44.6681 H         1 UNK         0.1015 
     92 H92        25.4783  -30.5772  -46.5333 H         1 UNK         0.0786 
     93 H93        24.4904  -29.1301  -46.4227 H         1 UNK         0.0786 
     94 H94        23.8772  -30.6735  -45.8223 H         1 UNK         0.0786 
     95 H95        23.9246  -31.1667  -42.9945 H         1 UNK         0.3172 
     96 H96        25.9969  -33.2247  -42.3288 H         1 UNK         0.0595 
     97 H97        22.9409  -33.4390  -42.1668 H         1 UNK         0.0839 
     98 H98        24.1040  -34.7185  -41.8583 H         1 UNK         0.0839 
     99 H99        23.9187  -34.0857  -43.4839 H         1 UNK         0.0839 
    100 H100       25.4468  -30.4270  -41.1977 H         1 UNK         0.2998 
    101 H101       25.4562  -29.2744  -39.3538 H         1 UNK         0.0822 
    102 H102       26.2446  -30.2415  -37.2167 H         1 UNK         0.0787 
    103 H103       27.2403  -30.7897  -38.5551 H         1 UNK         0.0787 
    104 H104       26.0481  -31.8712  -37.8386 H         1 UNK         0.0787 
    105 H105       23.6903  -32.2669  -38.5423 H         1 UNK         0.3055 
    106 H106       21.9231  -31.1101  -36.6337 H         1 UNK         0.1106 
    107 H107       21.6567  -33.6875  -38.2803 H         1 UNK         0.0828 
    108 H108       22.4459  -33.5356  -36.7105 H         1 UNK         0.0828 
    109 H109       20.7123  -33.2972  -36.8486 H         1 UNK         0.0828 
    110 H110       21.7037  -31.2311  -40.1268 H         1 UNK         0.2931 
    111 H111       18.8843  -30.4815  -40.2072 H         1 UNK         0.0412 
    112 H112       20.8238  -27.0604  -39.8666 H         1 UNK         0.3472 
    113 H113       21.4507  -28.5655  -39.2466 H         1 UNK         0.3472 
    114 H114       19.5951  -31.9373  -41.9553 H         1 UNK         0.0970 
    115 H115       19.1486  -30.4061  -42.6463 H         1 UNK         0.0970 
    116 H116       22.0921  -32.0746  -44.8595 H         1 UNK         0.0612 
    117 H117       20.7721  -32.8331  -44.0080 H         1 UNK         0.0612 
@<TRIPOS>BOND
     1    1    2 1    
     2    1   62 1    
     3    1   63 1    
     4    1   64 1    
     5    2    3 2    
     6    2    4 am   BACKBONE|DICT|INTERRES
     7    4    5 1    
     8    4   65 1    
     9    5    6 1    
    10    5   25 1    
    11    5   66 1    
    12    6    7 1    
    13    6   67 1    
    14    6   68 1    
    15    7    8 1    
    16    8    9 1    
    17    8   69 1    
    18    8   70 1    
    19    9   10 ar   
    20    9   14 ar   
    21   10   11 ar   
    22   10   71 1    
    23   11   12 ar   
    24   11   61 1    
    25   12   13 ar   
    26   12   72 1    
    27   13   14 ar   
    28   13   15 1    
    29   14   73 1    
    30   15   16 1    
    31   15   74 1    
    32   15   75 1    
    33   16   17 1    
    34   17   18 1    
    35   17   76 1    
    36   17   77 1    
    37   18   19 1    
    38   18   27 1    
    39   18   78 1    
    40   19   20 am   BACKBONE|DICT|INTERRES
    41   19   79 1    
    42   20   21 2    
    43   20   22 1    
    44   22   23 1    
    45   22   24 1    
    46   22   80 1    
    47   23   81 1    
    48   23   82 1    
    49   23   83 1    
    50   24   25 am   BACKBONE|DICT|INTERRES
    51   24   84 1    
    52   25   26 2    
    53   27   28 2    
    54   27   29 am   BACKBONE|DICT|INTERRES
    55   29   30 1    
    56   29   85 1    
    57   30   31 1    
    58   30   32 1    
    59   30   86 1    
    60   31   87 1    
    61   31   88 1    
    62   31   89 1    
    63   32   33 2    
    64   32   34 am   BACKBONE|DICT|INTERRES
    65   34   35 1    
    66   34   90 1    
    67   35   36 1    
    68   35   37 1    
    69   35   91 1    
    70   36   92 1    
    71   36   93 1    
    72   36   94 1    
    73   37   38 2    
    74   37   39 am   BACKBONE|DICT|INTERRES
    75   39   40 1    
    76   39   95 1    
    77   40   41 1    
    78   40   42 1    
    79   40   96 1    
    80   41   97 1    
    81   41   98 1    
    82   41   99 1    
    83   42   43 2    
    84   42   44 am   BACKBONE|DICT|INTERRES
    85   44   45 1    
    86   44  100 1    
    87   45   46 1    
    88   45   47 1    
    89   45  101 1    
    90   46  102 1    
    91   46  103 1    
    92   46  104 1    
    93   47   48 2    
    94   47   49 am   BACKBONE|DICT|INTERRES
    95   49   50 1    
    96   49  105 1    
    97   50   51 1    
    98   50   52 1    
    99   50  106 1    
   100   51  107 1    
   101   51  108 1    
   102   51  109 1    
   103   52   53 2    
   104   52   54 am   BACKBONE|DICT|INTERRES
   105   54   55 1    
   106   54  110 1    
   107   55   56 1    
   108   55   59 1    
   109   55  111 1    
   110   56   57 am   BACKBONE|DICT|INTERRES
   111   56   58 2    
   112   57  112 1    
   113   57  113 1    
   114   59   60 1    
   115   59  114 1    
   116   59  115 1    
   117   60   61 1    
   118   61  116 1    
   119   61  117 1    
@<TRIPOS>SUBSTRUCTURE
     1 UNK         1 GROUP             0       ****    0 ROOT    
