@<TRIPOS>MOLECULE
3R8
117   119    1
SMALL
USER_CHARGES


@<TRIPOS>ATOM
      1 CA         17.6801  -23.2411  -40.3960 C.3       0 UNK        -0.2013 
      2 C          17.5023  -23.7796  -41.8077 C.2       0 UNK         0.4866 
      3 O          18.1290  -23.2737  -42.7386 O.2       0 UNK        -0.5176 
      4 N          16.6493  -24.7996  -41.9744 N.am      1 UNK        -0.4884 
      5 CA         16.3749  -25.4581  -43.2590 C.3       1 UNK         0.0853 
      6 C6         15.0936  -26.3266  -43.1736 C.3       10 UNK        -0.0849 
      7 S7         14.3787  -26.7101  -44.8089 S.3       10 UNK        -0.2776 
      8 C8         14.3028  -28.5332  -44.7838 C.3       10 UNK         0.0316 
      9 C9         15.6290  -29.2142  -45.1136 C.ar      10 UNK        -0.0863 
     10 C10        16.2203  -30.0945  -44.2005 C.ar      10 UNK        -0.1009 
     11 C11        17.3625  -30.8251  -44.5500 C.ar      10 UNK        -0.0712 
     12 C12        17.9277  -30.6525  -45.8176 C.ar      10 UNK        -0.0894 
     13 C13        17.3629  -29.7575  -46.7303 C.ar      10 UNK        -0.0745 
     14 C14        16.2137  -29.0442  -46.3730 C.ar      10 UNK        -0.0972 
     15 C15        17.9492  -29.6061  -48.1268 C.3       10 UNK         0.0209 
     16 S16        19.0937  -28.1961  -48.2473 S.3       10 UNK        -0.2568 
     17 C17        20.6590  -28.8972  -47.6232 C.3       10 UNK        -0.0983 
     18 CA         21.1865  -28.1351  -46.3845 C.3       3 UNK         0.0876 
     19 N          20.2808  -28.2654  -45.2368 N.am      3 UNK        -0.4424 
     20 C          20.3734  -27.5712  -44.0961 C.2       2 UNK         0.4918 
     21 O          21.2430  -26.7291  -43.8686 O.2       2 UNK        -0.4875 
     22 CA         19.3405  -27.9156  -43.0123 C.3       2 UNK         0.0481 
     23 CB         20.0365  -28.2044  -41.6710 C.3       2 UNK        -0.1831 
     24 N          18.3004  -26.9053  -42.8150 N.am      2 UNK        -0.4498 
     25 C          17.5711  -26.2920  -43.7619 C.2       1 UNK         0.5027 
     26 O          17.7807  -26.3685  -44.9721 O.2       1 UNK        -0.4969 
     27 C          22.6351  -28.5593  -46.0552 C.2       3 UNK         0.5005 
     28 O          23.5678  -28.0759  -46.6982 O.2       3 UNK        -0.5279 
     29 N          22.8024  -29.4207  -45.0406 N.am      4 UNK        -0.4463 
     30 CA         24.0935  -29.8263  -44.4788 C.3       4 UNK         0.0283 
     31 CB         23.9300  -31.2053  -43.8227 C.3       4 UNK        -0.1875 
     32 C          24.6808  -28.8034  -43.4803 C.2       4 UNK         0.4949 
     33 O          25.7551  -29.0585  -42.9345 O.2       4 UNK        -0.5039 
     34 N          23.9819  -27.6805  -43.2472 N.am      5 UNK        -0.4663 
     35 CA         24.3567  -26.5588  -42.3813 C.3       5 UNK         0.0242 
     36 CB         25.5606  -25.7933  -42.9790 C.3       5 UNK        -0.1982 
     37 C          24.5384  -26.9984  -40.9171 C.2       5 UNK         0.5017 
     38 O          23.6037  -27.5596  -40.3426 O.2       5 UNK        -0.5012 
     39 N          25.7253  -26.7505  -40.3443 N.am      6 UNK        -0.4439 
     40 CA         26.0933  -27.0208  -38.9490 C.3       6 UNK         0.0297 
     41 CB         27.5126  -26.4874  -38.6939 C.3       6 UNK        -0.2006 
     42 C          25.9896  -28.4953  -38.5139 C.2       6 UNK         0.4892 
     43 O          25.8946  -28.7552  -37.3139 O.2       6 UNK        -0.5089 
     44 N          25.9878  -29.4285  -39.4769 N.am      7 UNK        -0.4243 
     45 CA         25.7414  -30.8537  -39.2447 C.3       7 UNK         0.0196 
     46 CB         26.2180  -31.6505  -40.4687 C.3       7 UNK        -0.2007 
     47 C          24.2678  -31.1786  -38.9292 C.2       7 UNK         0.5020 
     48 O          23.9937  -32.2873  -38.4691 O.2       7 UNK        -0.5147 
     49 N          23.3442  -30.2400  -39.2026 N.am      8 UNK        -0.4734 
     50 CA         21.8966  -30.3096  -38.9436 C.3       8 UNK         0.0238 
     51 CB         21.6231  -30.2734  -37.4253 C.3       8 UNK        -0.1912 
     52 C          21.1874  -31.4891  -39.6422 C.2       8 UNK         0.5038 
     53 O          20.1649  -31.9679  -39.1492 O.2       8 UNK        -0.5046 
     54 N          21.7619  -31.9391  -40.7659 N.am      9 UNK        -0.4200 
     55 CA         21.3834  -33.1395  -41.5304 C.3       9 UNK         0.0839 
     56 C          21.6491  -34.4833  -40.7824 C.2       9 UNK         0.5513 
     57 N          22.4513  -34.5122  -39.7238 N.am      9 UNK        -0.7519 
     58 O          21.1474  -35.5294  -41.1862 O.2       9 UNK        -0.4960 
     59 C59        19.9538  -33.0628  -42.1377 C.3       10 UNK        -0.0876 
     60 S60        19.6943  -31.6113  -43.2125 S.3       10 UNK        -0.2414 
     61 C61        17.9303  -31.8625  -43.5893 C.3       10 UNK         0.0169 
     62 H62        17.4096  -22.1862  -40.3603 H         1 UNK         0.0903 
     63 H63        17.0618  -23.7739  -39.6738 H         1 UNK         0.0903 
     64 H64        18.7207  -23.3364  -40.0868 H         1 UNK         0.0903 
     65 H65        16.1485  -25.1610  -41.1742 H         1 UNK         0.3096 
     66 H66        16.2040  -24.6681  -43.9947 H         1 UNK         0.1121 
     67 H67        14.3213  -25.7913  -42.6188 H         1 UNK         0.0849 
     68 H68        15.2773  -27.2448  -42.6119 H         1 UNK         0.0849 
     69 H69        13.9172  -28.8671  -43.8192 H         1 UNK         0.0865 
     70 H70        13.5657  -28.8524  -45.5219 H         1 UNK         0.0865 
     71 H71        15.7626  -30.2482  -43.2327 H         1 UNK         0.1346 
     72 H72        18.7936  -31.2362  -46.0996 H         1 UNK         0.1412 
     73 H73        15.7578  -28.3706  -47.0859 H         1 UNK         0.1426 
     74 H74        17.1397  -29.4532  -48.8422 H         1 UNK         0.0716 
     75 H75        18.4513  -30.5230  -48.4392 H         1 UNK         0.0716 
     76 H76        21.3791  -28.8412  -48.4421 H         1 UNK         0.0695 
     77 H77        20.5382  -29.9586  -47.4004 H         1 UNK         0.0695 
     78 H78        21.2313  -27.0728  -46.6356 H         1 UNK         0.0983 
     79 H79        19.4870  -28.8782  -45.3655 H         1 UNK         0.3095 
     80 H80        18.8229  -28.8243  -43.3146 H         1 UNK         0.0454 
     81 H81        20.4988  -27.3090  -41.2529 H         1 UNK         0.0851 
     82 H82        20.8262  -28.9466  -41.7952 H         1 UNK         0.0851 
     83 H83        19.3363  -28.6005  -40.9355 H         1 UNK         0.0851 
     84 H84        18.0501  -26.7146  -41.8564 H         1 UNK         0.2976 
     85 H85        21.9761  -29.7746  -44.5798 H         1 UNK         0.3116 
     86 H86        24.8116  -29.9267  -45.2954 H         1 UNK         0.0646 
     87 H87        23.4628  -31.9201  -44.5005 H         1 UNK         0.0847 
     88 H88        23.3214  -31.1448  -42.9227 H         1 UNK         0.0847 
     89 H89        24.8986  -31.6198  -43.5428 H         1 UNK         0.0847 
     90 H90        23.0806  -27.5718  -43.6994 H         1 UNK         0.3040 
     91 H91        23.5036  -25.8781  -42.3799 H         1 UNK         0.1015 
     92 H92        26.4628  -26.4047  -43.0223 H         1 UNK         0.0786 
     93 H93        25.7883  -24.8962  -42.4015 H         1 UNK         0.0786 
     94 H94        25.3427  -25.4645  -43.9954 H         1 UNK         0.0786 
     95 H95        26.4331  -26.3122  -40.9161 H         1 UNK         0.3172 
     96 H96        25.4006  -26.4571  -38.3209 H         1 UNK         0.0595 
     97 H97        28.2513  -26.9906  -39.3191 H         1 UNK         0.0839 
     98 H98        27.8076  -26.6414  -37.6548 H         1 UNK         0.0839 
     99 H99        27.5779  -25.4168  -38.8892 H         1 UNK         0.0839 
    100 H100       26.0709  -29.1291  -40.4401 H         1 UNK         0.2998 
    101 H101       26.3323  -31.1697  -38.3822 H         1 UNK         0.0822 
    102 H102       27.2803  -31.4930  -40.6559 H         1 UNK         0.0787 
    103 H103       26.0702  -32.7217  -40.3236 H         1 UNK         0.0787 
    104 H104       25.6742  -31.3637  -41.3672 H         1 UNK         0.0787 
    105 H105       23.6595  -29.3559  -39.5958 H         1 UNK         0.3055 
    106 H106       21.4683  -29.4034  -39.3737 H         1 UNK         0.1106 
    107 H107       21.9691  -31.1818  -36.9311 H         1 UNK         0.0828 
    108 H108       20.5563  -30.1773  -37.2196 H         1 UNK         0.0828 
    109 H109       22.1193  -29.4251  -36.9537 H         1 UNK         0.0828 
    110 H110       22.6147  -31.4876  -41.0561 H         1 UNK         0.2931 
    111 H111       22.0764  -33.1682  -42.3714 H         1 UNK         0.0412 
    112 H112       22.6191  -35.3921  -39.2624 H         1 UNK         0.3472 
    113 H113       22.8892  -33.6690  -39.3667 H         1 UNK         0.3472 
    114 H114       19.2023  -33.0604  -41.3468 H         1 UNK         0.0970 
    115 H115       19.7523  -33.9503  -42.7403 H         1 UNK         0.0970 
    116 H116       17.7969  -32.8518  -44.0292 H         1 UNK         0.0612 
    117 H117       17.3721  -31.8619  -42.6517 H         1 UNK         0.0612 
@<TRIPOS>BOND
     1    1    2 1    
     2    1   62 1    
     3    1   63 1    
     4    1   64 1    
     5    2    3 2    
     6    2    4 am   BACKBONE|DICT|INTERRES
     7    4    5 1    
     8    4   65 1    
     9    5    6 1    
    10    5   25 1    
    11    5   66 1    
    12    6    7 1    
    13    6   67 1    
    14    6   68 1    
    15    7    8 1    
    16    8    9 1    
    17    8   69 1    
    18    8   70 1    
    19    9   10 ar   
    20    9   14 ar   
    21   10   11 ar   
    22   10   71 1    
    23   11   12 ar   
    24   11   61 1    
    25   12   13 ar   
    26   12   72 1    
    27   13   14 ar   
    28   13   15 1    
    29   14   73 1    
    30   15   16 1    
    31   15   74 1    
    32   15   75 1    
    33   16   17 1    
    34   17   18 1    
    35   17   76 1    
    36   17   77 1    
    37   18   19 1    
    38   18   27 1    
    39   18   78 1    
    40   19   20 am   BACKBONE|DICT|INTERRES
    41   19   79 1    
    42   20   21 2    
    43   20   22 1    
    44   22   23 1    
    45   22   24 1    
    46   22   80 1    
    47   23   81 1    
    48   23   82 1    
    49   23   83 1    
    50   24   25 am   BACKBONE|DICT|INTERRES
    51   24   84 1    
    52   25   26 2    
    53   27   28 2    
    54   27   29 am   BACKBONE|DICT|INTERRES
    55   29   30 1    
    56   29   85 1    
    57   30   31 1    
    58   30   32 1    
    59   30   86 1    
    60   31   87 1    
    61   31   88 1    
    62   31   89 1    
    63   32   33 2    
    64   32   34 am   BACKBONE|DICT|INTERRES
    65   34   35 1    
    66   34   90 1    
    67   35   36 1    
    68   35   37 1    
    69   35   91 1    
    70   36   92 1    
    71   36   93 1    
    72   36   94 1    
    73   37   38 2    
    74   37   39 am   BACKBONE|DICT|INTERRES
    75   39   40 1    
    76   39   95 1    
    77   40   41 1    
    78   40   42 1    
    79   40   96 1    
    80   41   97 1    
    81   41   98 1    
    82   41   99 1    
    83   42   43 2    
    84   42   44 am   BACKBONE|DICT|INTERRES
    85   44   45 1    
    86   44  100 1    
    87   45   46 1    
    88   45   47 1    
    89   45  101 1    
    90   46  102 1    
    91   46  103 1    
    92   46  104 1    
    93   47   48 2    
    94   47   49 am   BACKBONE|DICT|INTERRES
    95   49   50 1    
    96   49  105 1    
    97   50   51 1    
    98   50   52 1    
    99   50  106 1    
   100   51  107 1    
   101   51  108 1    
   102   51  109 1    
   103   52   53 2    
   104   52   54 am   BACKBONE|DICT|INTERRES
   105   54   55 1    
   106   54  110 1    
   107   55   56 1    
   108   55   59 1    
   109   55  111 1    
   110   56   57 am   BACKBONE|DICT|INTERRES
   111   56   58 2    
   112   57  112 1    
   113   57  113 1    
   114   59   60 1    
   115   59  114 1    
   116   59  115 1    
   117   60   61 1    
   118   61  116 1    
   119   61  117 1    
@<TRIPOS>SUBSTRUCTURE
     1 UNK         1 GROUP             0       ****    0 ROOT    
