@<TRIPOS>MOLECULE
3R8
117   119    1
SMALL
USER_CHARGES


@<TRIPOS>ATOM
      1 CA         16.3335  -28.7319  -48.9041 C.3       0 UNK        -0.2013 
      2 C          16.9907  -28.5900  -47.5393 C.2       0 UNK         0.4866 
      3 O          18.1346  -29.0094  -47.3661 O.2       0 UNK        -0.5176 
      4 N          16.2717  -28.0098  -46.5703 N.am      1 UNK        -0.4884 
      5 CA         16.7434  -27.7488  -45.2059 C.3       1 UNK         0.0853 
      6 C6         15.5726  -27.3566  -44.2686 C.3       10 UNK        -0.0849 
      7 S7         14.4060  -28.7487  -44.0497 S.3       10 UNK        -0.2776 
      8 C8         14.6246  -29.2132  -42.2953 C.3       10 UNK         0.0316 
      9 C9         16.0872  -29.3070  -41.8784 C.ar      10 UNK        -0.0863 
     10 C10        16.9607  -30.1806  -42.5323 C.ar      10 UNK        -0.1009 
     11 C11        18.3177  -30.2025  -42.2006 C.ar      10 UNK        -0.0712 
     12 C12        18.7963  -29.3673  -41.1865 C.ar      10 UNK        -0.0894 
     13 C13        17.9255  -28.5154  -40.5017 C.ar      10 UNK        -0.0745 
     14 C14        16.5728  -28.4913  -40.8522 C.ar      10 UNK        -0.0972 
     15 C15        18.4327  -27.6105  -39.3895 C.3       10 UNK         0.0209 
     16 S16        18.4851  -25.8764  -39.9409 S.3       10 UNK        -0.2568 
     17 C17        20.2629  -25.4910  -39.8231 C.3       10 UNK        -0.0983 
     18 CA         21.1249  -26.1355  -40.9372 C.3       3 UNK         0.0876 
     19 N          20.5609  -25.9185  -42.2788 N.am      3 UNK        -0.4424 
     20 C          21.0266  -26.4437  -43.4193 C.2       2 UNK         0.4918 
     21 O          22.0479  -27.1273  -43.4923 O.2       2 UNK        -0.4875 
     22 CA         20.2063  -26.1469  -44.6782 C.3       2 UNK         0.0481 
     23 CB         21.0034  -26.3865  -45.9753 C.3       2 UNK        -0.1831 
     24 N          19.0158  -26.9906  -44.6701 N.am      2 UNK        -0.4498 
     25 C          17.8393  -26.6650  -45.2176 C.2       1 UNK         0.5027 
     26 O          17.5980  -25.5687  -45.7296 O.2       1 UNK        -0.4969 
     27 C          22.5974  -25.6911  -40.7836 C.2       3 UNK         0.5005 
     28 O          23.2804  -26.1734  -39.8794 O.2       3 UNK        -0.5279 
     29 N          23.0803  -24.8160  -41.6794 N.am      4 UNK        -0.4463 
     30 CA         24.4882  -24.4247  -41.8097 C.3       4 UNK         0.0283 
     31 CB         24.6062  -23.3045  -42.8555 C.3       4 UNK        -0.1875 
     32 C          25.4250  -25.5959  -42.1706 C.2       4 UNK         0.4949 
     33 O          26.6114  -25.5330  -41.8499 O.2       4 UNK        -0.5039 
     34 N          24.8779  -26.6506  -42.7920 N.am      5 UNK        -0.4663 
     35 CA         25.5580  -27.9155  -43.0796 C.3       5 UNK         0.0242 
     36 CB         25.1770  -28.3630  -44.5022 C.3       5 UNK        -0.1982 
     37 C          25.2370  -28.9907  -42.0184 C.2       5 UNK         0.5017 
     38 O          25.3682  -30.1822  -42.3069 O.2       5 UNK        -0.5012 
     39 N          24.8329  -28.5510  -40.8152 N.am      6 UNK        -0.4439 
     40 CA         24.3998  -29.3274  -39.6481 C.3       6 UNK         0.0297 
     41 CB         25.4749  -30.3513  -39.2192 C.3       6 UNK        -0.2006 
     42 C          23.0200  -29.9783  -39.8487 C.2       6 UNK         0.4892 
     43 O          22.4283  -29.8868  -40.9253 O.2       6 UNK        -0.5089 
     44 N          22.5315  -30.6507  -38.7970 N.am      7 UNK        -0.4243 
     45 CA         21.2647  -31.3951  -38.7818 C.3       7 UNK         0.0196 
     46 CB         20.9800  -31.8703  -37.3479 C.3       7 UNK        -0.2007 
     47 C          21.2186  -32.5836  -39.7631 C.2       7 UNK         0.5020 
     48 O          20.1299  -33.0570  -40.0862 O.2       7 UNK        -0.5147 
     49 N          22.3908  -33.0402  -40.2220 N.am      8 UNK        -0.4734 
     50 CA         22.5428  -34.0608  -41.2577 C.3       8 UNK         0.0238 
     51 CB         23.9090  -34.7442  -41.0791 C.3       8 UNK        -0.1912 
     52 C          22.4122  -33.5046  -42.6884 C.2       8 UNK         0.5038 
     53 O          22.1908  -34.3017  -43.6009 O.2       8 UNK        -0.5046 
     54 N          22.5670  -32.1820  -42.8715 N.am      9 UNK        -0.4200 
     55 CA         22.6395  -31.4940  -44.1730 C.3       9 UNK         0.0839 
     56 C          23.8111  -32.0251  -45.0506 C.2       9 UNK         0.5513 
     57 N          25.0331  -31.9949  -44.5357 N.am      9 UNK        -0.7519 
     58 O          23.6267  -32.4686  -46.1818 O.2       9 UNK        -0.4960 
     59 C59        21.2706  -31.4417  -44.9140 C.3       10 UNK        -0.0876 
     60 S60        20.1630  -30.1713  -44.2247 S.3       10 UNK        -0.2414 
     61 C61        19.2740  -31.1092  -42.9535 C.3       10 UNK         0.0169 
     62 H62        16.2848  -29.7824  -49.1893 H         1 UNK         0.0903 
     63 H63        15.3201  -28.3309  -48.9134 H         1 UNK         0.0903 
     64 H64        16.9152  -28.2008  -49.6571 H         1 UNK         0.0903 
     65 H65        15.3384  -27.6820  -46.7737 H         1 UNK         0.3096 
     66 H66        17.1898  -28.6729  -44.8337 H         1 UNK         0.1121 
     67 H67        15.0237  -26.5055  -44.6761 H         1 UNK         0.0849 
     68 H68        15.9425  -27.0276  -43.2962 H         1 UNK         0.0849 
     69 H69        14.0930  -28.4874  -41.6779 H         1 UNK         0.0865 
     70 H70        14.1406  -30.1748  -42.1195 H         1 UNK         0.0865 
     71 H71        16.5893  -30.8139  -43.3267 H         1 UNK         0.1346 
     72 H72        19.8495  -29.3773  -40.9436 H         1 UNK         0.1412 
     73 H73        15.9042  -27.8152  -40.3362 H         1 UNK         0.1426 
     74 H74        19.4150  -27.9364  -39.0440 H         1 UNK         0.0716 
     75 H75        17.7676  -27.6872  -38.5282 H         1 UNK         0.0716 
     76 H76        20.3576  -24.4037  -39.8544 H         1 UNK         0.0695 
     77 H77        20.6183  -25.7952  -38.8363 H         1 UNK         0.0695 
     78 H78        21.1250  -27.2163  -40.7805 H         1 UNK         0.0983 
     79 H79        19.6985  -25.3930  -42.3050 H         1 UNK         0.3095 
     80 H80        19.9184  -25.0942  -44.6392 H         1 UNK         0.0454 
     81 H81        21.9213  -25.7975  -45.9859 H         1 UNK         0.0851 
     82 H82        21.2852  -27.4347  -46.0857 H         1 UNK         0.0851 
     83 H83        20.4250  -26.1034  -46.8547 H         1 UNK         0.0851 
     84 H84        19.1422  -27.9130  -44.2693 H         1 UNK         0.2976 
     85 H85        22.4447  -24.4611  -42.3789 H         1 UNK         0.3116 
     86 H86        24.8137  -24.0305  -40.8448 H         1 UNK         0.0646 
     87 H87        25.6403  -22.9708  -42.9538 H         1 UNK         0.0847 
     88 H88        24.0134  -22.4335  -42.5755 H         1 UNK         0.0847 
     89 H89        24.2767  -23.6350  -43.8414 H         1 UNK         0.0847 
     90 H90        23.8823  -26.6393  -43.0004 H         1 UNK         0.3040 
     91 H91        26.6401  -27.7702  -43.0560 H         1 UNK         0.1015 
     92 H92        25.4291  -27.5979  -45.2363 H         1 UNK         0.0786 
     93 H93        24.1097  -28.5660  -44.5888 H         1 UNK         0.0786 
     94 H94        25.7124  -29.2683  -44.7888 H         1 UNK         0.0786 
     95 H95        24.6834  -27.5533  -40.7193 H         1 UNK         0.3172 
     96 H96        24.2873  -28.6022  -38.8409 H         1 UNK         0.0595 
     97 H97        26.4603  -29.8888  -39.1623 H         1 UNK         0.0839 
     98 H98        25.5418  -31.1910  -39.9116 H         1 UNK         0.0839 
     99 H99        25.2625  -30.7636  -38.2325 H         1 UNK         0.0839 
    100 H100       23.0705  -30.6698  -37.9429 H         1 UNK         0.2998 
    101 H101       20.4705  -30.7064  -39.0745 H         1 UNK         0.0822 
    102 H102       20.9195  -31.0308  -36.6550 H         1 UNK         0.0787 
    103 H103       20.0277  -32.4001  -37.2941 H         1 UNK         0.0787 
    104 H104       21.7521  -32.5513  -36.9873 H         1 UNK         0.0787 
    105 H105       23.2354  -32.6015  -39.8863 H         1 UNK         0.3055 
    106 H106       21.7629  -34.8153  -41.1299 H         1 UNK         0.1106 
    107 H107       24.7330  -34.0403  -41.2047 H         1 UNK         0.0828 
    108 H108       24.0007  -35.1987  -40.0925 H         1 UNK         0.0828 
    109 H109       24.0466  -35.5392  -41.8135 H         1 UNK         0.0828 
    110 H110       22.7058  -31.5810  -42.0671 H         1 UNK         0.2931 
    111 H111       22.9158  -30.4655  -43.9398 H         1 UNK         0.0412 
    112 H112       25.8104  -32.3398  -45.0755 H         1 UNK         0.3472 
    113 H113       25.1927  -31.5485  -43.6363 H         1 UNK         0.3472 
    114 H114       20.7785  -32.4151  -44.9227 H         1 UNK         0.0970 
    115 H115       21.4094  -31.1716  -45.9623 H         1 UNK         0.0970 
    116 H116       19.9899  -31.5399  -42.2566 H         1 UNK         0.0612 
    117 H117       18.7407  -31.9418  -43.4145 H         1 UNK         0.0612 
@<TRIPOS>BOND
     1    1    2 1    
     2    1   62 1    
     3    1   63 1    
     4    1   64 1    
     5    2    3 2    
     6    2    4 am   BACKBONE|DICT|INTERRES
     7    4    5 1    
     8    4   65 1    
     9    5    6 1    
    10    5   25 1    
    11    5   66 1    
    12    6    7 1    
    13    6   67 1    
    14    6   68 1    
    15    7    8 1    
    16    8    9 1    
    17    8   69 1    
    18    8   70 1    
    19    9   10 ar   
    20    9   14 ar   
    21   10   11 ar   
    22   10   71 1    
    23   11   12 ar   
    24   11   61 1    
    25   12   13 ar   
    26   12   72 1    
    27   13   14 ar   
    28   13   15 1    
    29   14   73 1    
    30   15   16 1    
    31   15   74 1    
    32   15   75 1    
    33   16   17 1    
    34   17   18 1    
    35   17   76 1    
    36   17   77 1    
    37   18   19 1    
    38   18   27 1    
    39   18   78 1    
    40   19   20 am   BACKBONE|DICT|INTERRES
    41   19   79 1    
    42   20   21 2    
    43   20   22 1    
    44   22   23 1    
    45   22   24 1    
    46   22   80 1    
    47   23   81 1    
    48   23   82 1    
    49   23   83 1    
    50   24   25 am   BACKBONE|DICT|INTERRES
    51   24   84 1    
    52   25   26 2    
    53   27   28 2    
    54   27   29 am   BACKBONE|DICT|INTERRES
    55   29   30 1    
    56   29   85 1    
    57   30   31 1    
    58   30   32 1    
    59   30   86 1    
    60   31   87 1    
    61   31   88 1    
    62   31   89 1    
    63   32   33 2    
    64   32   34 am   BACKBONE|DICT|INTERRES
    65   34   35 1    
    66   34   90 1    
    67   35   36 1    
    68   35   37 1    
    69   35   91 1    
    70   36   92 1    
    71   36   93 1    
    72   36   94 1    
    73   37   38 2    
    74   37   39 am   BACKBONE|DICT|INTERRES
    75   39   40 1    
    76   39   95 1    
    77   40   41 1    
    78   40   42 1    
    79   40   96 1    
    80   41   97 1    
    81   41   98 1    
    82   41   99 1    
    83   42   43 2    
    84   42   44 am   BACKBONE|DICT|INTERRES
    85   44   45 1    
    86   44  100 1    
    87   45   46 1    
    88   45   47 1    
    89   45  101 1    
    90   46  102 1    
    91   46  103 1    
    92   46  104 1    
    93   47   48 2    
    94   47   49 am   BACKBONE|DICT|INTERRES
    95   49   50 1    
    96   49  105 1    
    97   50   51 1    
    98   50   52 1    
    99   50  106 1    
   100   51  107 1    
   101   51  108 1    
   102   51  109 1    
   103   52   53 2    
   104   52   54 am   BACKBONE|DICT|INTERRES
   105   54   55 1    
   106   54  110 1    
   107   55   56 1    
   108   55   59 1    
   109   55  111 1    
   110   56   57 am   BACKBONE|DICT|INTERRES
   111   56   58 2    
   112   57  112 1    
   113   57  113 1    
   114   59   60 1    
   115   59  114 1    
   116   59  115 1    
   117   60   61 1    
   118   61  116 1    
   119   61  117 1    
@<TRIPOS>SUBSTRUCTURE
     1 UNK         1 GROUP             0       ****    0 ROOT    
