@<TRIPOS>MOLECULE
3R8
117   119    1
SMALL
USER_CHARGES


@<TRIPOS>ATOM
      1 CA         13.3631  -25.2273  -46.1338 C.3       0 UNK        -0.2013 
      2 C          14.8326  -25.4433  -46.4626 C.2       0 UNK         0.4866 
      3 O          15.5518  -24.4779  -46.7192 O.2       0 UNK        -0.5176 
      4 N          15.2856  -26.7035  -46.4559 N.am      1 UNK        -0.4884 
      5 CA         16.6748  -27.0983  -46.7293 C.3       1 UNK         0.0853 
      6 C6         16.7735  -28.5910  -47.1394 C.3       10 UNK        -0.0849 
      7 S7         16.1073  -29.7541  -45.8919 S.3       10 UNK        -0.2776 
      8 C8         17.4984  -30.9074  -45.6486 C.3       10 UNK         0.0316 
      9 C9         18.5749  -30.3632  -44.7163 C.ar      10 UNK        -0.0863 
     10 C10        18.3471  -30.3163  -43.3377 C.ar      10 UNK        -0.1009 
     11 C11        19.3551  -29.9016  -42.4590 C.ar      10 UNK        -0.0712 
     12 C12        20.6011  -29.5345  -42.9753 C.ar      10 UNK        -0.0894 
     13 C13        20.8315  -29.5354  -44.3551 C.ar      10 UNK        -0.0745 
     14 C14        19.8148  -29.9558  -45.2195 C.ar      10 UNK        -0.0972 
     15 C15        22.1868  -29.1168  -44.9145 C.3       10 UNK         0.0209 
     16 S16        22.3189  -27.3211  -45.1970 S.3       10 UNK        -0.2568 
     17 C17        22.6259  -26.6859  -43.5122 C.3       10 UNK        -0.0983 
     18 CA         21.5187  -25.7312  -42.9997 C.3       3 UNK         0.0876 
     19 N          20.1848  -26.3213  -43.1054 N.am      3 UNK        -0.4424 
     20 C          19.0313  -25.6506  -43.0215 C.2       2 UNK         0.4918 
     21 O          18.9452  -24.4248  -42.9205 O.2       2 UNK        -0.4875 
     22 CA         17.7569  -26.5127  -43.0535 C.3       2 UNK         0.0481 
     23 CB         16.7345  -26.0343  -42.0086 C.3       2 UNK        -0.1831 
     24 N          17.0945  -26.6089  -44.3574 N.am      2 UNK        -0.4498 
     25 C          17.6441  -26.7803  -45.5716 C.2       1 UNK         0.5027 
     26 O          18.8482  -26.7323  -45.8163 O.2       1 UNK        -0.4969 
     27 C          21.8077  -25.3235  -41.5411 C.2       3 UNK         0.5005 
     28 O          21.2980  -25.9605  -40.6145 O.2       3 UNK        -0.5279 
     29 N          22.6424  -24.2907  -41.3601 N.am      4 UNK        -0.4463 
     30 CA         23.0264  -23.7665  -40.0455 C.3       4 UNK         0.0283 
     31 CB         23.7350  -22.4126  -40.2158 C.3       4 UNK        -0.1875 
     32 C          23.9026  -24.7338  -39.2299 C.2       4 UNK         0.4949 
     33 O          23.7147  -24.8358  -38.0173 O.2       4 UNK        -0.5039 
     34 N          24.8377  -25.4178  -39.9021 N.am      5 UNK        -0.4663 
     35 CA         25.7928  -26.3491  -39.3006 C.3       5 UNK         0.0242 
     36 CB         26.8400  -25.5858  -38.4571 C.3       5 UNK        -0.1982 
     37 C          26.4364  -27.1992  -40.4053 C.2       5 UNK         0.5017 
     38 O          27.6378  -27.0774  -40.6530 O.2       5 UNK        -0.5012 
     39 N          25.6260  -28.0263  -41.0745 N.am      6 UNK        -0.4439 
     40 CA         26.0639  -28.9639  -42.1071 C.3       6 UNK         0.0297 
     41 CB         26.2067  -28.2433  -43.4620 C.3       6 UNK        -0.2006 
     42 C          25.0614  -30.1187  -42.2038 C.2       6 UNK         0.4892 
     43 O          23.9090  -29.9543  -41.7950 O.2       6 UNK        -0.5089 
     44 N          25.5290  -31.2361  -42.7804 N.am      7 UNK        -0.4243 
     45 CA         24.8167  -32.4923  -43.0559 C.3       7 UNK         0.0196 
     46 CB         23.6418  -32.2503  -44.0292 C.3       7 UNK        -0.2007 
     47 C          24.3587  -33.2513  -41.7947 C.2       7 UNK         0.5020 
     48 O          24.5596  -32.7973  -40.6665 O.2       7 UNK        -0.5147 
     49 N          23.7569  -34.4266  -42.0184 N.am      8 UNK        -0.4734 
     50 CA         23.1423  -35.2511  -40.9734 C.3       8 UNK         0.0238 
     51 CB         23.0506  -36.7049  -41.4664 C.3       8 UNK        -0.1912 
     52 C          21.7524  -34.7404  -40.5513 C.2       8 UNK         0.5038 
     53 O          21.3125  -35.0615  -39.4464 O.2       8 UNK        -0.5046 
     54 N          21.0931  -33.9676  -41.4288 N.am      9 UNK        -0.4200 
     55 CA         19.7262  -33.4486  -41.2688 C.3       9 UNK         0.0839 
     56 C          18.6523  -34.5833  -41.2511 C.2       9 UNK         0.5513 
     57 N          17.4672  -34.3394  -40.7101 N.am      9 UNK        -0.7519 
     58 O          18.8667  -35.6767  -41.7721 O.2       9 UNK        -0.4960 
     59 C59        19.6396  -32.4296  -40.0927 C.3       10 UNK        -0.0876 
     60 S60        18.2651  -31.2374  -40.2416 S.3       10 UNK        -0.2414 
     61 C61        19.0886  -29.7797  -40.9611 C.3       10 UNK         0.0169 
     62 H62        12.8483  -26.1658  -45.9285 H         1 UNK         0.0903 
     63 H63        13.2648  -24.5878  -45.2569 H         1 UNK         0.0903 
     64 H64        12.8598  -24.7405  -46.9687 H         1 UNK         0.0903 
     65 H65        14.6560  -27.4661  -46.2437 H         1 UNK         0.3096 
     66 H66        17.0220  -26.5064  -47.5797 H         1 UNK         0.1121 
     67 H67        16.2199  -28.7476  -48.0664 H         1 UNK         0.0849 
     68 H68        17.8074  -28.8504  -47.3756 H         1 UNK         0.0849 
     69 H69        17.1064  -31.8331  -45.2245 H         1 UNK         0.0865 
     70 H70        17.9215  -31.1823  -46.6161 H         1 UNK         0.0865 
     71 H71        17.3808  -30.6068  -42.9485 H         1 UNK         0.1346 
     72 H72        21.3880  -29.2285  -42.3000 H         1 UNK         0.1412 
     73 H73        19.9958  -29.9777  -46.2854 H         1 UNK         0.1426 
     74 H74        22.3669  -29.6287  -45.8609 H         1 UNK         0.0716 
     75 H75        22.9884  -29.4326  -44.2492 H         1 UNK         0.0716 
     76 H76        23.5808  -26.1583  -43.5371 H         1 UNK         0.0695 
     77 H77        22.7714  -27.5213  -42.8263 H         1 UNK         0.0695 
     78 H78        21.5271  -24.8306  -43.6179 H         1 UNK         0.0983 
     79 H79        20.1566  -27.3202  -43.2545 H         1 UNK         0.3095 
     80 H80        18.0379  -27.5280  -42.7808 H         1 UNK         0.0454 
     81 H81        17.1943  -25.9505  -41.0228 H         1 UNK         0.0851 
     82 H82        16.3272  -25.0548  -42.2624 H         1 UNK         0.0851 
     83 H83        15.9020  -26.7319  -41.9161 H         1 UNK         0.0851 
     84 H84        16.0871  -26.6569  -44.3269 H         1 UNK         0.2976 
     85 H85        23.0242  -23.8181  -42.1677 H         1 UNK         0.3116 
     86 H86        22.1104  -23.5950  -39.4754 H         1 UNK         0.0646 
     87 H87        24.0109  -21.9936  -39.2470 H         1 UNK         0.0847 
     88 H88        23.0898  -21.6847  -40.7080 H         1 UNK         0.0847 
     89 H89        24.6502  -22.5030  -40.8022 H         1 UNK         0.0847 
     90 H90        24.9161  -25.2870  -40.9014 H         1 UNK         0.3040 
     91 H91        25.2528  -27.0328  -38.6415 H         1 UNK         0.1015 
     92 H92        26.3825  -25.0724  -37.6117 H         1 UNK         0.0786 
     93 H93        27.3703  -24.8415  -39.0523 H         1 UNK         0.0786 
     94 H94        27.5850  -26.2689  -38.0469 H         1 UNK         0.0786 
     95 H95        24.6530  -28.1232  -40.8080 H         1 UNK         0.3172 
     96 H96        27.0305  -29.3820  -41.8167 H         1 UNK         0.0595 
     97 H97        26.9076  -27.4107  -43.4026 H         1 UNK         0.0839 
     98 H98        25.2525  -27.8539  -43.8143 H         1 UNK         0.0839 
     99 H99        26.5802  -28.9217  -44.2299 H         1 UNK         0.0839 
    100 H100       26.5045  -31.2425  -43.0446 H         1 UNK         0.2998 
    101 H101       25.5410  -33.1358  -43.5580 H         1 UNK         0.0822 
    102 H102       22.8133  -31.7368  -43.5401 H         1 UNK         0.0787 
    103 H103       23.2508  -33.1865  -44.4280 H         1 UNK         0.0787 
    104 H104       23.9537  -31.6517  -44.8849 H         1 UNK         0.0787 
    105 H105       23.6683  -34.7578  -42.9689 H         1 UNK         0.3055 
    106 H106       23.7796  -35.2314  -40.0859 H         1 UNK         0.1106 
    107 H107       22.4178  -36.7945  -42.3503 H         1 UNK         0.0828 
    108 H108       24.0345  -37.1041  -41.7135 H         1 UNK         0.0828 
    109 H109       22.6254  -37.3507  -40.6967 H         1 UNK         0.0828 
    110 H110       21.5310  -33.7810  -42.3175 H         1 UNK         0.2931 
    111 H111       19.5408  -32.9013  -42.1936 H         1 UNK         0.0412 
    112 H112       17.2719  -33.4313  -40.3137 H         1 UNK         0.3472 
    113 H113       16.7609  -35.0585  -40.7101 H         1 UNK         0.3472 
    114 H114       20.5696  -31.8632  -40.0227 H         1 UNK         0.0970 
    115 H115       19.5479  -32.9529  -39.1393 H         1 UNK         0.0970 
    116 H116       18.4459  -28.9138  -40.7992 H         1 UNK         0.0612 
    117 H117       20.0099  -29.5786  -40.4121 H         1 UNK         0.0612 
@<TRIPOS>BOND
     1    1    2 1    
     2    1   62 1    
     3    1   63 1    
     4    1   64 1    
     5    2    3 2    
     6    2    4 am   BACKBONE|DICT|INTERRES
     7    4    5 1    
     8    4   65 1    
     9    5    6 1    
    10    5   25 1    
    11    5   66 1    
    12    6    7 1    
    13    6   67 1    
    14    6   68 1    
    15    7    8 1    
    16    8    9 1    
    17    8   69 1    
    18    8   70 1    
    19    9   10 ar   
    20    9   14 ar   
    21   10   11 ar   
    22   10   71 1    
    23   11   12 ar   
    24   11   61 1    
    25   12   13 ar   
    26   12   72 1    
    27   13   14 ar   
    28   13   15 1    
    29   14   73 1    
    30   15   16 1    
    31   15   74 1    
    32   15   75 1    
    33   16   17 1    
    34   17   18 1    
    35   17   76 1    
    36   17   77 1    
    37   18   19 1    
    38   18   27 1    
    39   18   78 1    
    40   19   20 am   BACKBONE|DICT|INTERRES
    41   19   79 1    
    42   20   21 2    
    43   20   22 1    
    44   22   23 1    
    45   22   24 1    
    46   22   80 1    
    47   23   81 1    
    48   23   82 1    
    49   23   83 1    
    50   24   25 am   BACKBONE|DICT|INTERRES
    51   24   84 1    
    52   25   26 2    
    53   27   28 2    
    54   27   29 am   BACKBONE|DICT|INTERRES
    55   29   30 1    
    56   29   85 1    
    57   30   31 1    
    58   30   32 1    
    59   30   86 1    
    60   31   87 1    
    61   31   88 1    
    62   31   89 1    
    63   32   33 2    
    64   32   34 am   BACKBONE|DICT|INTERRES
    65   34   35 1    
    66   34   90 1    
    67   35   36 1    
    68   35   37 1    
    69   35   91 1    
    70   36   92 1    
    71   36   93 1    
    72   36   94 1    
    73   37   38 2    
    74   37   39 am   BACKBONE|DICT|INTERRES
    75   39   40 1    
    76   39   95 1    
    77   40   41 1    
    78   40   42 1    
    79   40   96 1    
    80   41   97 1    
    81   41   98 1    
    82   41   99 1    
    83   42   43 2    
    84   42   44 am   BACKBONE|DICT|INTERRES
    85   44   45 1    
    86   44  100 1    
    87   45   46 1    
    88   45   47 1    
    89   45  101 1    
    90   46  102 1    
    91   46  103 1    
    92   46  104 1    
    93   47   48 2    
    94   47   49 am   BACKBONE|DICT|INTERRES
    95   49   50 1    
    96   49  105 1    
    97   50   51 1    
    98   50   52 1    
    99   50  106 1    
   100   51  107 1    
   101   51  108 1    
   102   51  109 1    
   103   52   53 2    
   104   52   54 am   BACKBONE|DICT|INTERRES
   105   54   55 1    
   106   54  110 1    
   107   55   56 1    
   108   55   59 1    
   109   55  111 1    
   110   56   57 am   BACKBONE|DICT|INTERRES
   111   56   58 2    
   112   57  112 1    
   113   57  113 1    
   114   59   60 1    
   115   59  114 1    
   116   59  115 1    
   117   60   61 1    
   118   61  116 1    
   119   61  117 1    
@<TRIPOS>SUBSTRUCTURE
     1 UNK         1 GROUP             0       ****    0 ROOT    
