@<TRIPOS>MOLECULE
3R8
117   119    1
SMALL
USER_CHARGES


@<TRIPOS>ATOM
      1 CA         15.3863  -23.6249  -47.6325 C.3       0 UNK        -0.2013 
      2 C          15.7468  -25.0312  -47.1779 C.2       0 UNK         0.4866 
      3 O          16.1656  -25.8516  -47.9950 O.2       0 UNK        -0.5176 
      4 N          15.5900  -25.3165  -45.8819 N.am      1 UNK        -0.4884 
      5 CA         15.9304  -26.5873  -45.2467 C.3       1 UNK         0.0853 
      6 C6         14.8477  -27.6715  -45.5112 C.3       10 UNK        -0.0849 
      7 S7         15.1981  -29.3574  -44.8913 S.3       10 UNK        -0.2776 
      8 C8         16.5768  -29.9272  -45.9426 C.3       10 UNK         0.0316 
      9 C9         17.9285  -29.5535  -45.3468 C.ar      10 UNK        -0.0863 
     10 C10        18.3530  -30.1389  -44.1487 C.ar      10 UNK        -0.1009 
     11 C11        19.5730  -29.7723  -43.5736 C.ar      10 UNK        -0.0712 
     12 C12        20.3758  -28.8232  -44.2108 C.ar      10 UNK        -0.0894 
     13 C13        19.9614  -28.2263  -45.4039 C.ar      10 UNK        -0.0745 
     14 C14        18.7493  -28.6151  -45.9802 C.ar      10 UNK        -0.0972 
     15 C15        20.8097  -27.1500  -46.0644 C.3       10 UNK         0.0209 
     16 S16        20.4738  -25.5022  -45.3554 S.3       10 UNK        -0.2568 
     17 C17        21.4801  -25.5452  -43.8309 C.3       10 UNK        -0.0983 
     18 CA         20.6751  -25.3966  -42.5084 C.3       3 UNK         0.0876 
     19 N          19.4817  -26.2460  -42.4772 N.am      3 UNK        -0.4424 
     20 C          18.5024  -26.1793  -41.5661 C.2       2 UNK         0.4918 
     21 O          18.4548  -25.3389  -40.6655 O.2       2 UNK        -0.4875 
     22 CA         17.3833  -27.2263  -41.7186 C.3       2 UNK         0.0481 
     23 CB         16.2412  -27.0610  -40.6936 C.3       2 UNK        -0.1831 
     24 N          16.8714  -27.2756  -43.0924 N.am      2 UNK        -0.4498 
     25 C          16.2237  -26.3097  -43.7597 C.2       1 UNK         0.5027 
     26 O          15.8837  -25.2307  -43.2639 O.2       1 UNK        -0.4969 
     27 C          21.6073  -25.6918  -41.3123 C.2       3 UNK         0.5005 
     28 O          21.5520  -26.7815  -40.7355 O.2       3 UNK        -0.5279 
     29 N          22.5025  -24.7405  -41.0098 N.am      4 UNK        -0.4463 
     30 CA         23.6198  -24.9364  -40.0774 C.3       4 UNK         0.0283 
     31 CB         24.1893  -23.5678  -39.6697 C.3       4 UNK        -0.1875 
     32 C          24.7326  -25.8305  -40.6621 C.2       4 UNK         0.4949 
     33 O          25.4859  -26.4360  -39.8993 O.2       4 UNK        -0.5039 
     34 N          24.8199  -25.8897  -41.9988 N.am      5 UNK        -0.4663 
     35 CA         25.7206  -26.7616  -42.7529 C.3       5 UNK         0.0242 
     36 CB         25.7368  -26.3006  -44.2199 C.3       5 UNK        -0.1982 
     37 C          25.2965  -28.2380  -42.6641 C.2       5 UNK         0.5017 
     38 O          24.1106  -28.5265  -42.4907 O.2       5 UNK        -0.5012 
     39 N          26.2768  -29.1399  -42.8133 N.am      6 UNK        -0.4439 
     40 CA         26.1929  -30.6087  -42.7772 C.3       6 UNK         0.0297 
     41 CB         25.2565  -31.1637  -43.8690 C.3       6 UNK        -0.2006 
     42 C          25.8566  -31.1967  -41.3946 C.2       6 UNK         0.4892 
     43 O          26.5459  -32.1208  -40.9623 O.2       6 UNK        -0.5089 
     44 N          24.8223  -30.6623  -40.7310 N.am      7 UNK        -0.4243 
     45 CA         24.3228  -30.9487  -39.3754 C.3       7 UNK         0.0196 
     46 CB         25.3854  -30.6052  -38.3142 C.3       7 UNK        -0.2007 
     47 C          23.7568  -32.3651  -39.1459 C.2       7 UNK         0.5020 
     48 O          22.7841  -32.5049  -38.4054 O.2       7 UNK        -0.5147 
     49 N          24.3474  -33.3863  -39.7780 N.am      8 UNK        -0.4734 
     50 CA         23.9001  -34.7854  -39.7527 C.3       8 UNK         0.0238 
     51 CB         25.0643  -35.6835  -40.2027 C.3       8 UNK        -0.1912 
     52 C          22.6501  -35.0466  -40.6171 C.2       8 UNK         0.5038 
     53 O          22.0455  -36.1136  -40.5010 O.2       8 UNK        -0.5046 
     54 N          22.3045  -34.0783  -41.4717 N.am      9 UNK        -0.4200 
     55 CA         21.0960  -34.0062  -42.3007 C.3       9 UNK         0.0839 
     56 C          19.7674  -34.0623  -41.4934 C.2       9 UNK         0.5513 
     57 N          18.6921  -34.5279  -42.1147 N.am      9 UNK        -0.7519 
     58 O          19.6887  -33.6587  -40.3352 O.2       9 UNK        -0.4960 
     59 C59        21.1504  -32.7614  -43.2295 C.3       10 UNK        -0.0876 
     60 S60        21.6064  -31.2185  -42.3578 S.3       10 UNK        -0.2414 
     61 C61        20.0091  -30.3600  -42.2399 C.3       10 UNK         0.0169 
     62 H62        16.2589  -23.1350  -48.0638 H         1 UNK         0.0903 
     63 H63        14.6069  -23.6648  -48.3930 H         1 UNK         0.0903 
     64 H64        15.0246  -23.0101  -46.8084 H         1 UNK         0.0903 
     65 H65        15.2990  -24.6036  -45.2220 H         1 UNK         0.3096 
     66 H66        16.8697  -26.9051  -45.6892 H         1 UNK         0.1121 
     67 H67        13.8977  -27.3517  -45.0794 H         1 UNK         0.0849 
     68 H68        14.6645  -27.7544  -46.5836 H         1 UNK         0.0849 
     69 H69        16.5222  -31.0129  -46.0345 H         1 UNK         0.0865 
     70 H70        16.4628  -29.5308  -46.9530 H         1 UNK         0.0865 
     71 H71        17.7208  -30.8651  -43.6550 H         1 UNK         0.1346 
     72 H72        21.3198  -28.5469  -43.7605 H         1 UNK         0.1412 
     73 H73        18.4313  -28.1610  -46.9097 H         1 UNK         0.1426 
     74 H74        20.5985  -27.1158  -47.1343 H         1 UNK         0.0716 
     75 H75        21.8703  -27.3911  -45.9765 H         1 UNK         0.0716 
     76 H76        22.2045  -24.7330  -43.9115 H         1 UNK         0.0695 
     77 H77        22.0781  -26.4576  -43.8229 H         1 UNK         0.0695 
     78 H78        20.3334  -24.3625  -42.4250 H         1 UNK         0.0983 
     79 H79        19.4392  -26.9641  -43.1857 H         1 UNK         0.3095 
     80 H80        17.8451  -28.1967  -41.5325 H         1 UNK         0.0454 
     81 H81        16.6190  -27.1551  -39.6750 H         1 UNK         0.0851 
     82 H82        15.4754  -27.8249  -40.8269 H         1 UNK         0.0851 
     83 H83        15.7598  -26.0859  -40.7689 H         1 UNK         0.0851 
     84 H84        17.0731  -28.1304  -43.5972 H         1 UNK         0.2976 
     85 H85        22.4763  -23.8613  -41.5077 H         1 UNK         0.3116 
     86 H86        23.2401  -25.4280  -39.1789 H         1 UNK         0.0646 
     87 H87        24.5862  -23.0214  -40.5262 H         1 UNK         0.0847 
     88 H88        23.4299  -22.9461  -39.1952 H         1 UNK         0.0847 
     89 H89        25.0037  -23.6836  -38.9531 H         1 UNK         0.0847 
     90 H90        24.1435  -25.3726  -42.5375 H         1 UNK         0.3040 
     91 H91        26.7245  -26.6573  -42.3347 H         1 UNK         0.1015 
     92 H92        26.4254  -26.9034  -44.8138 H         1 UNK         0.0786 
     93 H93        26.0607  -25.2633  -44.3075 H         1 UNK         0.0786 
     94 H94        24.7514  -26.3854  -44.6807 H         1 UNK         0.0786 
     95 H95        27.2147  -28.7822  -42.9361 H         1 UNK         0.3172 
     96 H96        27.1989  -30.9567  -43.0180 H         1 UNK         0.0595 
     97 H97        24.2246  -30.8423  -43.7314 H         1 UNK         0.0839 
     98 H98        25.2568  -32.2545  -43.8650 H         1 UNK         0.0839 
     99 H99        25.5739  -30.8438  -44.8612 H         1 UNK         0.0839 
    100 H100       24.3184  -29.9300  -41.2283 H         1 UNK         0.2998 
    101 H101       23.4862  -30.2622  -39.2327 H         1 UNK         0.0822 
    102 H102       24.9829  -30.7239  -37.3073 H         1 UNK         0.0787 
    103 H103       25.7193  -29.5717  -38.4100 H         1 UNK         0.0787 
    104 H104       26.2613  -31.2502  -38.3910 H         1 UNK         0.0787 
    105 H105       25.1814  -33.1696  -40.3206 H         1 UNK         0.3055 
    106 H106       23.6389  -35.0457  -38.7245 H         1 UNK         0.1106 
    107 H107       25.9330  -35.5608  -39.5556 H         1 UNK         0.0828 
    108 H108       24.7830  -36.7370  -40.1680 H         1 UNK         0.0828 
    109 H109       25.3730  -35.4613  -41.2250 H         1 UNK         0.0828 
    110 H110       22.8531  -33.2317  -41.4517 H         1 UNK         0.2931 
    111 H111       21.1143  -34.8935  -42.9365 H         1 UNK         0.0412 
    112 H112       18.7393  -34.8585  -43.0662 H         1 UNK         0.3472 
    113 H113       17.8162  -34.5628  -41.6166 H         1 UNK         0.3472 
    114 H114       21.9041  -32.9263  -44.0007 H         1 UNK         0.0970 
    115 H115       20.2130  -32.6265  -43.7726 H         1 UNK         0.0970 
    116 H116       20.1070  -29.5491  -41.5166 H         1 UNK         0.0612 
    117 H117       19.2572  -31.0419  -41.8402 H         1 UNK         0.0612 
@<TRIPOS>BOND
     1    1    2 1    
     2    1   62 1    
     3    1   63 1    
     4    1   64 1    
     5    2    3 2    
     6    2    4 am   BACKBONE|DICT|INTERRES
     7    4    5 1    
     8    4   65 1    
     9    5    6 1    
    10    5   25 1    
    11    5   66 1    
    12    6    7 1    
    13    6   67 1    
    14    6   68 1    
    15    7    8 1    
    16    8    9 1    
    17    8   69 1    
    18    8   70 1    
    19    9   10 ar   
    20    9   14 ar   
    21   10   11 ar   
    22   10   71 1    
    23   11   12 ar   
    24   11   61 1    
    25   12   13 ar   
    26   12   72 1    
    27   13   14 ar   
    28   13   15 1    
    29   14   73 1    
    30   15   16 1    
    31   15   74 1    
    32   15   75 1    
    33   16   17 1    
    34   17   18 1    
    35   17   76 1    
    36   17   77 1    
    37   18   19 1    
    38   18   27 1    
    39   18   78 1    
    40   19   20 am   BACKBONE|DICT|INTERRES
    41   19   79 1    
    42   20   21 2    
    43   20   22 1    
    44   22   23 1    
    45   22   24 1    
    46   22   80 1    
    47   23   81 1    
    48   23   82 1    
    49   23   83 1    
    50   24   25 am   BACKBONE|DICT|INTERRES
    51   24   84 1    
    52   25   26 2    
    53   27   28 2    
    54   27   29 am   BACKBONE|DICT|INTERRES
    55   29   30 1    
    56   29   85 1    
    57   30   31 1    
    58   30   32 1    
    59   30   86 1    
    60   31   87 1    
    61   31   88 1    
    62   31   89 1    
    63   32   33 2    
    64   32   34 am   BACKBONE|DICT|INTERRES
    65   34   35 1    
    66   34   90 1    
    67   35   36 1    
    68   35   37 1    
    69   35   91 1    
    70   36   92 1    
    71   36   93 1    
    72   36   94 1    
    73   37   38 2    
    74   37   39 am   BACKBONE|DICT|INTERRES
    75   39   40 1    
    76   39   95 1    
    77   40   41 1    
    78   40   42 1    
    79   40   96 1    
    80   41   97 1    
    81   41   98 1    
    82   41   99 1    
    83   42   43 2    
    84   42   44 am   BACKBONE|DICT|INTERRES
    85   44   45 1    
    86   44  100 1    
    87   45   46 1    
    88   45   47 1    
    89   45  101 1    
    90   46  102 1    
    91   46  103 1    
    92   46  104 1    
    93   47   48 2    
    94   47   49 am   BACKBONE|DICT|INTERRES
    95   49   50 1    
    96   49  105 1    
    97   50   51 1    
    98   50   52 1    
    99   50  106 1    
   100   51  107 1    
   101   51  108 1    
   102   51  109 1    
   103   52   53 2    
   104   52   54 am   BACKBONE|DICT|INTERRES
   105   54   55 1    
   106   54  110 1    
   107   55   56 1    
   108   55   59 1    
   109   55  111 1    
   110   56   57 am   BACKBONE|DICT|INTERRES
   111   56   58 2    
   112   57  112 1    
   113   57  113 1    
   114   59   60 1    
   115   59  114 1    
   116   59  115 1    
   117   60   61 1    
   118   61  116 1    
   119   61  117 1    
@<TRIPOS>SUBSTRUCTURE
     1 UNK         1 GROUP             0       ****    0 ROOT    
