@<TRIPOS>MOLECULE
3R8
117   119    1
SMALL
USER_CHARGES


@<TRIPOS>ATOM
      1 CA         15.9798  -28.8692  -40.3656 C.3       0 UNK        -0.2013 
      2 C          16.4735  -27.5868  -41.0195 C.2       0 UNK         0.4866 
      3 O          16.7319  -26.6048  -40.3236 O.2       0 UNK        -0.5176 
      4 N          16.5864  -27.5812  -42.3543 N.am      1 UNK        -0.4884 
      5 CA         16.8762  -26.3890  -43.1655 C.3       1 UNK         0.0853 
      6 C6         16.1327  -26.4003  -44.5298 C.3       10 UNK        -0.0849 
      7 S7         14.3525  -26.8167  -44.3602 S.3       10 UNK        -0.2776 
      8 C8         14.1070  -28.2831  -45.4271 C.3       10 UNK         0.0316 
      9 C9         15.2460  -29.2900  -45.3404 C.ar      10 UNK        -0.0863 
     10 C10        15.4389  -30.0627  -44.1919 C.ar      10 UNK        -0.1009 
     11 C11        16.5434  -30.9163  -44.0810 C.ar      10 UNK        -0.0712 
     12 C12        17.4464  -31.0029  -45.1510 C.ar      10 UNK        -0.0894 
     13 C13        17.2405  -30.2608  -46.3167 C.ar      10 UNK        -0.0745 
     14 C14        16.1358  -29.4147  -46.4085 C.ar      10 UNK        -0.0972 
     15 C15        18.2148  -30.3401  -47.4788 C.3       10 UNK         0.0209 
     16 S16        19.3790  -28.9437  -47.4418 S.3       10 UNK        -0.2568 
     17 C17        20.7907  -29.6854  -46.5670 C.3       10 UNK        -0.0983 
     18 CA         21.6453  -28.6177  -45.8432 C.3       3 UNK         0.0876 
     19 N          20.9887  -28.1098  -44.6281 N.am      3 UNK        -0.4424 
     20 C          21.4412  -27.0849  -43.8910 C.2       2 UNK         0.4918 
     21 O          22.4394  -26.4264  -44.1859 O.2       2 UNK        -0.4875 
     22 CA         20.6997  -26.7983  -42.5754 C.3       2 UNK         0.0481 
     23 CB         21.1154  -25.4668  -41.9149 C.3       2 UNK        -0.1831 
     24 N          19.2410  -26.9235  -42.6686 N.am      2 UNK        -0.4498 
     25 C          18.3914  -26.1260  -43.3360 C.2       1 UNK         0.5027 
     26 O          18.7573  -25.1934  -44.0528 O.2       1 UNK        -0.4969 
     27 C          23.0658  -29.1661  -45.5811 C.2       3 UNK         0.5005 
     28 O          23.9147  -29.0836  -46.4701 O.2       3 UNK        -0.5279 
     29 N          23.3091  -29.6976  -44.3740 N.am      4 UNK        -0.4463 
     30 CA         24.6209  -30.1815  -43.9347 C.3       4 UNK         0.0283 
     31 CB         24.4272  -31.2274  -42.8251 C.3       4 UNK        -0.1875 
     32 C          25.5661  -29.0564  -43.4708 C.2       4 UNK         0.4949 
     33 O          26.7484  -29.3298  -43.2609 O.2       4 UNK        -0.5039 
     34 N          25.0442  -27.8306  -43.2983 N.am      5 UNK        -0.4663 
     35 CA         25.6975  -26.5880  -42.8559 C.3       5 UNK         0.0242 
     36 CB         26.8055  -26.1527  -43.8345 C.3       5 UNK        -0.1982 
     37 C          26.2104  -26.6203  -41.4053 C.2       5 UNK         0.5017 
     38 O          25.8695  -25.7341  -40.6221 O.2       5 UNK        -0.5012 
     39 N          26.9981  -27.6473  -41.0686 N.am      6 UNK        -0.4439 
     40 CA         27.5077  -27.9348  -39.7258 C.3       6 UNK         0.0297 
     41 CB         28.7508  -28.8309  -39.8520 C.3       6 UNK        -0.2006 
     42 C          26.4585  -28.5950  -38.8100 C.2       6 UNK         0.4892 
     43 O          26.6924  -28.6929  -37.6047 O.2       6 UNK        -0.5089 
     44 N          25.3361  -29.0390  -39.3859 N.am      7 UNK        -0.4243 
     45 CA         24.1963  -29.6387  -38.7048 C.3       7 UNK         0.0196 
     46 CB         24.3576  -31.1692  -38.6804 C.3       7 UNK        -0.2007 
     47 C          22.9189  -29.2238  -39.4424 C.2       7 UNK         0.5020 
     48 O          22.9879  -28.7827  -40.5932 O.2       7 UNK        -0.5147 
     49 N          21.7734  -29.3874  -38.7694 N.am      8 UNK        -0.4734 
     50 CA         20.4464  -29.0395  -39.2886 C.3       8 UNK         0.0238 
     51 CB         19.4289  -29.0659  -38.1373 C.3       8 UNK        -0.1912 
     52 C          19.9742  -29.9399  -40.4443 C.2       8 UNK         0.5038 
     53 O          19.1834  -29.4837  -41.2692 O.2       8 UNK        -0.5046 
     54 N          20.4652  -31.1819  -40.4926 N.am      9 UNK        -0.4200 
     55 CA         20.1751  -32.1695  -41.5354 C.3       9 UNK         0.0839 
     56 C          21.3601  -33.1543  -41.7047 C.2       9 UNK         0.5513 
     57 N          21.3565  -33.9474  -42.7659 N.am      9 UNK        -0.7519 
     58 O          22.2729  -33.2139  -40.8829 O.2       9 UNK        -0.4960 
     59 C59        18.8162  -32.8933  -41.2964 C.3       10 UNK        -0.0876 
     60 S60        17.8741  -33.1058  -42.8447 S.3       10 UNK        -0.2414 
     61 C61        16.7544  -31.6639  -42.7647 C.3       10 UNK         0.0169 
     62 H62        15.3611  -29.4519  -41.0463 H         1 UNK         0.0903 
     63 H63        16.8170  -29.4871  -40.0467 H         1 UNK         0.0903 
     64 H64        15.3768  -28.6372  -39.4882 H         1 UNK         0.0903 
     65 H65        16.3825  -28.4185  -42.8828 H         1 UNK         0.3096 
     66 H66        16.4982  -25.5199  -42.6218 H         1 UNK         0.1121 
     67 H67        16.6288  -27.0706  -45.2295 H         1 UNK         0.0849 
     68 H68        16.1928  -25.4129  -44.9914 H         1 UNK         0.0849 
     69 H69        13.1714  -28.7704  -45.1493 H         1 UNK         0.0865 
     70 H70        13.9741  -27.9442  -46.4558 H         1 UNK         0.0865 
     71 H71        14.7419  -29.9705  -43.3699 H         1 UNK         0.1346 
     72 H72        18.3197  -31.6351  -45.0831 H         1 UNK         0.1412 
     73 H73        15.9941  -28.8211  -47.3018 H         1 UNK         0.1426 
     74 H74        17.6623  -30.3107  -48.4193 H         1 UNK         0.0716 
     75 H75        18.7541  -31.2887  -47.4755 H         1 UNK         0.0716 
     76 H76        21.3753  -30.2181  -47.3205 H         1 UNK         0.0695 
     77 H77        20.4423  -30.4411  -45.8607 H         1 UNK         0.0695 
     78 H78        21.7752  -27.7671  -46.5166 H         1 UNK         0.0983 
     79 H79        20.1480  -28.5852  -44.3335 H         1 UNK         0.3095 
     80 H80        21.0197  -27.5905  -41.9031 H         1 UNK         0.0454 
     81 H81        20.9092  -24.6110  -42.5580 H         1 UNK         0.0851 
     82 H82        22.1843  -25.4582  -41.6969 H         1 UNK         0.0851 
     83 H83        20.5941  -25.3129  -40.9703 H         1 UNK         0.0851 
     84 H84        18.8437  -27.6960  -42.1409 H         1 UNK         0.2976 
     85 H85        22.5615  -29.7243  -43.6956 H         1 UNK         0.3116 
     86 H86        25.1117  -30.6787  -44.7742 H         1 UNK         0.0646 
     87 H87        23.8720  -30.8260  -41.9788 H         1 UNK         0.0847 
     88 H88        25.3852  -31.5859  -42.4460 H         1 UNK         0.0847 
     89 H89        23.8858  -32.0976  -43.1958 H         1 UNK         0.0847 
     90 H90        24.0592  -27.7197  -43.5059 H         1 UNK         0.3040 
     91 H91        24.9187  -25.8237  -42.8894 H         1 UNK         0.1015 
     92 H92        27.6313  -26.8639  -43.8660 H         1 UNK         0.0786 
     93 H93        27.2217  -25.1869  -43.5449 H         1 UNK         0.0786 
     94 H94        26.4168  -26.0469  -44.8474 H         1 UNK         0.0786 
     95 H95        27.1804  -28.3382  -41.7955 H         1 UNK         0.3172 
     96 H96        27.8078  -26.9951  -39.2574 H         1 UNK         0.0595 
     97 H97        28.5123  -29.7877  -40.3186 H         1 UNK         0.0839 
     98 H98        29.1816  -29.0439  -38.8726 H         1 UNK         0.0839 
     99 H99        29.5273  -28.3510  -40.4479 H         1 UNK         0.0839 
    100 H100       25.1788  -28.8454  -40.3664 H         1 UNK         0.2998 
    101 H101       24.1374  -29.2578  -37.6827 H         1 UNK         0.0822 
    102 H102       25.2659  -31.4618  -38.1534 H         1 UNK         0.0787 
    103 H103       23.5212  -31.6485  -38.1707 H         1 UNK         0.0787 
    104 H104       24.4080  -31.5870  -39.6865 H         1 UNK         0.0787 
    105 H105       21.8090  -29.7587  -37.8302 H         1 UNK         0.3055 
    106 H106       20.4940  -28.0173  -39.6692 H         1 UNK         0.1106 
    107 H107       19.3029  -30.0692  -37.7284 H         1 UNK         0.0828 
    108 H108       18.4502  -28.7237  -38.4746 H         1 UNK         0.0828 
    109 H109       19.7313  -28.4060  -37.3240 H         1 UNK         0.0828 
    110 H110       21.1581  -31.4710  -39.8157 H         1 UNK         0.2931 
    111 H111       20.1294  -31.6100  -42.4726 H         1 UNK         0.0412 
    112 H112       22.1122  -34.6021  -42.8933 H         1 UNK         0.3472 
    113 H113       20.5949  -33.9218  -43.4264 H         1 UNK         0.3472 
    114 H114       18.1972  -32.3451  -40.5846 H         1 UNK         0.0970 
    115 H115       18.9593  -33.8735  -40.8372 H         1 UNK         0.0970 
    116 H116       15.7949  -32.0016  -42.3700 H         1 UNK         0.0612 
    117 H117       17.1466  -30.9421  -42.0506 H         1 UNK         0.0612 
@<TRIPOS>BOND
     1    1    2 1    
     2    1   62 1    
     3    1   63 1    
     4    1   64 1    
     5    2    3 2    
     6    2    4 am   BACKBONE|DICT|INTERRES
     7    4    5 1    
     8    4   65 1    
     9    5    6 1    
    10    5   25 1    
    11    5   66 1    
    12    6    7 1    
    13    6   67 1    
    14    6   68 1    
    15    7    8 1    
    16    8    9 1    
    17    8   69 1    
    18    8   70 1    
    19    9   10 ar   
    20    9   14 ar   
    21   10   11 ar   
    22   10   71 1    
    23   11   12 ar   
    24   11   61 1    
    25   12   13 ar   
    26   12   72 1    
    27   13   14 ar   
    28   13   15 1    
    29   14   73 1    
    30   15   16 1    
    31   15   74 1    
    32   15   75 1    
    33   16   17 1    
    34   17   18 1    
    35   17   76 1    
    36   17   77 1    
    37   18   19 1    
    38   18   27 1    
    39   18   78 1    
    40   19   20 am   BACKBONE|DICT|INTERRES
    41   19   79 1    
    42   20   21 2    
    43   20   22 1    
    44   22   23 1    
    45   22   24 1    
    46   22   80 1    
    47   23   81 1    
    48   23   82 1    
    49   23   83 1    
    50   24   25 am   BACKBONE|DICT|INTERRES
    51   24   84 1    
    52   25   26 2    
    53   27   28 2    
    54   27   29 am   BACKBONE|DICT|INTERRES
    55   29   30 1    
    56   29   85 1    
    57   30   31 1    
    58   30   32 1    
    59   30   86 1    
    60   31   87 1    
    61   31   88 1    
    62   31   89 1    
    63   32   33 2    
    64   32   34 am   BACKBONE|DICT|INTERRES
    65   34   35 1    
    66   34   90 1    
    67   35   36 1    
    68   35   37 1    
    69   35   91 1    
    70   36   92 1    
    71   36   93 1    
    72   36   94 1    
    73   37   38 2    
    74   37   39 am   BACKBONE|DICT|INTERRES
    75   39   40 1    
    76   39   95 1    
    77   40   41 1    
    78   40   42 1    
    79   40   96 1    
    80   41   97 1    
    81   41   98 1    
    82   41   99 1    
    83   42   43 2    
    84   42   44 am   BACKBONE|DICT|INTERRES
    85   44   45 1    
    86   44  100 1    
    87   45   46 1    
    88   45   47 1    
    89   45  101 1    
    90   46  102 1    
    91   46  103 1    
    92   46  104 1    
    93   47   48 2    
    94   47   49 am   BACKBONE|DICT|INTERRES
    95   49   50 1    
    96   49  105 1    
    97   50   51 1    
    98   50   52 1    
    99   50  106 1    
   100   51  107 1    
   101   51  108 1    
   102   51  109 1    
   103   52   53 2    
   104   52   54 am   BACKBONE|DICT|INTERRES
   105   54   55 1    
   106   54  110 1    
   107   55   56 1    
   108   55   59 1    
   109   55  111 1    
   110   56   57 am   BACKBONE|DICT|INTERRES
   111   56   58 2    
   112   57  112 1    
   113   57  113 1    
   114   59   60 1    
   115   59  114 1    
   116   59  115 1    
   117   60   61 1    
   118   61  116 1    
   119   61  117 1    
@<TRIPOS>SUBSTRUCTURE
     1 UNK         1 GROUP             0       ****    0 ROOT    
