@<TRIPOS>MOLECULE
3R8
117   119    1
SMALL
USER_CHARGES


@<TRIPOS>ATOM
      1 CA         16.3216  -23.9538  -49.4309 C.3       0 UNK        -0.2013 
      2 C          17.3277  -24.8920  -48.7808 C.2       0 UNK         0.4866 
      3 O          18.5020  -24.8840  -49.1524 O.2       0 UNK        -0.5176 
      4 N          16.8755  -25.7067  -47.8203 N.am      1 UNK        -0.4884 
      5 CA         17.7111  -26.6173  -47.0312 C.3       1 UNK         0.0853 
      6 C6         16.8752  -27.7791  -46.4277 C.3       10 UNK        -0.0849 
      7 S7         15.5252  -27.2322  -45.3250 S.3       10 UNK        -0.2776 
      8 C8         14.7619  -28.8239  -44.8790 C.3       10 UNK         0.0316 
      9 C9         15.6310  -29.6612  -43.9472 C.ar      10 UNK        -0.0863 
     10 C10        16.0712  -30.9293  -44.3418 C.ar      10 UNK        -0.1009 
     11 C11        16.7940  -31.7420  -43.4615 C.ar      10 UNK        -0.0712 
     12 C12        17.0897  -31.2633  -42.1795 C.ar      10 UNK        -0.0894 
     13 C13        16.6723  -29.9909  -41.7778 C.ar      10 UNK        -0.0745 
     14 C14        15.9392  -29.1970  -42.6643 C.ar      10 UNK        -0.0972 
     15 C15        16.9742  -29.4928  -40.3703 C.3       10 UNK         0.0209 
     16 S16        18.2776  -28.2225  -40.3452 S.3       10 UNK        -0.2568 
     17 C17        19.7387  -29.1937  -40.8556 C.3       10 UNK        -0.0983 
     18 CA         21.0059  -28.3417  -41.1467 C.3       3 UNK         0.0876 
     19 N          20.7719  -27.2634  -42.1030 N.am      3 UNK        -0.4424 
     20 C          20.5351  -27.4259  -43.4038 C.2       2 UNK         0.4918 
     21 O          20.5239  -28.5202  -43.9695 O.2       2 UNK        -0.4875 
     22 CA         20.2828  -26.1549  -44.2202 C.3       2 UNK         0.0481 
     23 CB         21.6047  -25.4965  -44.6495 C.3       2 UNK        -0.1831 
     24 N          19.5207  -26.5485  -45.3986 N.am      2 UNK        -0.4498 
     25 C          18.5159  -25.8631  -45.9486 C.2       1 UNK         0.5027 
     26 O          18.2005  -24.7180  -45.6102 O.2       1 UNK        -0.4969 
     27 C          21.6184  -27.7252  -39.8784 C.2       3 UNK         0.5005 
     28 O          21.6397  -26.4964  -39.7462 O.2       3 UNK        -0.5279 
     29 N          22.1352  -28.5832  -38.9883 N.am      4 UNK        -0.4463 
     30 CA         22.8012  -28.2848  -37.7122 C.3       4 UNK         0.0283 
     31 CB         21.8935  -27.4977  -36.7453 C.3       4 UNK        -0.1875 
     32 C          24.1670  -27.6107  -37.9103 C.2       4 UNK         0.4949 
     33 O          25.1896  -28.2285  -37.6188 O.2       4 UNK        -0.5039 
     34 N          24.1717  -26.3987  -38.4796 N.am      5 UNK        -0.4663 
     35 CA         25.3755  -25.7024  -38.9480 C.3       5 UNK         0.0242 
     36 CB         25.0265  -24.2423  -39.2767 C.3       5 UNK        -0.1982 
     37 C          26.0035  -26.4011  -40.1677 C.2       5 UNK         0.5017 
     38 O          27.2277  -26.4468  -40.2829 O.2       5 UNK        -0.5012 
     39 N          25.1435  -26.9728  -41.0222 N.am      6 UNK        -0.4439 
     40 CA         25.5051  -27.8401  -42.1474 C.3       6 UNK         0.0297 
     41 CB         24.5109  -27.5971  -43.2969 C.3       6 UNK        -0.2006 
     42 C          25.5421  -29.3343  -41.7594 C.2       6 UNK         0.4892 
     43 O          25.7218  -30.1717  -42.6427 O.2       6 UNK        -0.5089 
     44 N          25.3686  -29.6438  -40.4645 N.am      7 UNK        -0.4243 
     45 CA         25.2335  -30.9777  -39.8729 C.3       7 UNK         0.0196 
     46 CB         26.5198  -31.8161  -40.0629 C.3       7 UNK        -0.2007 
     47 C          23.9334  -31.6689  -40.3289 C.2       7 UNK         0.5020 
     48 O          22.8677  -31.0499  -40.2587 O.2       7 UNK        -0.5147 
     49 N          24.0218  -32.9414  -40.7321 N.am      8 UNK        -0.4734 
     50 CA         22.8951  -33.7809  -41.1378 C.3       8 UNK         0.0238 
     51 CB         23.3070  -35.2597  -41.0109 C.3       8 UNK        -0.1912 
     52 C          22.4060  -33.4336  -42.5555 C.2       8 UNK         0.5038 
     53 O          22.7870  -34.1070  -43.5158 O.2       8 UNK        -0.5046 
     54 N          21.5617  -32.3992  -42.6443 N.am      9 UNK        -0.4200 
     55 CA         20.8934  -31.9185  -43.8670 C.3       9 UNK         0.0839 
     56 C          21.8823  -31.2938  -44.9014 C.2       9 UNK         0.5513 
     57 N          21.4675  -31.0968  -46.1474 N.am      9 UNK        -0.7519 
     58 O          23.0179  -30.9486  -44.5845 O.2       9 UNK        -0.4960 
     59 C59        19.9321  -32.9751  -44.4947 C.3       10 UNK        -0.0876 
     60 S60        18.7866  -33.7392  -43.2937 S.3       10 UNK        -0.2414 
     61 C61        17.1558  -33.1663  -43.8787 C.3       10 UNK         0.0169 
     62 H62        15.3193  -24.0847  -49.0234 H         1 UNK         0.0903 
     63 H63        16.6192  -22.9176  -49.2726 H         1 UNK         0.0903 
     64 H64        16.2773  -24.1358  -50.5044 H         1 UNK         0.0903 
     65 H65        15.9116  -25.6470  -47.5224 H         1 UNK         0.3096 
     66 H66        18.4432  -27.0617  -47.7101 H         1 UNK         0.1121 
     67 H67        17.5158  -28.4725  -45.8790 H         1 UNK         0.0849 
     68 H68        16.4370  -28.3655  -47.2369 H         1 UNK         0.0849 
     69 H69        13.8101  -28.6266  -44.3837 H         1 UNK         0.0865 
     70 H70        14.5191  -29.3730  -45.7902 H         1 UNK         0.0865 
     71 H71        15.8157  -31.3020  -45.3245 H         1 UNK         0.1346 
     72 H72        17.6295  -31.8900  -41.4832 H         1 UNK         0.1412 
     73 H73        15.5975  -28.2196  -42.3509 H         1 UNK         0.1426 
     74 H74        17.2659  -30.3185  -39.7192 H         1 UNK         0.0716 
     75 H75        16.0661  -29.0713  -39.9369 H         1 UNK         0.0716 
     76 H76        19.4751  -29.7479  -41.7557 H         1 UNK         0.0695 
     77 H77        19.9417  -29.9515  -40.0970 H         1 UNK         0.0695 
     78 H78        21.7675  -28.9968  -41.5755 H         1 UNK         0.0983 
     79 H79        20.7980  -26.3407  -41.6857 H         1 UNK         0.3095 
     80 H80        19.7030  -25.4594  -43.6095 H         1 UNK         0.0454 
     81 H81        21.4252  -24.6080  -45.2548 H         1 UNK         0.0851 
     82 H82        22.2241  -26.1792  -45.2327 H         1 UNK         0.0851 
     83 H83        22.1874  -25.1848  -43.7820 H         1 UNK         0.0851 
     84 H84        19.6834  -27.5098  -45.6744 H         1 UNK         0.2976 
     85 H85        22.1622  -29.5644  -39.2604 H         1 UNK         0.3116 
     86 H86        22.9948  -29.2546  -37.2504 H         1 UNK         0.0646 
     87 H87        21.6462  -26.5035  -37.1175 H         1 UNK         0.0847 
     88 H88        22.3809  -27.3663  -35.7784 H         1 UNK         0.0847 
     89 H89        20.9576  -28.0268  -36.5659 H         1 UNK         0.0847 
     90 H90        23.2712  -26.0097  -38.7463 H         1 UNK         0.3040 
     91 H91        26.1140  -25.7104  -38.1429 H         1 UNK         0.1015 
     92 H92        24.2744  -24.1717  -40.0637 H         1 UNK         0.0786 
     93 H93        25.9084  -23.6976  -39.6172 H         1 UNK         0.0786 
     94 H94        24.6434  -23.7203  -38.3996 H         1 UNK         0.0786 
     95 H95        24.1581  -26.8543  -40.8381 H         1 UNK         0.3172 
     96 H96        26.5026  -27.5745  -42.5034 H         1 UNK         0.0595 
     97 H97        23.5024  -27.9131  -43.0327 H         1 UNK         0.0839 
     98 H98        24.7972  -28.1590  -44.1871 H         1 UNK         0.0839 
     99 H99        24.4756  -26.5449  -43.5792 H         1 UNK         0.0839 
    100 H100       25.2673  -28.8802  -39.8102 H         1 UNK         0.2998 
    101 H101       25.1146  -30.8143  -38.8008 H         1 UNK         0.0822 
    102 H102       27.3962  -31.2663  -39.7194 H         1 UNK         0.0787 
    103 H103       26.4802  -32.7386  -39.4822 H         1 UNK         0.0787 
    104 H104       26.6905  -32.0861  -41.1056 H         1 UNK         0.0787 
    105 H105       24.9392  -33.3590  -40.7922 H         1 UNK         0.3055 
    106 H106       22.0643  -33.6127  -40.4479 H         1 UNK         0.1106 
    107 H107       22.4904  -35.9178  -41.3112 H         1 UNK         0.0828 
    108 H108       24.1656  -35.4991  -41.6396 H         1 UNK         0.0828 
    109 H109       23.5636  -35.5134  -39.9822 H         1 UNK         0.0828 
    110 H110       21.4003  -31.8537  -41.8093 H         1 UNK         0.2931 
    111 H111       20.2720  -31.0896  -43.5320 H         1 UNK         0.0412 
    112 H112       22.1034  -30.6781  -46.8076 H         1 UNK         0.3472 
    113 H113       20.5331  -31.3357  -46.4358 H         1 UNK         0.3472 
    114 H114       20.5055  -33.7755  -44.9653 H         1 UNK         0.0970 
    115 H115       19.3423  -32.5222  -45.2923 H         1 UNK         0.0970 
    116 H116       16.3980  -33.8352  -43.4692 H         1 UNK         0.0612 
    117 H117       17.1058  -33.2802  -44.9626 H         1 UNK         0.0612 
@<TRIPOS>BOND
     1    1    2 1    
     2    1   62 1    
     3    1   63 1    
     4    1   64 1    
     5    2    3 2    
     6    2    4 am   BACKBONE|DICT|INTERRES
     7    4    5 1    
     8    4   65 1    
     9    5    6 1    
    10    5   25 1    
    11    5   66 1    
    12    6    7 1    
    13    6   67 1    
    14    6   68 1    
    15    7    8 1    
    16    8    9 1    
    17    8   69 1    
    18    8   70 1    
    19    9   10 ar   
    20    9   14 ar   
    21   10   11 ar   
    22   10   71 1    
    23   11   12 ar   
    24   11   61 1    
    25   12   13 ar   
    26   12   72 1    
    27   13   14 ar   
    28   13   15 1    
    29   14   73 1    
    30   15   16 1    
    31   15   74 1    
    32   15   75 1    
    33   16   17 1    
    34   17   18 1    
    35   17   76 1    
    36   17   77 1    
    37   18   19 1    
    38   18   27 1    
    39   18   78 1    
    40   19   20 am   BACKBONE|DICT|INTERRES
    41   19   79 1    
    42   20   21 2    
    43   20   22 1    
    44   22   23 1    
    45   22   24 1    
    46   22   80 1    
    47   23   81 1    
    48   23   82 1    
    49   23   83 1    
    50   24   25 am   BACKBONE|DICT|INTERRES
    51   24   84 1    
    52   25   26 2    
    53   27   28 2    
    54   27   29 am   BACKBONE|DICT|INTERRES
    55   29   30 1    
    56   29   85 1    
    57   30   31 1    
    58   30   32 1    
    59   30   86 1    
    60   31   87 1    
    61   31   88 1    
    62   31   89 1    
    63   32   33 2    
    64   32   34 am   BACKBONE|DICT|INTERRES
    65   34   35 1    
    66   34   90 1    
    67   35   36 1    
    68   35   37 1    
    69   35   91 1    
    70   36   92 1    
    71   36   93 1    
    72   36   94 1    
    73   37   38 2    
    74   37   39 am   BACKBONE|DICT|INTERRES
    75   39   40 1    
    76   39   95 1    
    77   40   41 1    
    78   40   42 1    
    79   40   96 1    
    80   41   97 1    
    81   41   98 1    
    82   41   99 1    
    83   42   43 2    
    84   42   44 am   BACKBONE|DICT|INTERRES
    85   44   45 1    
    86   44  100 1    
    87   45   46 1    
    88   45   47 1    
    89   45  101 1    
    90   46  102 1    
    91   46  103 1    
    92   46  104 1    
    93   47   48 2    
    94   47   49 am   BACKBONE|DICT|INTERRES
    95   49   50 1    
    96   49  105 1    
    97   50   51 1    
    98   50   52 1    
    99   50  106 1    
   100   51  107 1    
   101   51  108 1    
   102   51  109 1    
   103   52   53 2    
   104   52   54 am   BACKBONE|DICT|INTERRES
   105   54   55 1    
   106   54  110 1    
   107   55   56 1    
   108   55   59 1    
   109   55  111 1    
   110   56   57 am   BACKBONE|DICT|INTERRES
   111   56   58 2    
   112   57  112 1    
   113   57  113 1    
   114   59   60 1    
   115   59  114 1    
   116   59  115 1    
   117   60   61 1    
   118   61  116 1    
   119   61  117 1    
@<TRIPOS>SUBSTRUCTURE
     1 UNK         1 GROUP             0       ****    0 ROOT    
