@<TRIPOS>MOLECULE
3R8
117   119    1
SMALL
USER_CHARGES


@<TRIPOS>ATOM
      1 CA         16.4828  -27.7525  -39.1292 C.3       0 UNK        -0.2013 
      2 C          16.4024  -27.2998  -40.5798 C.2       0 UNK         0.4866 
      3 O          15.8582  -26.2305  -40.8586 O.2       0 UNK        -0.5176 
      4 N          16.9318  -28.1085  -41.5048 N.am      1 UNK        -0.4884 
      5 CA         17.0301  -27.7989  -42.9337 C.3       1 UNK         0.0853 
      6 C6         17.2325  -29.0891  -43.7657 C.3       10 UNK        -0.0849 
      7 S7         16.6743  -28.9047  -45.4982 S.3       10 UNK        -0.2776 
      8 C8         16.9259  -30.5847  -46.1646 C.3       10 UNK         0.0316 
      9 C9         18.3626  -31.0426  -45.9720 C.ar      10 UNK        -0.0863 
     10 C10        18.6805  -31.9227  -44.9348 C.ar      10 UNK        -0.1009 
     11 C11        20.0125  -32.2500  -44.6559 C.ar      10 UNK        -0.0712 
     12 C12        21.0205  -31.7166  -45.4658 C.ar      10 UNK        -0.0894 
     13 C13        20.7129  -30.8638  -46.5298 C.ar      10 UNK        -0.0745 
     14 C14        19.3793  -30.5343  -46.7829 C.ar      10 UNK        -0.0972 
     15 C15        21.8249  -30.2679  -47.3807 C.3       10 UNK         0.0209 
     16 S16        21.9622  -28.4645  -47.1649 S.3       10 UNK        -0.2568 
     17 C17        22.4184  -28.3322  -45.4033 C.3       10 UNK        -0.0983 
     18 CA         22.2273  -26.8925  -44.8752 C.3       3 UNK         0.0876 
     19 N          20.8223  -26.4700  -44.9310 N.am      3 UNK        -0.4424 
     20 C          20.4029  -25.2021  -44.8257 C.2       2 UNK         0.4918 
     21 O          21.1643  -24.2374  -44.7476 O.2       2 UNK        -0.4875 
     22 CA         18.8831  -24.9519  -44.7846 C.3       2 UNK         0.0481 
     23 CB         18.3914  -24.4681  -46.1583 C.3       2 UNK        -0.1831 
     24 N          18.0513  -26.0838  -44.3549 N.am      2 UNK        -0.4498 
     25 C          18.1418  -26.7570  -43.1986 C.2       1 UNK         0.5027 
     26 O          19.0545  -26.5978  -42.3825 O.2       1 UNK        -0.4969 
     27 C          22.8538  -26.7062  -43.4727 C.2       3 UNK         0.5005 
     28 O          24.0779  -26.5902  -43.3902 O.2       3 UNK        -0.5279 
     29 N          22.0142  -26.6299  -42.4241 N.am      4 UNK        -0.4463 
     30 CA         22.2780  -26.1782  -41.0523 C.3       4 UNK         0.0283 
     31 CB         22.1366  -24.6429  -40.9918 C.3       4 UNK        -0.1875 
     32 C          23.5943  -26.6806  -40.4292 C.2       4 UNK         0.4949 
     33 O          23.6106  -27.7525  -39.8271 O.2       4 UNK        -0.5039 
     34 N          24.6671  -25.8890  -40.5669 N.am      5 UNK        -0.4663 
     35 CA         26.0023  -26.1745  -40.0389 C.3       5 UNK         0.0242 
     36 CB         26.8755  -24.9166  -40.1740 C.3       5 UNK        -0.1982 
     37 C          26.6935  -27.3826  -40.6957 C.2       5 UNK         0.5017 
     38 O          27.5297  -28.0091  -40.0432 O.2       5 UNK        -0.5012 
     39 N          26.3477  -27.6929  -41.9548 N.am      6 UNK        -0.4439 
     40 CA         26.8378  -28.8807  -42.6599 C.3       6 UNK         0.0297 
     41 CB         26.6641  -28.7063  -44.1770 C.3       6 UNK        -0.2006 
     42 C          26.1342  -30.1526  -42.1599 C.2       6 UNK         0.4892 
     43 O          26.8068  -31.1374  -41.8534 O.2       6 UNK        -0.5089 
     44 N          24.8026  -30.0839  -42.0547 N.am      7 UNK        -0.4243 
     45 CA         23.9141  -31.0964  -41.4937 C.3       7 UNK         0.0196 
     46 CB         23.8825  -32.3699  -42.3623 C.3       7 UNK        -0.2007 
     47 C          22.5226  -30.4662  -41.4086 C.2       7 UNK         0.5020 
     48 O          22.0411  -29.9489  -42.4163 O.2       7 UNK        -0.5147 
     49 N          21.9032  -30.5065  -40.2242 N.am      8 UNK        -0.4734 
     50 CA         20.5907  -29.8977  -39.9885 C.3       8 UNK         0.0238 
     51 CB         20.5100  -29.4012  -38.5361 C.3       8 UNK        -0.1912 
     52 C          19.4258  -30.8501  -40.2926 C.2       8 UNK         0.5038 
     53 O          18.3436  -30.3675  -40.6244 O.2       8 UNK        -0.5046 
     54 N          19.6498  -32.1672  -40.1561 N.am      9 UNK        -0.4200 
     55 CA         18.6392  -33.2336  -40.3104 C.3       9 UNK         0.0839 
     56 C          17.5010  -33.2027  -39.2392 C.2       9 UNK         0.5513 
     57 N          17.6615  -32.5051  -38.1205 N.am      9 UNK        -0.7519 
     58 O          16.4712  -33.8533  -39.3981 O.2       9 UNK        -0.4960 
     59 C59        18.1063  -33.3410  -41.7734 C.3       10 UNK        -0.0876 
     60 S60        19.1968  -34.3209  -42.8654 S.3       10 UNK        -0.2414 
     61 C61        20.4226  -33.1053  -43.4566 C.3       10 UNK         0.0169 
     62 H62        15.5000  -27.6961  -38.6621 H         1 UNK         0.0903 
     63 H63        16.8374  -28.7792  -39.0417 H         1 UNK         0.0903 
     64 H64        17.1632  -27.1082  -38.5732 H         1 UNK         0.0903 
     65 H65        17.4074  -28.9595  -41.2041 H         1 UNK         0.3096 
     66 H66        16.0786  -27.3470  -43.2244 H         1 UNK         0.1121 
     67 H67        16.6579  -29.9089  -43.3308 H         1 UNK         0.0849 
     68 H68        18.2768  -29.4073  -43.7351 H         1 UNK         0.0849 
     69 H69        16.2298  -31.2728  -45.6821 H         1 UNK         0.0865 
     70 H70        16.6764  -30.5912  -47.2266 H         1 UNK         0.0865 
     71 H71        17.8794  -32.3118  -44.3279 H         1 UNK         0.1346 
     72 H72        22.0549  -31.9462  -45.2511 H         1 UNK         0.1412 
     73 H73        19.1383  -29.8461  -47.5820 H         1 UNK         0.1426 
     74 H74        21.6258  -30.4843  -48.4311 H         1 UNK         0.0716 
     75 H75        22.7865  -30.7285  -47.1483 H         1 UNK         0.0716 
     76 H76        23.4542  -28.6573  -45.3014 H         1 UNK         0.0695 
     77 H77        21.8154  -29.0262  -44.8180 H         1 UNK         0.0695 
     78 H78        22.7885  -26.2267  -45.5351 H         1 UNK         0.0983 
     79 H79        20.1350  -27.2035  -45.0198 H         1 UNK         0.3095 
     80 H80        18.7166  -24.1487  -44.0643 H         1 UNK         0.0454 
     81 H81        18.4906  -25.2447  -46.9178 H         1 UNK         0.0851 
     82 H82        18.9654  -23.6050  -46.4989 H         1 UNK         0.0851 
     83 H83        17.3457  -24.1624  -46.1231 H         1 UNK         0.0851 
     84 H84        17.2999  -26.3379  -44.9819 H         1 UNK         0.2976 
     85 H85        21.0279  -26.7791  -42.6169 H         1 UNK         0.3116 
     86 H86        21.4778  -26.5991  -40.4414 H         1 UNK         0.0646 
     87 H87        21.1187  -24.3386  -41.2369 H         1 UNK         0.0847 
     88 H88        22.8030  -24.1390  -41.6926 H         1 UNK         0.0847 
     89 H89        22.3519  -24.2627  -39.9921 H         1 UNK         0.0847 
     90 H90        24.5660  -25.0460  -41.1134 H         1 UNK         0.3040 
     91 H91        25.8956  -26.4053  -38.9765 H         1 UNK         0.1015 
     92 H92        27.8714  -25.0864  -39.7620 H         1 UNK         0.0786 
     93 H93        26.4440  -24.0731  -39.6346 H         1 UNK         0.0786 
     94 H94        27.0002  -24.6221  -41.2169 H         1 UNK         0.0786 
     95 H95        25.6232  -27.1440  -42.4147 H         1 UNK         0.3172 
     96 H96        27.9065  -28.9872  -42.4606 H         1 UNK         0.0595 
     97 H97        25.6189  -28.5819  -44.4559 H         1 UNK         0.0839 
     98 H98        27.0434  -29.5763  -44.7147 H         1 UNK         0.0839 
     99 H99        27.2114  -27.8364  -44.5403 H         1 UNK         0.0839 
    100 H100       24.3364  -29.2250  -42.3178 H         1 UNK         0.2998 
    101 H101       24.2652  -31.3474  -40.4908 H         1 UNK         0.0822 
    102 H102       24.8516  -32.8672  -42.3880 H         1 UNK         0.0787 
    103 H103       23.1657  -33.0913  -41.9687 H         1 UNK         0.0787 
    104 H104       23.5952  -32.1460  -43.3898 H         1 UNK         0.0787 
    105 H105       22.3744  -30.9152  -39.4296 H         1 UNK         0.3055 
    106 H106       20.4723  -29.0286  -40.6415 H         1 UNK         0.1106 
    107 H107       21.2830  -28.6599  -38.3312 H         1 UNK         0.0828 
    108 H108       20.6266  -30.2144  -37.8190 H         1 UNK         0.0828 
    109 H109       19.5484  -28.9252  -38.3387 H         1 UNK         0.0828 
    110 H110       20.5684  -32.4704  -39.8700 H         1 UNK         0.2931 
    111 H111       19.1672  -34.1608  -40.0848 H         1 UNK         0.0412 
    112 H112       18.5067  -31.9834  -37.9577 H         1 UNK         0.3472 
    113 H113       16.9266  -32.5058  -37.4306 H         1 UNK         0.3472 
    114 H114       17.1402  -33.8463  -41.8100 H         1 UNK         0.0970 
    115 H115       17.9216  -32.3534  -42.1905 H         1 UNK         0.0970 
    116 H116       21.3228  -33.6653  -43.7137 H         1 UNK         0.0612 
    117 H117       20.7003  -32.4445  -42.6383 H         1 UNK         0.0612 
@<TRIPOS>BOND
     1    1    2 1    
     2    1   62 1    
     3    1   63 1    
     4    1   64 1    
     5    2    3 2    
     6    2    4 am   BACKBONE|DICT|INTERRES
     7    4    5 1    
     8    4   65 1    
     9    5    6 1    
    10    5   25 1    
    11    5   66 1    
    12    6    7 1    
    13    6   67 1    
    14    6   68 1    
    15    7    8 1    
    16    8    9 1    
    17    8   69 1    
    18    8   70 1    
    19    9   10 ar   
    20    9   14 ar   
    21   10   11 ar   
    22   10   71 1    
    23   11   12 ar   
    24   11   61 1    
    25   12   13 ar   
    26   12   72 1    
    27   13   14 ar   
    28   13   15 1    
    29   14   73 1    
    30   15   16 1    
    31   15   74 1    
    32   15   75 1    
    33   16   17 1    
    34   17   18 1    
    35   17   76 1    
    36   17   77 1    
    37   18   19 1    
    38   18   27 1    
    39   18   78 1    
    40   19   20 am   BACKBONE|DICT|INTERRES
    41   19   79 1    
    42   20   21 2    
    43   20   22 1    
    44   22   23 1    
    45   22   24 1    
    46   22   80 1    
    47   23   81 1    
    48   23   82 1    
    49   23   83 1    
    50   24   25 am   BACKBONE|DICT|INTERRES
    51   24   84 1    
    52   25   26 2    
    53   27   28 2    
    54   27   29 am   BACKBONE|DICT|INTERRES
    55   29   30 1    
    56   29   85 1    
    57   30   31 1    
    58   30   32 1    
    59   30   86 1    
    60   31   87 1    
    61   31   88 1    
    62   31   89 1    
    63   32   33 2    
    64   32   34 am   BACKBONE|DICT|INTERRES
    65   34   35 1    
    66   34   90 1    
    67   35   36 1    
    68   35   37 1    
    69   35   91 1    
    70   36   92 1    
    71   36   93 1    
    72   36   94 1    
    73   37   38 2    
    74   37   39 am   BACKBONE|DICT|INTERRES
    75   39   40 1    
    76   39   95 1    
    77   40   41 1    
    78   40   42 1    
    79   40   96 1    
    80   41   97 1    
    81   41   98 1    
    82   41   99 1    
    83   42   43 2    
    84   42   44 am   BACKBONE|DICT|INTERRES
    85   44   45 1    
    86   44  100 1    
    87   45   46 1    
    88   45   47 1    
    89   45  101 1    
    90   46  102 1    
    91   46  103 1    
    92   46  104 1    
    93   47   48 2    
    94   47   49 am   BACKBONE|DICT|INTERRES
    95   49   50 1    
    96   49  105 1    
    97   50   51 1    
    98   50   52 1    
    99   50  106 1    
   100   51  107 1    
   101   51  108 1    
   102   51  109 1    
   103   52   53 2    
   104   52   54 am   BACKBONE|DICT|INTERRES
   105   54   55 1    
   106   54  110 1    
   107   55   56 1    
   108   55   59 1    
   109   55  111 1    
   110   56   57 am   BACKBONE|DICT|INTERRES
   111   56   58 2    
   112   57  112 1    
   113   57  113 1    
   114   59   60 1    
   115   59  114 1    
   116   59  115 1    
   117   60   61 1    
   118   61  116 1    
   119   61  117 1    
@<TRIPOS>SUBSTRUCTURE
     1 UNK         1 GROUP             0       ****    0 ROOT    
