@<TRIPOS>MOLECULE
3R8
117   119    1
SMALL
USER_CHARGES


@<TRIPOS>ATOM
      1 CA         16.2741  -22.1859  -44.7914 C.3       0 UNK        -0.2013 
      2 C          16.9707  -23.3422  -44.0890 C.2       0 UNK         0.4866 
      3 O          17.4528  -23.1686  -42.9698 O.2       0 UNK        -0.5176 
      4 N          17.0209  -24.5114  -44.7440 N.am      1 UNK        -0.4884 
      5 CA         17.6355  -25.7610  -44.2733 C.3       1 UNK         0.0853 
      6 C6         16.9207  -26.3973  -43.0499 C.3       10 UNK        -0.0849 
      7 S7         15.1653  -26.8187  -43.3095 S.3       10 UNK        -0.2776 
      8 C8         15.2059  -28.0270  -44.6808 C.3       10 UNK         0.0316 
      9 C9         16.2706  -29.1153  -44.5496 C.ar      10 UNK        -0.0863 
     10 C10        16.3875  -29.8833  -43.3837 C.ar      10 UNK        -0.1009 
     11 C11        17.3400  -30.9061  -43.2911 C.ar      10 UNK        -0.0712 
     12 C12        18.1591  -31.1703  -44.3929 C.ar      10 UNK        -0.0894 
     13 C13        18.0600  -30.4097  -45.5599 C.ar      10 UNK        -0.0745 
     14 C14        17.1162  -29.3829  -45.6312 C.ar      10 UNK        -0.0972 
     15 C15        18.9461  -30.7236  -46.7574 C.3       10 UNK         0.0209 
     16 S16        20.3567  -29.5809  -46.8968 S.3       10 UNK        -0.2568 
     17 C17        21.3897  -30.0606  -45.4618 C.3       10 UNK        -0.0983 
     18 CA         21.9886  -28.8871  -44.6238 C.3       3 UNK         0.0876 
     19 N          21.5117  -27.5574  -45.0130 N.am      3 UNK        -0.4424 
     20 C          22.0854  -26.4001  -44.6591 C.2       2 UNK         0.4918 
     21 O          23.1122  -26.3276  -43.9855 O.2       2 UNK        -0.4875 
     22 CA         21.3563  -25.1078  -45.0770 C.3       2 UNK         0.0481 
     23 CB         21.8462  -24.6386  -46.4552 C.3       2 UNK        -0.1831 
     24 N          19.8917  -25.2324  -45.0890 N.am      2 UNK        -0.4498 
     25 C          19.1523  -25.6049  -44.0329 C.2       1 UNK         0.5027 
     26 O          19.6366  -25.8485  -42.9253 O.2       1 UNK        -0.4969 
     27 C          21.8371  -29.1356  -43.1071 C.2       3 UNK         0.5005 
     28 O          22.6890  -29.8075  -42.5281 O.2       3 UNK        -0.5279 
     29 N          20.7912  -28.5757  -42.4790 N.am      4 UNK        -0.4463 
     30 CA         20.5822  -28.6353  -41.0291 C.3       4 UNK         0.0283 
     31 CB         19.1170  -28.3365  -40.6779 C.3       4 UNK        -0.1875 
     32 C          21.5206  -27.6808  -40.2812 C.2       4 UNK         0.4949 
     33 O          22.0170  -28.0452  -39.2169 O.2       4 UNK        -0.5039 
     34 N          21.7948  -26.5052  -40.8668 N.am      5 UNK        -0.4663 
     35 CA         22.7945  -25.5514  -40.3710 C.3       5 UNK         0.0242 
     36 CB         22.6931  -24.2343  -41.1564 C.3       5 UNK        -0.1982 
     37 C          24.2253  -26.1208  -40.4210 C.2       5 UNK         0.5017 
     38 O          25.0015  -25.8949  -39.4927 O.2       5 UNK        -0.5012 
     39 N          24.5247  -26.8917  -41.4762 N.am      6 UNK        -0.4439 
     40 CA         25.7520  -27.6790  -41.6312 C.3       6 UNK         0.0297 
     41 CB         25.9225  -28.0405  -43.1162 C.3       6 UNK        -0.2006 
     42 C          25.7877  -28.9571  -40.7657 C.2       6 UNK         0.4892 
     43 O          26.8480  -29.5765  -40.6719 O.2       6 UNK        -0.5089 
     44 N          24.6446  -29.3350  -40.1718 N.am      7 UNK        -0.4243 
     45 CA         24.3947  -30.5356  -39.3644 C.3       7 UNK         0.0196 
     46 CB         25.2117  -30.5016  -38.0555 C.3       7 UNK        -0.2007 
     47 C          24.5657  -31.8519  -40.1492 C.2       7 UNK         0.5020 
     48 O          24.9489  -32.8681  -39.5678 O.2       7 UNK        -0.5147 
     49 N          24.2594  -31.8259  -41.4530 N.am      8 UNK        -0.4734 
     50 CA         24.3508  -32.9763  -42.3546 C.3       8 UNK         0.0238 
     51 CB         24.3663  -32.4842  -43.8109 C.3       8 UNK        -0.1912 
     52 C          23.2142  -33.9868  -42.1356 C.2       8 UNK         0.5038 
     53 O          23.4521  -35.1900  -42.2465 O.2       8 UNK        -0.5046 
     54 N          22.0142  -33.4835  -41.8165 N.am      9 UNK        -0.4200 
     55 CA         20.8331  -34.2859  -41.4581 C.3       9 UNK         0.0839 
     56 C          20.7396  -34.6465  -39.9454 C.2       9 UNK         0.5513 
     57 N          21.7108  -34.2911  -39.1116 N.am      9 UNK        -0.7519 
     58 O          19.7773  -35.2820  -39.5221 O.2       9 UNK        -0.4960 
     59 C59        19.5235  -33.6743  -42.0258 C.3       10 UNK        -0.0876 
     60 S60        19.1583  -31.9856  -41.4294 S.3       10 UNK        -0.2414 
     61 C61        17.4433  -31.7418  -42.0156 C.3       10 UNK         0.0169 
     62 H62        15.4374  -21.8319  -44.1897 H         1 UNK         0.0903 
     63 H63        16.9687  -21.3577  -44.9295 H         1 UNK         0.0903 
     64 H64        15.8896  -22.4726  -45.7700 H         1 UNK         0.0903 
     65 H65        16.5956  -24.5653  -45.6596 H         1 UNK         0.3096 
     66 H66        17.5537  -26.4675  -45.0995 H         1 UNK         0.1121 
     67 H67        16.9828  -25.7350  -42.1846 H         1 UNK         0.0849 
     68 H68        17.4282  -27.3154  -42.7553 H         1 UNK         0.0849 
     69 H69        14.2284  -28.5062  -44.7475 H         1 UNK         0.0865 
     70 H70        15.3312  -27.4770  -45.6146 H         1 UNK         0.0865 
     71 H71        15.7296  -29.6837  -42.5488 H         1 UNK         0.1346 
     72 H72        18.8786  -31.9724  -44.3474 H         1 UNK         0.1412 
     73 H73        17.0303  -28.8069  -46.5427 H         1 UNK         0.1426 
     74 H74        18.3536  -30.6606  -47.6714 H         1 UNK         0.0716 
     75 H75        19.3158  -31.7492  -46.7083 H         1 UNK         0.0716 
     76 H76        22.2066  -30.6701  -45.8510 H         1 UNK         0.0695 
     77 H77        20.8193  -30.7466  -44.8359 H         1 UNK         0.0695 
     78 H78        23.0638  -28.8833  -44.8163 H         1 UNK         0.0983 
     79 H79        20.6916  -27.5437  -45.6022 H         1 UNK         0.3095 
     80 H80        21.6106  -24.3379  -44.3459 H         1 UNK         0.0454 
     81 H81        21.4147  -23.6743  -46.7237 H         1 UNK         0.0851 
     82 H82        21.5928  -25.3520  -47.2404 H         1 UNK         0.0851 
     83 H83        22.9306  -24.5181  -46.4627 H         1 UNK         0.0851 
     84 H84        19.4239  -25.0244  -45.9599 H         1 UNK         0.2976 
     85 H85        20.1661  -27.9781  -43.0023 H         1 UNK         0.3116 
     86 H86        20.8071  -29.6495  -40.6935 H         1 UNK         0.0646 
     87 H87        18.4330  -28.9628  -41.2489 H         1 UNK         0.0847 
     88 H88        18.8579  -27.2935  -40.8583 H         1 UNK         0.0847 
     89 H89        18.9288  -28.5342  -39.6221 H         1 UNK         0.0847 
     90 H90        21.2936  -26.2594  -41.7141 H         1 UNK         0.3040 
     91 H91        22.5615  -25.3422  -39.3245 H         1 UNK         0.1015 
     92 H92        23.3741  -23.4865  -40.7479 H         1 UNK         0.0786 
     93 H93        21.6865  -23.8184  -41.1068 H         1 UNK         0.0786 
     94 H94        22.9497  -24.3653  -42.2072 H         1 UNK         0.0786 
     95 H95        23.8541  -26.9381  -42.2376 H         1 UNK         0.3172 
     96 H96        26.5980  -27.0570  -41.3319 H         1 UNK         0.0595 
     97 H97        25.1224  -28.6936  -43.4648 H         1 UNK         0.0839 
     98 H98        26.8648  -28.5632  -43.2859 H         1 UNK         0.0839 
     99 H99        25.9282  -27.1503  -43.7456 H         1 UNK         0.0839 
    100 H100       23.8326  -28.7493  -40.3174 H         1 UNK         0.2998 
    101 H101       23.3397  -30.4937  -39.0899 H         1 UNK         0.0822 
    102 H102       25.0564  -29.5667  -37.5169 H         1 UNK         0.0787 
    103 H103       24.9155  -31.3115  -37.3878 H         1 UNK         0.0787 
    104 H104       26.2806  -30.6093  -38.2418 H         1 UNK         0.0787 
    105 H105       23.8669  -30.9689  -41.8437 H         1 UNK         0.3055 
    106 H106       25.2940  -33.4914  -42.1579 H         1 UNK         0.1106 
    107 H107       23.4381  -31.9776  -44.0756 H         1 UNK         0.0828 
    108 H108       24.4910  -33.3182  -44.5028 H         1 UNK         0.0828 
    109 H109       25.1887  -31.7905  -43.9867 H         1 UNK         0.0828 
    110 H110       21.9121  -32.4821  -41.7329 H         1 UNK         0.2931 
    111 H111       20.9348  -35.2535  -41.9531 H         1 UNK         0.0412 
    112 H112       21.6377  -34.5403  -38.1377 H         1 UNK         0.3472 
    113 H113       22.5303  -33.8108  -39.4490 H         1 UNK         0.3472 
    114 H114       19.5854  -33.6589  -43.1132 H         1 UNK         0.0970 
    115 H115       18.6766  -34.3228  -41.7937 H         1 UNK         0.0970 
    116 H116       16.9590  -32.7049  -42.1797 H         1 UNK         0.0612 
    117 H117       16.8898  -31.2577  -41.2097 H         1 UNK         0.0612 
@<TRIPOS>BOND
     1    1    2 1    
     2    1   62 1    
     3    1   63 1    
     4    1   64 1    
     5    2    3 2    
     6    2    4 am   BACKBONE|DICT|INTERRES
     7    4    5 1    
     8    4   65 1    
     9    5    6 1    
    10    5   25 1    
    11    5   66 1    
    12    6    7 1    
    13    6   67 1    
    14    6   68 1    
    15    7    8 1    
    16    8    9 1    
    17    8   69 1    
    18    8   70 1    
    19    9   10 ar   
    20    9   14 ar   
    21   10   11 ar   
    22   10   71 1    
    23   11   12 ar   
    24   11   61 1    
    25   12   13 ar   
    26   12   72 1    
    27   13   14 ar   
    28   13   15 1    
    29   14   73 1    
    30   15   16 1    
    31   15   74 1    
    32   15   75 1    
    33   16   17 1    
    34   17   18 1    
    35   17   76 1    
    36   17   77 1    
    37   18   19 1    
    38   18   27 1    
    39   18   78 1    
    40   19   20 am   BACKBONE|DICT|INTERRES
    41   19   79 1    
    42   20   21 2    
    43   20   22 1    
    44   22   23 1    
    45   22   24 1    
    46   22   80 1    
    47   23   81 1    
    48   23   82 1    
    49   23   83 1    
    50   24   25 am   BACKBONE|DICT|INTERRES
    51   24   84 1    
    52   25   26 2    
    53   27   28 2    
    54   27   29 am   BACKBONE|DICT|INTERRES
    55   29   30 1    
    56   29   85 1    
    57   30   31 1    
    58   30   32 1    
    59   30   86 1    
    60   31   87 1    
    61   31   88 1    
    62   31   89 1    
    63   32   33 2    
    64   32   34 am   BACKBONE|DICT|INTERRES
    65   34   35 1    
    66   34   90 1    
    67   35   36 1    
    68   35   37 1    
    69   35   91 1    
    70   36   92 1    
    71   36   93 1    
    72   36   94 1    
    73   37   38 2    
    74   37   39 am   BACKBONE|DICT|INTERRES
    75   39   40 1    
    76   39   95 1    
    77   40   41 1    
    78   40   42 1    
    79   40   96 1    
    80   41   97 1    
    81   41   98 1    
    82   41   99 1    
    83   42   43 2    
    84   42   44 am   BACKBONE|DICT|INTERRES
    85   44   45 1    
    86   44  100 1    
    87   45   46 1    
    88   45   47 1    
    89   45  101 1    
    90   46  102 1    
    91   46  103 1    
    92   46  104 1    
    93   47   48 2    
    94   47   49 am   BACKBONE|DICT|INTERRES
    95   49   50 1    
    96   49  105 1    
    97   50   51 1    
    98   50   52 1    
    99   50  106 1    
   100   51  107 1    
   101   51  108 1    
   102   51  109 1    
   103   52   53 2    
   104   52   54 am   BACKBONE|DICT|INTERRES
   105   54   55 1    
   106   54  110 1    
   107   55   56 1    
   108   55   59 1    
   109   55  111 1    
   110   56   57 am   BACKBONE|DICT|INTERRES
   111   56   58 2    
   112   57  112 1    
   113   57  113 1    
   114   59   60 1    
   115   59  114 1    
   116   59  115 1    
   117   60   61 1    
   118   61  116 1    
   119   61  117 1    
@<TRIPOS>SUBSTRUCTURE
     1 UNK         1 GROUP             0       ****    0 ROOT    
