@<TRIPOS>MOLECULE
3R8
117   119    1
SMALL
USER_CHARGES


@<TRIPOS>ATOM
      1 CA         13.9966  -23.1864  -43.0797 C.3       0 UNK        -0.2013 
      2 C          14.9075  -23.8345  -44.1118 C.2       0 UNK         0.4866 
      3 O          14.8838  -23.4453  -45.2801 O.2       0 UNK        -0.5176 
      4 N          15.7027  -24.8265  -43.6928 N.am      1 UNK        -0.4884 
      5 CA         16.6745  -25.5346  -44.5335 C.3       1 UNK         0.0853 
      6 C6         17.1919  -26.8257  -43.8524 C.3       10 UNK        -0.0849 
      7 S7         15.8583  -28.0157  -43.4730 S.3       10 UNK        -0.2776 
      8 C8         16.2401  -29.4116  -44.5861 C.3       10 UNK         0.0316 
      9 C9         17.6187  -30.0068  -44.3243 C.ar      10 UNK        -0.0863 
     10 C10        17.9295  -30.5495  -43.0727 C.ar      10 UNK        -0.1009 
     11 C11        19.2063  -31.0574  -42.8166 C.ar      10 UNK        -0.0712 
     12 C12        20.1709  -31.0328  -43.8265 C.ar      10 UNK        -0.0894 
     13 C13        19.8724  -30.4989  -45.0832 C.ar      10 UNK        -0.0745 
     14 C14        18.5911  -29.9970  -45.3303 C.ar      10 UNK        -0.0972 
     15 C15        20.9533  -30.4256  -46.1542 C.3       10 UNK         0.0209 
     16 S16        21.4443  -28.7097  -46.5381 S.3       10 UNK        -0.2568 
     17 C17        21.8128  -28.0380  -44.8796 C.3       10 UNK        -0.0983 
     18 CA         22.0136  -26.4998  -44.8698 C.3       3 UNK         0.0876 
     19 N          20.8836  -25.8062  -45.4899 N.am      3 UNK        -0.4424 
     20 C          20.8913  -24.5618  -45.9837 C.2       2 UNK         0.4918 
     21 O          21.8835  -23.8316  -45.9762 O.2       2 UNK        -0.4875 
     22 CA         19.5750  -24.0452  -46.5962 C.3       2 UNK         0.0481 
     23 CB         19.6318  -24.1366  -48.1294 C.3       2 UNK        -0.1831 
     24 N          18.3870  -24.7607  -46.1139 N.am      2 UNK        -0.4498 
     25 C          17.8652  -24.6193  -44.8869 C.2       1 UNK         0.5027 
     26 O          18.3155  -23.8463  -44.0370 O.2       1 UNK        -0.4969 
     27 C          22.2356  -25.9686  -43.4373 C.2       3 UNK         0.5005 
     28 O          21.9082  -26.6575  -42.4693 O.2       3 UNK        -0.5279 
     29 N          22.7727  -24.7458  -43.3198 N.am      4 UNK        -0.4463 
     30 CA         22.9725  -24.0080  -42.0632 C.3       4 UNK         0.0283 
     31 CB         23.5826  -22.6332  -42.3799 C.3       4 UNK        -0.1875 
     32 C          23.8159  -24.7350  -40.9963 C.2       4 UNK         0.4949 
     33 O          23.6504  -24.4596  -39.8079 O.2       4 UNK        -0.5039 
     34 N          24.6853  -25.6572  -41.4303 N.am      5 UNK        -0.4663 
     35 CA         25.4766  -26.5345  -40.5646 C.3       5 UNK         0.0242 
     36 CB         26.6386  -27.1195  -41.3855 C.3       5 UNK        -0.1982 
     37 C          24.6623  -27.6707  -39.9131 C.2       5 UNK         0.5017 
     38 O          25.1527  -28.2637  -38.9518 O.2       5 UNK        -0.5012 
     39 N          23.4672  -27.9743  -40.4509 N.am      6 UNK        -0.4439 
     40 CA         22.5685  -29.0726  -40.0648 C.3       6 UNK         0.0297 
     41 CB         21.9426  -28.8072  -38.6797 C.3       6 UNK        -0.2006 
     42 C          23.2320  -30.4621  -40.1715 C.2       6 UNK         0.4892 
     43 O          23.0364  -31.3118  -39.3004 O.2       6 UNK        -0.5089 
     44 N          24.0229  -30.6529  -41.2368 N.am      7 UNK        -0.4243 
     45 CA         24.7745  -31.8745  -41.5297 C.3       7 UNK         0.0196 
     46 CB         25.7158  -31.6003  -42.7142 C.3       7 UNK        -0.2007 
     47 C          23.8626  -33.0739  -41.8377 C.2       7 UNK         0.5020 
     48 O          22.7450  -32.8884  -42.3192 O.2       7 UNK        -0.5147 
     49 N          24.3696  -34.2844  -41.5693 N.am      8 UNK        -0.4734 
     50 CA         23.7573  -35.6082  -41.7824 C.3       8 UNK         0.0238 
     51 CB         23.4171  -35.8418  -43.2683 C.3       8 UNK        -0.1912 
     52 C          22.5478  -35.9340  -40.8832 C.2       8 UNK         0.5038 
     53 O          22.3896  -37.0973  -40.5095 O.2       8 UNK        -0.5046 
     54 N          21.7276  -34.9319  -40.5481 N.am      9 UNK        -0.4200 
     55 CA         20.5826  -35.0325  -39.6315 C.3       9 UNK         0.0839 
     56 C          20.9981  -35.4147  -38.1838 C.2       9 UNK         0.5513 
     57 N          20.1517  -36.1460  -37.4716 N.am      9 UNK        -0.7519 
     58 O          22.0525  -35.0221  -37.6881 O.2       9 UNK        -0.4960 
     59 C59        19.7374  -33.7330  -39.6259 C.3       10 UNK        -0.0876 
     60 S60        19.0497  -33.3393  -41.2700 S.3       10 UNK        -0.2414 
     61 C61        19.5564  -31.6035  -41.4421 C.3       10 UNK         0.0169 
     62 H62        12.9546  -23.2892  -43.3815 H         1 UNK         0.0903 
     63 H63        14.1101  -23.6382  -42.0944 H         1 UNK         0.0903 
     64 H64        14.2237  -22.1241  -42.9938 H         1 UNK         0.0903 
     65 H65        15.6860  -25.1040  -42.7218 H         1 UNK         0.3096 
     66 H66        16.1686  -25.8129  -45.4611 H         1 UNK         0.1121 
     67 H67        17.9401  -27.3104  -44.4809 H         1 UNK         0.0849 
     68 H68        17.7032  -26.5877  -42.9171 H         1 UNK         0.0849 
     69 H69        15.4870  -30.1890  -44.4497 H         1 UNK         0.0865 
     70 H70        16.1482  -29.0753  -45.6201 H         1 UNK         0.0865 
     71 H71        17.1823  -30.5577  -42.2908 H         1 UNK         0.1346 
     72 H72        21.1628  -31.4130  -43.6271 H         1 UNK         0.1412 
     73 H73        18.3656  -29.5730  -46.2995 H         1 UNK         0.1426 
     74 H74        20.5910  -30.9036  -47.0652 H         1 UNK         0.0716 
     75 H75        21.8398  -30.9829  -45.8471 H         1 UNK         0.0716 
     76 H76        20.9913  -28.3009  -44.2119 H         1 UNK         0.0695 
     77 H77        22.6991  -28.5444  -44.4928 H         1 UNK         0.0695 
     78 H78        22.9137  -26.2795  -45.4483 H         1 UNK         0.0983 
     79 H79        20.0289  -26.3365  -45.5506 H         1 UNK         0.3095 
     80 H80        19.4770  -22.9924  -46.3232 H         1 UNK         0.0454 
     81 H81        20.4878  -23.5854  -48.5214 H         1 UNK         0.0851 
     82 H82        19.7259  -25.1681  -48.4712 H         1 UNK         0.0851 
     83 H83        18.7390  -23.7098  -48.5867 H         1 UNK         0.0851 
     84 H84        17.9566  -25.4063  -46.7614 H         1 UNK         0.2976 
     85 H85        22.9408  -24.2319  -44.1779 H         1 UNK         0.3116 
     86 H86        21.9835  -23.8481  -41.6291 H         1 UNK         0.0646 
     87 H87        23.7138  -22.0443  -41.4709 H         1 UNK         0.0847 
     88 H88        22.9404  -22.0565  -43.0459 H         1 UNK         0.0847 
     89 H89        24.5614  -22.7256  -42.8521 H         1 UNK         0.0847 
     90 H90        24.7660  -25.8017  -42.4262 H         1 UNK         0.3040 
     91 H91        25.8965  -25.9332  -39.7547 H         1 UNK         0.1015 
     92 H92        27.2722  -26.3320  -41.7942 H         1 UNK         0.0786 
     93 H93        26.2812  -27.7299  -42.2159 H         1 UNK         0.0786 
     94 H94        27.2745  -27.7539  -40.7662 H         1 UNK         0.0786 
     95 H95        23.1215  -27.3971  -41.2153 H         1 UNK         0.3172 
     96 H96        21.7580  -29.0695  -40.7956 H         1 UNK         0.0595 
     97 H97        21.4578  -27.8317  -38.6448 H         1 UNK         0.0839 
     98 H98        22.6888  -28.8407  -37.8853 H         1 UNK         0.0839 
     99 H99        21.1835  -29.5543  -38.4445 H         1 UNK         0.0839 
    100 H100       24.0996  -29.9049  -41.9088 H         1 UNK         0.2998 
    101 H101       25.3749  -32.1121  -40.6488 H         1 UNK         0.0822 
    102 H102       26.4022  -30.7817  -42.4958 H         1 UNK         0.0787 
    103 H103       26.3232  -32.4767  -42.9447 H         1 UNK         0.0787 
    104 H104       25.1609  -31.3429  -43.6176 H         1 UNK         0.0787 
    105 H105       25.2905  -34.3149  -41.1520 H         1 UNK         0.3055 
    106 H106       24.5307  -36.3300  -41.5131 H         1 UNK         0.1106 
    107 H107       22.6190  -35.1844  -43.6143 H         1 UNK         0.0828 
    108 H108       24.2863  -35.6796  -43.9055 H         1 UNK         0.0828 
    109 H109       23.0819  -36.8668  -43.4326 H         1 UNK         0.0828 
    110 H110       21.9129  -34.0192  -40.9499 H         1 UNK         0.2931 
    111 H111       19.9519  -35.8382  -40.0133 H         1 UNK         0.0412 
    112 H112       20.3936  -36.3931  -36.5242 H         1 UNK         0.3472 
    113 H113       19.2801  -36.4666  -37.8651 H         1 UNK         0.3472 
    114 H114       20.3373  -32.8968  -39.2597 H         1 UNK         0.0970 
    115 H115       18.8970  -33.8259  -38.9353 H         1 UNK         0.0970 
    116 H116       20.6300  -31.5225  -41.2701 H         1 UNK         0.0612 
    117 H117       19.0726  -31.0054  -40.6683 H         1 UNK         0.0612 
@<TRIPOS>BOND
     1    1    2 1    
     2    1   62 1    
     3    1   63 1    
     4    1   64 1    
     5    2    3 2    
     6    2    4 am   BACKBONE|DICT|INTERRES
     7    4    5 1    
     8    4   65 1    
     9    5    6 1    
    10    5   25 1    
    11    5   66 1    
    12    6    7 1    
    13    6   67 1    
    14    6   68 1    
    15    7    8 1    
    16    8    9 1    
    17    8   69 1    
    18    8   70 1    
    19    9   10 ar   
    20    9   14 ar   
    21   10   11 ar   
    22   10   71 1    
    23   11   12 ar   
    24   11   61 1    
    25   12   13 ar   
    26   12   72 1    
    27   13   14 ar   
    28   13   15 1    
    29   14   73 1    
    30   15   16 1    
    31   15   74 1    
    32   15   75 1    
    33   16   17 1    
    34   17   18 1    
    35   17   76 1    
    36   17   77 1    
    37   18   19 1    
    38   18   27 1    
    39   18   78 1    
    40   19   20 am   BACKBONE|DICT|INTERRES
    41   19   79 1    
    42   20   21 2    
    43   20   22 1    
    44   22   23 1    
    45   22   24 1    
    46   22   80 1    
    47   23   81 1    
    48   23   82 1    
    49   23   83 1    
    50   24   25 am   BACKBONE|DICT|INTERRES
    51   24   84 1    
    52   25   26 2    
    53   27   28 2    
    54   27   29 am   BACKBONE|DICT|INTERRES
    55   29   30 1    
    56   29   85 1    
    57   30   31 1    
    58   30   32 1    
    59   30   86 1    
    60   31   87 1    
    61   31   88 1    
    62   31   89 1    
    63   32   33 2    
    64   32   34 am   BACKBONE|DICT|INTERRES
    65   34   35 1    
    66   34   90 1    
    67   35   36 1    
    68   35   37 1    
    69   35   91 1    
    70   36   92 1    
    71   36   93 1    
    72   36   94 1    
    73   37   38 2    
    74   37   39 am   BACKBONE|DICT|INTERRES
    75   39   40 1    
    76   39   95 1    
    77   40   41 1    
    78   40   42 1    
    79   40   96 1    
    80   41   97 1    
    81   41   98 1    
    82   41   99 1    
    83   42   43 2    
    84   42   44 am   BACKBONE|DICT|INTERRES
    85   44   45 1    
    86   44  100 1    
    87   45   46 1    
    88   45   47 1    
    89   45  101 1    
    90   46  102 1    
    91   46  103 1    
    92   46  104 1    
    93   47   48 2    
    94   47   49 am   BACKBONE|DICT|INTERRES
    95   49   50 1    
    96   49  105 1    
    97   50   51 1    
    98   50   52 1    
    99   50  106 1    
   100   51  107 1    
   101   51  108 1    
   102   51  109 1    
   103   52   53 2    
   104   52   54 am   BACKBONE|DICT|INTERRES
   105   54   55 1    
   106   54  110 1    
   107   55   56 1    
   108   55   59 1    
   109   55  111 1    
   110   56   57 am   BACKBONE|DICT|INTERRES
   111   56   58 2    
   112   57  112 1    
   113   57  113 1    
   114   59   60 1    
   115   59  114 1    
   116   59  115 1    
   117   60   61 1    
   118   61  116 1    
   119   61  117 1    
@<TRIPOS>SUBSTRUCTURE
     1 UNK         1 GROUP             0       ****    0 ROOT    
