@<TRIPOS>MOLECULE
3R8
117   119    1
SMALL
USER_CHARGES


@<TRIPOS>ATOM
      1 CA         13.1501  -23.6477  -43.1224 C.3       0 UNK        -0.2013 
      2 C          14.4298  -24.2194  -43.7144 C.2       0 UNK         0.4866 
      3 O          15.2066  -23.4811  -44.3214 O.2       0 UNK        -0.5176 
      4 N          14.6502  -25.5297  -43.5516 N.am      1 UNK        -0.4884 
      5 CA         15.8496  -26.2397  -44.0093 C.3       1 UNK         0.0853 
      6 C6         15.6510  -27.7728  -43.9793 C.3       10 UNK        -0.0849 
      7 S7         14.4350  -28.3294  -45.2223 S.3       10 UNK        -0.2776 
      8 C8         14.4344  -30.1395  -44.9723 C.3       10 UNK         0.0316 
      9 C9         15.8398  -30.7268  -44.9235 C.ar      10 UNK        -0.0863 
     10 C10        16.2737  -31.4135  -43.7860 C.ar      10 UNK        -0.1009 
     11 C11        17.5852  -31.8908  -43.6992 C.ar      10 UNK        -0.0712 
     12 C12        18.4622  -31.6884  -44.7694 C.ar      10 UNK        -0.0894 
     13 C13        18.0362  -31.0126  -45.9171 C.ar      10 UNK        -0.0745 
     14 C14        16.7206  -30.5480  -45.9943 C.ar      10 UNK        -0.0972 
     15 C15        18.9925  -30.7667  -47.0737 C.3       10 UNK         0.0209 
     16 S16        19.7039  -29.0920  -47.0052 S.3       10 UNK        -0.2568 
     17 C17        21.0216  -29.3271  -45.7698 C.3       10 UNK        -0.0983 
     18 CA         21.5784  -27.9859  -45.2356 C.3       3 UNK         0.0876 
     19 N          20.5599  -27.2396  -44.4880 N.am      3 UNK        -0.4424 
     20 C          20.6764  -25.9634  -44.1004 C.2       2 UNK         0.4918 
     21 O          21.6158  -25.2350  -44.4262 O.2       2 UNK        -0.4875 
     22 CA         19.5333  -25.4107  -43.2336 C.3       2 UNK         0.0481 
     23 CB         19.6342  -23.8895  -42.9955 C.3       2 UNK        -0.1831 
     24 N          18.2429  -25.7490  -43.8352 N.am      2 UNK        -0.4498 
     25 C          17.0839  -25.8461  -43.1720 C.2       1 UNK         0.5027 
     26 O          16.9683  -25.6726  -41.9557 O.2       1 UNK        -0.4969 
     27 C          22.8202  -28.2501  -44.3599 C.2       3 UNK         0.5005 
     28 O          22.7048  -28.2913  -43.1347 O.2       3 UNK        -0.5279 
     29 N          23.9830  -28.4386  -45.0034 N.am      4 UNK        -0.4463 
     30 CA         25.2848  -28.8642  -44.4539 C.3       4 UNK         0.0283 
     31 CB         25.1824  -30.2938  -43.8871 C.3       4 UNK        -0.1875 
     32 C          25.9547  -27.9278  -43.4243 C.2       4 UNK         0.4949 
     33 O          27.1813  -27.9408  -43.3278 O.2       4 UNK        -0.5039 
     34 N          25.1576  -27.1602  -42.6710 N.am      5 UNK        -0.4663 
     35 CA         25.5031  -26.2443  -41.5740 C.3       5 UNK         0.0242 
     36 CB         26.5261  -25.1776  -42.0177 C.3       5 UNK        -0.1982 
     37 C          25.9247  -26.9476  -40.2677 C.2       5 UNK         0.5017 
     38 O          26.1954  -26.2604  -39.2819 O.2       5 UNK        -0.5012 
     39 N          25.9362  -28.2850  -40.2566 N.am      6 UNK        -0.4439 
     40 CA         26.2217  -29.1467  -39.1152 C.3       6 UNK         0.0297 
     41 CB         27.7286  -29.1393  -38.7939 C.3       6 UNK        -0.2006 
     42 C          25.7521  -30.5635  -39.4605 C.2       6 UNK         0.4892 
     43 O          25.7427  -30.9249  -40.6399 O.2       6 UNK        -0.5089 
     44 N          25.3981  -31.3360  -38.4244 N.am      7 UNK        -0.4243 
     45 CA         24.9637  -32.7396  -38.4421 C.3       7 UNK         0.0196 
     46 CB         26.0938  -33.6723  -38.9276 C.3       7 UNK        -0.2007 
     47 C          23.6503  -32.9774  -39.2081 C.2       7 UNK         0.5020 
     48 O          22.6156  -33.2110  -38.5826 O.2       7 UNK        -0.5147 
     49 N          23.7037  -32.9109  -40.5427 N.am      8 UNK        -0.4734 
     50 CA         22.5838  -33.1443  -41.4573 C.3       8 UNK         0.0238 
     51 CB         23.1401  -33.6180  -42.8132 C.3       8 UNK        -0.1912 
     52 C          21.6971  -31.8930  -41.5834 C.2       8 UNK         0.5038 
     53 O          21.6053  -31.3139  -42.6657 O.2       8 UNK        -0.5046 
     54 N          21.0751  -31.5068  -40.4621 N.am      9 UNK        -0.4200 
     55 CA         20.2493  -30.2991  -40.2826 C.3       9 UNK         0.0839 
     56 C          21.0612  -28.9692  -40.2574 C.2       9 UNK         0.5513 
     57 N          22.3696  -29.0054  -40.0355 N.am      9 UNK        -0.7519 
     58 O          20.4940  -27.8872  -40.3847 O.2       9 UNK        -0.4960 
     59 C59        19.0066  -30.2431  -41.2188 C.3       10 UNK        -0.0876 
     60 S60        17.8615  -31.6367  -40.9328 S.3       10 UNK        -0.2414 
     61 C61        18.0558  -32.6267  -42.4512 C.3       10 UNK         0.0169 
     62 H62        12.5423  -23.1972  -43.9067 H         1 UNK         0.0903 
     63 H63        12.5519  -24.4127  -42.6275 H         1 UNK         0.0903 
     64 H64        13.3878  -22.8768  -42.3899 H         1 UNK         0.0903 
     65 H65        13.9836  -26.0877  -43.0377 H         1 UNK         0.3096 
     66 H66        16.0368  -25.9370  -45.0425 H         1 UNK         0.1121 
     67 H67        15.3381  -28.1107  -42.9893 H         1 UNK         0.0849 
     68 H68        16.5987  -28.2732  -44.1876 H         1 UNK         0.0849 
     69 H69        13.8895  -30.3632  -44.0538 H         1 UNK         0.0865 
     70 H70        13.8765  -30.6114  -45.7822 H         1 UNK         0.0865 
     71 H71        15.6000  -31.5583  -42.9523 H         1 UNK         0.1346 
     72 H72        19.4807  -32.0475  -44.7041 H         1 UNK         0.1412 
     73 H73        16.3923  -30.0106  -46.8739 H         1 UNK         0.1426 
     74 H74        18.4587  -30.8832  -48.0181 H         1 UNK         0.0716 
     75 H75        19.7919  -31.5094  -47.0826 H         1 UNK         0.0716 
     76 H76        21.8087  -29.9172  -46.2435 H         1 UNK         0.0695 
     77 H77        20.6441  -29.9301  -44.9426 H         1 UNK         0.0695 
     78 H78        21.8901  -27.3707  -46.0827 H         1 UNK         0.0983 
     79 H79        19.7761  -27.7791  -44.1544 H         1 UNK         0.3095 
     80 H80        19.6139  -25.9137  -42.2676 H         1 UNK         0.0454 
     81 H81        19.5569  -23.3316  -43.9292 H         1 UNK         0.0851 
     82 H82        20.5871  -23.6275  -42.5340 H         1 UNK         0.0851 
     83 H83        18.8483  -23.5358  -42.3282 H         1 UNK         0.0851 
     84 H84        18.2591  -25.9180  -44.8327 H         1 UNK         0.2976 
     85 H85        23.9754  -28.3300  -46.0087 H         1 UNK         0.3116 
     86 H86        25.9626  -28.9012  -45.3082 H         1 UNK         0.0646 
     87 H87        24.4839  -30.3506  -43.0511 H         1 UNK         0.0847 
     88 H88        24.8478  -30.9981  -44.6484 H         1 UNK         0.0847 
     89 H89        26.1492  -30.6449  -43.5234 H         1 UNK         0.0847 
     90 H90        24.1590  -27.3342  -42.7910 H         1 UNK         0.3040 
     91 H91        24.5755  -25.7215  -41.3349 H         1 UNK         0.1015 
     92 H92        26.6388  -24.4060  -41.2550 H         1 UNK         0.0786 
     93 H93        26.2098  -24.6807  -42.9348 H         1 UNK         0.0786 
     94 H94        27.5143  -25.6050  -42.1885 H         1 UNK         0.0786 
     95 H95        25.6985  -28.7875  -41.1035 H         1 UNK         0.3172 
     96 H96        25.6571  -28.7866  -38.2526 H         1 UNK         0.0595 
     97 H97        28.3215  -29.4641  -39.6501 H         1 UNK         0.0839 
     98 H98        27.9573  -29.8101  -37.9649 H         1 UNK         0.0839 
     99 H99        28.0736  -28.1461  -38.5066 H         1 UNK         0.0839 
    100 H100       25.4264  -30.9171  -37.5045 H         1 UNK         0.2998 
    101 H101       24.7613  -33.0007  -37.4019 H         1 UNK         0.0822 
    102 H102       25.7743  -34.7151  -38.9056 H         1 UNK         0.0787 
    103 H103       26.4083  -33.4516  -39.9479 H         1 UNK         0.0787 
    104 H104       26.9719  -33.5908  -38.2869 H         1 UNK         0.0787 
    105 H105       24.5681  -32.5690  -40.9504 H         1 UNK         0.3055 
    106 H106       21.9570  -33.9455  -41.0587 H         1 UNK         0.1106 
    107 H107       23.7096  -34.5413  -42.7073 H         1 UNK         0.0828 
    108 H108       22.3325  -33.8155  -43.5195 H         1 UNK         0.0828 
    109 H109       23.7933  -32.8716  -43.2653 H         1 UNK         0.0828 
    110 H110       21.2566  -32.0448  -39.6220 H         1 UNK         0.2931 
    111 H111       19.8659  -30.3813  -39.2650 H         1 UNK         0.0412 
    112 H112       22.8457  -29.8877  -39.9595 H         1 UNK         0.3472 
    113 H113       22.8821  -28.1400  -40.0241 H         1 UNK         0.3472 
    114 H114       18.4349  -29.3308  -41.0400 H         1 UNK         0.0970 
    115 H115       19.3068  -30.1977  -42.2661 H         1 UNK         0.0970 
    116 H116       17.4750  -33.5438  -42.3458 H         1 UNK         0.0612 
    117 H117       19.0979  -32.9332  -42.5463 H         1 UNK         0.0612 
@<TRIPOS>BOND
     1    1    2 1    
     2    1   62 1    
     3    1   63 1    
     4    1   64 1    
     5    2    3 2    
     6    2    4 am   BACKBONE|DICT|INTERRES
     7    4    5 1    
     8    4   65 1    
     9    5    6 1    
    10    5   25 1    
    11    5   66 1    
    12    6    7 1    
    13    6   67 1    
    14    6   68 1    
    15    7    8 1    
    16    8    9 1    
    17    8   69 1    
    18    8   70 1    
    19    9   10 ar   
    20    9   14 ar   
    21   10   11 ar   
    22   10   71 1    
    23   11   12 ar   
    24   11   61 1    
    25   12   13 ar   
    26   12   72 1    
    27   13   14 ar   
    28   13   15 1    
    29   14   73 1    
    30   15   16 1    
    31   15   74 1    
    32   15   75 1    
    33   16   17 1    
    34   17   18 1    
    35   17   76 1    
    36   17   77 1    
    37   18   19 1    
    38   18   27 1    
    39   18   78 1    
    40   19   20 am   BACKBONE|DICT|INTERRES
    41   19   79 1    
    42   20   21 2    
    43   20   22 1    
    44   22   23 1    
    45   22   24 1    
    46   22   80 1    
    47   23   81 1    
    48   23   82 1    
    49   23   83 1    
    50   24   25 am   BACKBONE|DICT|INTERRES
    51   24   84 1    
    52   25   26 2    
    53   27   28 2    
    54   27   29 am   BACKBONE|DICT|INTERRES
    55   29   30 1    
    56   29   85 1    
    57   30   31 1    
    58   30   32 1    
    59   30   86 1    
    60   31   87 1    
    61   31   88 1    
    62   31   89 1    
    63   32   33 2    
    64   32   34 am   BACKBONE|DICT|INTERRES
    65   34   35 1    
    66   34   90 1    
    67   35   36 1    
    68   35   37 1    
    69   35   91 1    
    70   36   92 1    
    71   36   93 1    
    72   36   94 1    
    73   37   38 2    
    74   37   39 am   BACKBONE|DICT|INTERRES
    75   39   40 1    
    76   39   95 1    
    77   40   41 1    
    78   40   42 1    
    79   40   96 1    
    80   41   97 1    
    81   41   98 1    
    82   41   99 1    
    83   42   43 2    
    84   42   44 am   BACKBONE|DICT|INTERRES
    85   44   45 1    
    86   44  100 1    
    87   45   46 1    
    88   45   47 1    
    89   45  101 1    
    90   46  102 1    
    91   46  103 1    
    92   46  104 1    
    93   47   48 2    
    94   47   49 am   BACKBONE|DICT|INTERRES
    95   49   50 1    
    96   49  105 1    
    97   50   51 1    
    98   50   52 1    
    99   50  106 1    
   100   51  107 1    
   101   51  108 1    
   102   51  109 1    
   103   52   53 2    
   104   52   54 am   BACKBONE|DICT|INTERRES
   105   54   55 1    
   106   54  110 1    
   107   55   56 1    
   108   55   59 1    
   109   55  111 1    
   110   56   57 am   BACKBONE|DICT|INTERRES
   111   56   58 2    
   112   57  112 1    
   113   57  113 1    
   114   59   60 1    
   115   59  114 1    
   116   59  115 1    
   117   60   61 1    
   118   61  116 1    
   119   61  117 1    
@<TRIPOS>SUBSTRUCTURE
     1 UNK         1 GROUP             0       ****    0 ROOT    
