@<TRIPOS>MOLECULE
3R8
117   119    1
SMALL
USER_CHARGES


@<TRIPOS>ATOM
      1 CA         15.7672  -26.2165  -46.1800 C.3       0 UNK        -0.2013 
      2 C          17.1314  -25.9294  -46.7896 C.2       0 UNK         0.4866 
      3 O          17.3648  -24.8131  -47.2529 O.2       0 UNK        -0.5176 
      4 N          18.0249  -26.9291  -46.8123 N.am      1 UNK        -0.4884 
      5 CA         19.3737  -26.8361  -47.3834 C.3       1 UNK         0.0853 
      6 C6         20.0125  -28.2356  -47.6098 C.3       10 UNK        -0.0849 
      7 S7         20.3651  -29.1957  -46.0905 S.3       10 UNK        -0.2776 
      8 C8         18.9180  -30.2853  -45.9263 C.3       10 UNK         0.0316 
      9 C9         18.4329  -30.3008  -44.4840 C.ar      10 UNK        -0.0863 
     10 C10        18.9349  -31.2372  -43.5765 C.ar      10 UNK        -0.1009 
     11 C11        18.5001  -31.2447  -42.2459 C.ar      10 UNK        -0.0712 
     12 C12        17.5629  -30.2960  -41.8219 C.ar      10 UNK        -0.0894 
     13 C13        17.0455  -29.3610  -42.7242 C.ar      10 UNK        -0.0745 
     14 C14        17.4804  -29.3756  -44.0521 C.ar      10 UNK        -0.0972 
     15 C15        15.9832  -28.3608  -42.2890 C.3       10 UNK         0.0209 
     16 S16        16.5212  -26.6377  -42.5322 S.3       10 UNK        -0.2568 
     17 C17        17.5287  -26.3355  -41.0439 C.3       10 UNK        -0.0983 
     18 CA         19.0466  -26.5751  -41.2456 C.3       3 UNK         0.0876 
     19 N          19.5721  -25.9107  -42.4467 N.am      3 UNK        -0.4424 
     20 C          20.8243  -26.0234  -42.9101 C.2       2 UNK         0.4918 
     21 O          21.7119  -26.6635  -42.3410 O.2       2 UNK        -0.4875 
     22 CA         21.0985  -25.3452  -44.2593 C.3       2 UNK         0.0481 
     23 CB         22.6075  -25.3029  -44.5877 C.3       2 UNK        -0.1831 
     24 N          20.3369  -26.0844  -45.2638 N.am      2 UNK        -0.4498 
     25 C          20.2811  -25.8728  -46.5851 C.2       1 UNK         0.5027 
     26 O          20.8700  -24.9634  -47.1717 O.2       1 UNK        -0.4969 
     27 C          19.8019  -26.1777  -39.9608 C.2       3 UNK         0.5005 
     28 O          20.0434  -27.0327  -39.1089 O.2       3 UNK        -0.5279 
     29 N          20.1721  -24.8917  -39.8560 N.am      4 UNK        -0.4463 
     30 CA         20.9091  -24.3213  -38.7240 C.3       4 UNK         0.0283 
     31 CB         20.8642  -22.7870  -38.8051 C.3       4 UNK        -0.1875 
     32 C          22.3642  -24.8120  -38.6364 C.2       4 UNK         0.4949 
     33 O          22.8900  -24.9435  -37.5311 O.2       4 UNK        -0.5039 
     34 N          22.9833  -25.0826  -39.7941 N.am      5 UNK        -0.4663 
     35 CA         24.3232  -25.6687  -39.8912 C.3       5 UNK         0.0242 
     36 CB         24.9312  -25.3181  -41.2588 C.3       5 UNK        -0.1982 
     37 C          24.3081  -27.1947  -39.6987 C.2       5 UNK         0.5017 
     38 O          25.3424  -27.7605  -39.3441 O.2       5 UNK        -0.5012 
     39 N          23.1474  -27.8187  -39.9539 N.am      6 UNK        -0.4439 
     40 CA         22.8829  -29.2589  -39.9746 C.3       6 UNK         0.0297 
     41 CB         23.0222  -29.8751  -38.5668 C.3       6 UNK        -0.2006 
     42 C          23.7356  -29.9664  -41.0421 C.2       6 UNK         0.4892 
     43 O          24.4780  -30.8995  -40.7291 O.2       6 UNK        -0.5089 
     44 N          23.6368  -29.4715  -42.2845 N.am      7 UNK        -0.4243 
     45 CA         24.3191  -30.0244  -43.4543 C.3       7 UNK         0.0196 
     46 CB         24.1522  -29.0654  -44.6433 C.3       7 UNK        -0.2007 
     47 C          23.7922  -31.4307  -43.7878 C.2       7 UNK         0.5020 
     48 O          22.6006  -31.5822  -44.0592 O.2       7 UNK        -0.5147 
     49 N          24.6944  -32.4217  -43.7546 N.am      8 UNK        -0.4734 
     50 CA         24.4372  -33.8620  -43.8656 C.3       8 UNK         0.0238 
     51 CB         23.8543  -34.2409  -45.2473 C.3       8 UNK        -0.1912 
     52 C          23.6088  -34.3728  -42.6717 C.2       8 UNK         0.5038 
     53 O          24.1954  -34.6842  -41.6343 O.2       8 UNK        -0.5046 
     54 N          22.2824  -34.4543  -42.8399 N.am      9 UNK        -0.4200 
     55 CA         21.2976  -34.9104  -41.8407 C.3       9 UNK         0.0839 
     56 C          21.4241  -36.4111  -41.4338 C.2       9 UNK         0.5513 
     57 N          22.0796  -37.2551  -42.2220 N.am      9 UNK        -0.7519 
     58 O          20.8936  -36.8294  -40.4077 O.2       9 UNK        -0.4960 
     59 C59        21.1779  -33.9605  -40.6095 C.3       10 UNK        -0.0876 
     60 S60        20.8109  -32.2340  -41.0706 S.3       10 UNK        -0.2414 
     61 C61        19.0067  -32.3129  -41.2872 C.3       10 UNK         0.0169 
     62 H62        15.6291  -25.6252  -45.2755 H         1 UNK         0.0903 
     63 H63        14.9800  -25.9460  -46.8833 H         1 UNK         0.0903 
     64 H64        15.6392  -27.2674  -45.9256 H         1 UNK         0.0903 
     65 H65        17.7792  -27.8269  -46.4270 H         1 UNK         0.3096 
     66 H66        19.2588  -26.3853  -48.3724 H         1 UNK         0.1121 
     67 H67        19.3810  -28.8294  -48.2725 H         1 UNK         0.0849 
     68 H68        20.9553  -28.1200  -48.1478 H         1 UNK         0.0849 
     69 H69        19.1925  -31.2921  -46.2451 H         1 UNK         0.0865 
     70 H70        18.1122  -29.9670  -46.5886 H         1 UNK         0.0865 
     71 H71        19.6718  -31.9593  -43.9026 H         1 UNK         0.1346 
     72 H72        17.2184  -30.3014  -40.7968 H         1 UNK         0.1412 
     73 H73        17.0727  -28.6572  -44.7449 H         1 UNK         0.1426 
     74 H74        15.6903  -28.5162  -41.2496 H         1 UNK         0.0716 
     75 H75        15.0853  -28.5292  -42.8851 H         1 UNK         0.0716 
     76 H76        17.1520  -26.9524  -40.2258 H         1 UNK         0.0695 
     77 H77        17.3437  -25.3014  -40.7459 H         1 UNK         0.0695 
     78 H78        19.2018  -27.6473  -41.3883 H         1 UNK         0.0983 
     79 H79        18.8963  -25.3894  -42.9871 H         1 UNK         0.3095 
     80 H80        20.7174  -24.3236  -44.2131 H         1 UNK         0.0454 
     81 H81        22.8140  -24.7448  -45.4997 H         1 UNK         0.0851 
     82 H82        23.0211  -26.3035  -44.7074 H         1 UNK         0.0851 
     83 H83        23.1626  -24.8072  -43.7918 H         1 UNK         0.0851 
     84 H84        19.8293  -26.8845  -44.9081 H         1 UNK         0.2976 
     85 H85        19.9229  -24.2610  -40.6046 H         1 UNK         0.3116 
     86 H86        20.4033  -24.6277  -37.8056 H         1 UNK         0.0646 
     87 H87        21.3846  -22.3372  -37.9583 H         1 UNK         0.0847 
     88 H88        19.8389  -22.4171  -38.7846 H         1 UNK         0.0847 
     89 H89        21.3393  -22.4139  -39.7132 H         1 UNK         0.0847 
     90 H90        22.4745  -24.9600  -40.6579 H         1 UNK         0.3040 
     91 H91        24.9577  -25.2392  -39.1123 H         1 UNK         0.1015 
     92 H92        24.9235  -24.2430  -41.4386 H         1 UNK         0.0786 
     93 H93        24.3939  -25.8045  -42.0731 H         1 UNK         0.0786 
     94 H94        25.9691  -25.6490  -41.3166 H         1 UNK         0.0786 
     95 H95        22.3855  -27.2406  -40.2855 H         1 UNK         0.3172 
     96 H96        21.8419  -29.3730  -40.2815 H         1 UNK         0.0595 
     97 H97        24.0473  -29.8269  -38.1986 H         1 UNK         0.0839 
     98 H98        22.7295  -30.9258  -38.5758 H         1 UNK         0.0839 
     99 H99        22.3811  -29.3652  -37.8478 H         1 UNK         0.0839 
    100 H100       22.9953  -28.7063  -42.4495 H         1 UNK         0.2998 
    101 H101       25.3840  -30.0884  -43.2206 H         1 UNK         0.0822 
    102 H102       23.1008  -28.8881  -44.8719 H         1 UNK         0.0787 
    103 H103       24.6215  -28.1027  -44.4415 H         1 UNK         0.0787 
    104 H104       24.6176  -29.4718  -45.5422 H         1 UNK         0.0787 
    105 H105       25.6396  -32.1809  -43.4880 H         1 UNK         0.3055 
    106 H106       25.4092  -34.3523  -43.7865 H         1 UNK         0.1106 
    107 H107       23.6950  -35.3175  -45.3203 H         1 UNK         0.0828 
    108 H108       22.9012  -33.7556  -45.4564 H         1 UNK         0.0828 
    109 H109       24.5416  -33.9656  -46.0472 H         1 UNK         0.0828 
    110 H110       21.8993  -34.1249  -43.7138 H         1 UNK         0.2931 
    111 H111       20.3428  -34.8678  -42.3646 H         1 UNK         0.0412 
    112 H112       22.5069  -36.9321  -43.0750 H         1 UNK         0.3472 
    113 H113       22.1476  -38.2257  -41.9582 H         1 UNK         0.3472 
    114 H114       20.3975  -34.3020  -39.9270 H         1 UNK         0.0970 
    115 H115       22.1039  -33.9703  -40.0325 H         1 UNK         0.0970 
    116 H116       18.7209  -33.2880  -41.6823 H         1 UNK         0.0612 
    117 H117       18.5314  -32.2238  -40.3092 H         1 UNK         0.0612 
@<TRIPOS>BOND
     1    1    2 1    
     2    1   62 1    
     3    1   63 1    
     4    1   64 1    
     5    2    3 2    
     6    2    4 am   BACKBONE|DICT|INTERRES
     7    4    5 1    
     8    4   65 1    
     9    5    6 1    
    10    5   25 1    
    11    5   66 1    
    12    6    7 1    
    13    6   67 1    
    14    6   68 1    
    15    7    8 1    
    16    8    9 1    
    17    8   69 1    
    18    8   70 1    
    19    9   10 ar   
    20    9   14 ar   
    21   10   11 ar   
    22   10   71 1    
    23   11   12 ar   
    24   11   61 1    
    25   12   13 ar   
    26   12   72 1    
    27   13   14 ar   
    28   13   15 1    
    29   14   73 1    
    30   15   16 1    
    31   15   74 1    
    32   15   75 1    
    33   16   17 1    
    34   17   18 1    
    35   17   76 1    
    36   17   77 1    
    37   18   19 1    
    38   18   27 1    
    39   18   78 1    
    40   19   20 am   BACKBONE|DICT|INTERRES
    41   19   79 1    
    42   20   21 2    
    43   20   22 1    
    44   22   23 1    
    45   22   24 1    
    46   22   80 1    
    47   23   81 1    
    48   23   82 1    
    49   23   83 1    
    50   24   25 am   BACKBONE|DICT|INTERRES
    51   24   84 1    
    52   25   26 2    
    53   27   28 2    
    54   27   29 am   BACKBONE|DICT|INTERRES
    55   29   30 1    
    56   29   85 1    
    57   30   31 1    
    58   30   32 1    
    59   30   86 1    
    60   31   87 1    
    61   31   88 1    
    62   31   89 1    
    63   32   33 2    
    64   32   34 am   BACKBONE|DICT|INTERRES
    65   34   35 1    
    66   34   90 1    
    67   35   36 1    
    68   35   37 1    
    69   35   91 1    
    70   36   92 1    
    71   36   93 1    
    72   36   94 1    
    73   37   38 2    
    74   37   39 am   BACKBONE|DICT|INTERRES
    75   39   40 1    
    76   39   95 1    
    77   40   41 1    
    78   40   42 1    
    79   40   96 1    
    80   41   97 1    
    81   41   98 1    
    82   41   99 1    
    83   42   43 2    
    84   42   44 am   BACKBONE|DICT|INTERRES
    85   44   45 1    
    86   44  100 1    
    87   45   46 1    
    88   45   47 1    
    89   45  101 1    
    90   46  102 1    
    91   46  103 1    
    92   46  104 1    
    93   47   48 2    
    94   47   49 am   BACKBONE|DICT|INTERRES
    95   49   50 1    
    96   49  105 1    
    97   50   51 1    
    98   50   52 1    
    99   50  106 1    
   100   51  107 1    
   101   51  108 1    
   102   51  109 1    
   103   52   53 2    
   104   52   54 am   BACKBONE|DICT|INTERRES
   105   54   55 1    
   106   54  110 1    
   107   55   56 1    
   108   55   59 1    
   109   55  111 1    
   110   56   57 am   BACKBONE|DICT|INTERRES
   111   56   58 2    
   112   57  112 1    
   113   57  113 1    
   114   59   60 1    
   115   59  114 1    
   116   59  115 1    
   117   60   61 1    
   118   61  116 1    
   119   61  117 1    
@<TRIPOS>SUBSTRUCTURE
     1 UNK         1 GROUP             0       ****    0 ROOT    
