@<TRIPOS>MOLECULE
3R8
117   119    1
SMALL
USER_CHARGES


@<TRIPOS>ATOM
      1 CA         14.7241  -25.3085  -41.0814 C.3       0 UNK        -0.2013 
      2 C          15.5732  -24.9975  -42.3049 C.2       0 UNK         0.4866 
      3 O          15.7646  -23.8267  -42.6362 O.2       0 UNK        -0.5176 
      4 N          16.0758  -26.0359  -42.9835 N.am      1 UNK        -0.4884 
      5 CA         16.9626  -25.9236  -44.1458 C.3       1 UNK         0.0853 
      6 C6         17.1055  -27.2737  -44.8863 C.3       10 UNK        -0.0849 
      7 S7         15.5634  -27.8075  -45.7043 S.3       10 UNK        -0.2776 
      8 C8         15.5179  -29.6011  -45.3359 C.3       10 UNK         0.0316 
      9 C9         16.8278  -30.3497  -45.5948 C.ar      10 UNK        -0.0863 
     10 C10        17.1801  -31.4153  -44.7581 C.ar      10 UNK        -0.1009 
     11 C11        18.3923  -32.0902  -44.9323 C.ar      10 UNK        -0.0712 
     12 C12        19.2609  -31.6898  -45.9503 C.ar      10 UNK        -0.0894 
     13 C13        18.9327  -30.6164  -46.7810 C.ar      10 UNK        -0.0745 
     14 C14        17.6992  -29.9790  -46.6276 C.ar      10 UNK        -0.0972 
     15 C15        19.9494  -30.0927  -47.7847 C.3       10 UNK         0.0209 
     16 S16        20.6808  -28.5078  -47.2426 S.3       10 UNK        -0.2568 
     17 C17        21.1914  -28.8834  -45.5268 C.3       10 UNK        -0.0983 
     18 CA         21.9045  -27.7066  -44.8165 C.3       3 UNK         0.0876 
     19 N          21.1229  -26.4668  -44.8974 N.am      3 UNK        -0.4424 
     20 C          21.4476  -25.2733  -44.3787 C.2       2 UNK         0.4918 
     21 O          22.5065  -25.0445  -43.7941 O.2       2 UNK        -0.4875 
     22 CA         20.3846  -24.1617  -44.4794 C.3       2 UNK         0.0481 
     23 CB         20.7133  -23.2148  -45.6439 C.3       2 UNK        -0.1831 
     24 N          19.0090  -24.6594  -44.6288 N.am      2 UNK        -0.4498 
     25 C          18.3609  -25.4216  -43.7338 C.2       1 UNK         0.5027 
     26 O          18.8580  -25.7973  -42.6689 O.2       1 UNK        -0.4969 
     27 C          22.2514  -28.1102  -43.3651 C.2       3 UNK         0.5005 
     28 O          23.3030  -28.7137  -43.1483 O.2       3 UNK        -0.5279 
     29 N          21.4047  -27.7194  -42.3954 N.am      4 UNK        -0.4463 
     30 CA         21.5943  -27.9267  -40.9555 C.3       4 UNK         0.0283 
     31 CB         20.3852  -27.3606  -40.1955 C.3       4 UNK        -0.1875 
     32 C          22.9012  -27.3350  -40.3937 C.2       4 UNK         0.4949 
     33 O          23.3976  -27.8323  -39.3833 O.2       4 UNK        -0.5039 
     34 N          23.4451  -26.3030  -41.0566 N.am      5 UNK        -0.4663 
     35 CA         24.7430  -25.7091  -40.7320 C.3       5 UNK         0.0242 
     36 CB         24.8388  -24.3187  -41.3803 C.3       5 UNK        -0.1982 
     37 C          25.9344  -26.5856  -41.1613 C.2       5 UNK         0.5017 
     38 O          27.0096  -26.4474  -40.5768 O.2       5 UNK        -0.5012 
     39 N          25.7393  -27.4564  -42.1634 N.am      6 UNK        -0.4439 
     40 CA         26.7474  -28.4056  -42.6377 C.3       6 UNK         0.0297 
     41 CB         26.5458  -28.6893  -44.1359 C.3       6 UNK        -0.2006 
     42 C          26.7043  -29.7023  -41.8172 C.2       6 UNK         0.4892 
     43 O          27.7564  -30.1741  -41.3840 O.2       6 UNK        -0.5089 
     44 N          25.4978  -30.2385  -41.5951 N.am      7 UNK        -0.4243 
     45 CA         25.2452  -31.4067  -40.7560 C.3       7 UNK         0.0196 
     46 CB         25.5310  -32.7040  -41.5348 C.3       7 UNK        -0.2007 
     47 C          23.7887  -31.3573  -40.2950 C.2       7 UNK         0.5020 
     48 O          22.9051  -31.1313  -41.1214 O.2       7 UNK        -0.5147 
     49 N          23.5493  -31.5948  -39.0001 N.am      8 UNK        -0.4734 
     50 CA         22.2275  -31.5444  -38.3642 C.3       8 UNK         0.0238 
     51 CB         22.4113  -31.2964  -36.8551 C.3       8 UNK        -0.1912 
     52 C          21.3766  -32.7966  -38.6623 C.2       8 UNK         0.5038 
     53 O          20.9984  -33.5236  -37.7411 O.2       8 UNK        -0.5046 
     54 N          21.1137  -33.0349  -39.9504 N.am      9 UNK        -0.4200 
     55 CA         20.2462  -34.0963  -40.4751 C.3       9 UNK         0.0839 
     56 C          18.7453  -33.9130  -40.1097 C.2       9 UNK         0.5513 
     57 N          17.9648  -34.9841  -40.1649 N.am      9 UNK        -0.7519 
     58 O          18.2758  -32.8186  -39.8031 O.2       9 UNK        -0.4960 
     59 C59        20.4660  -34.2899  -41.9994 C.3       10 UNK        -0.0876 
     60 S60        20.2189  -32.7690  -42.9822 S.3       10 UNK        -0.2414 
     61 C61        18.7874  -33.2299  -44.0054 C.3       10 UNK         0.0169 
     62 H62        13.7247  -24.8913  -41.2021 H         1 UNK         0.0903 
     63 H63        14.6256  -26.3811  -40.9147 H         1 UNK         0.0903 
     64 H64        15.1729  -24.8672  -40.1919 H         1 UNK         0.0903 
     65 H65        15.8966  -26.9756  -42.6608 H         1 UNK         0.3096 
     66 H66        16.5272  -25.1917  -44.8304 H         1 UNK         0.1121 
     67 H67        17.4488  -28.0469  -44.1956 H         1 UNK         0.0849 
     68 H68        17.8660  -27.2093  -45.6673 H         1 UNK         0.0849 
     69 H69        15.2221  -29.7193  -44.2922 H         1 UNK         0.0865 
     70 H70        14.7289  -30.0612  -45.9319 H         1 UNK         0.0865 
     71 H71        16.5165  -31.7110  -43.9567 H         1 UNK         0.1346 
     72 H72        20.2156  -32.1860  -46.0605 H         1 UNK         0.1412 
     73 H73        17.4515  -29.1513  -47.2775 H         1 UNK         0.1426 
     74 H74        20.7497  -30.8182  -47.9389 H         1 UNK         0.0716 
     75 H75        19.4693  -29.9528  -48.7542 H         1 UNK         0.0716 
     76 H76        20.3020  -29.1662  -44.9600 H         1 UNK         0.0695 
     77 H77        21.8370  -29.7639  -45.5472 H         1 UNK         0.0695 
     78 H78        22.8503  -27.5189  -45.3290 H         1 UNK         0.0983 
     79 H79        20.2494  -26.5423  -45.3953 H         1 UNK         0.3095 
     80 H80        20.4274  -23.5885  -43.5510 H         1 UNK         0.0454 
     81 H81        20.6637  -23.7243  -46.6070 H         1 UNK         0.0851 
     82 H82        20.0275  -22.3680  -45.6744 H         1 UNK         0.0851 
     83 H83        21.7206  -22.8078  -45.5430 H         1 UNK         0.0851 
     84 H84        18.5340  -24.4035  -45.4832 H         1 UNK         0.2976 
     85 H85        20.5798  -27.1938  -42.6609 H         1 UNK         0.3116 
     86 H86        21.6181  -29.0018  -40.7842 H         1 UNK         0.0646 
     87 H87        20.2930  -26.2822  -40.3315 H         1 UNK         0.0847 
     88 H88        19.4544  -27.8207  -40.5277 H         1 UNK         0.0847 
     89 H89        20.4743  -27.5479  -39.1245 H         1 UNK         0.0847 
     90 H90        22.9781  -25.9501  -41.8848 H         1 UNK         0.3040 
     91 H91        24.8031  -25.5846  -39.6483 H         1 UNK         0.1015 
     92 H92        24.8094  -24.3781  -42.4690 H         1 UNK         0.0786 
     93 H93        25.7721  -23.8245  -41.1067 H         1 UNK         0.0786 
     94 H94        24.0230  -23.6718  -41.0574 H         1 UNK         0.0786 
     95 H95        24.8031  -27.5696  -42.5396 H         1 UNK         0.3172 
     96 H96        27.7395  -27.9641  -42.5197 H         1 UNK         0.0595 
     97 H97        27.3282  -29.3497  -44.5121 H         1 UNK         0.0839 
     98 H98        26.5877  -27.7714  -44.7222 H         1 UNK         0.0839 
     99 H99        25.5907  -29.1735  -44.3399 H         1 UNK         0.0839 
    100 H100       24.6679  -29.8013  -41.9899 H         1 UNK         0.2998 
    101 H101       25.8950  -31.3614  -39.8792 H         1 UNK         0.0822 
    102 H102       25.3175  -33.5816  -40.9234 H         1 UNK         0.0787 
    103 H103       24.9173  -32.7742  -42.4340 H         1 UNK         0.0787 
    104 H104       26.5764  -32.7665  -41.8373 H         1 UNK         0.0787 
    105 H105       24.3268  -31.8187  -38.3952 H         1 UNK         0.3055 
    106 H106       21.6811  -30.6895  -38.7703 H         1 UNK         0.1106 
    107 H107       22.9489  -30.3662  -36.6695 H         1 UNK         0.0828 
    108 H108       21.4468  -31.2149  -36.3520 H         1 UNK         0.0828 
    109 H109       22.9625  -32.1060  -36.3752 H         1 UNK         0.0828 
    110 H110       21.4862  -32.3841  -40.6362 H         1 UNK         0.2931 
    111 H111       20.5687  -35.0183  -39.9870 H         1 UNK         0.0412 
    112 H112       16.9865  -34.8883  -39.9404 H         1 UNK         0.3472 
    113 H113       18.3343  -35.8893  -40.4115 H         1 UNK         0.3472 
    114 H114       21.4895  -34.6258  -42.1728 H         1 UNK         0.0970 
    115 H115       19.8334  -35.0925  -42.3826 H         1 UNK         0.0970 
    116 H116       19.0332  -34.1107  -44.6003 H         1 UNK         0.0612 
    117 H117       17.9566  -33.5087  -43.3550 H         1 UNK         0.0612 
@<TRIPOS>BOND
     1    1    2 1    
     2    1   62 1    
     3    1   63 1    
     4    1   64 1    
     5    2    3 2    
     6    2    4 am   BACKBONE|DICT|INTERRES
     7    4    5 1    
     8    4   65 1    
     9    5    6 1    
    10    5   25 1    
    11    5   66 1    
    12    6    7 1    
    13    6   67 1    
    14    6   68 1    
    15    7    8 1    
    16    8    9 1    
    17    8   69 1    
    18    8   70 1    
    19    9   10 ar   
    20    9   14 ar   
    21   10   11 ar   
    22   10   71 1    
    23   11   12 ar   
    24   11   61 1    
    25   12   13 ar   
    26   12   72 1    
    27   13   14 ar   
    28   13   15 1    
    29   14   73 1    
    30   15   16 1    
    31   15   74 1    
    32   15   75 1    
    33   16   17 1    
    34   17   18 1    
    35   17   76 1    
    36   17   77 1    
    37   18   19 1    
    38   18   27 1    
    39   18   78 1    
    40   19   20 am   BACKBONE|DICT|INTERRES
    41   19   79 1    
    42   20   21 2    
    43   20   22 1    
    44   22   23 1    
    45   22   24 1    
    46   22   80 1    
    47   23   81 1    
    48   23   82 1    
    49   23   83 1    
    50   24   25 am   BACKBONE|DICT|INTERRES
    51   24   84 1    
    52   25   26 2    
    53   27   28 2    
    54   27   29 am   BACKBONE|DICT|INTERRES
    55   29   30 1    
    56   29   85 1    
    57   30   31 1    
    58   30   32 1    
    59   30   86 1    
    60   31   87 1    
    61   31   88 1    
    62   31   89 1    
    63   32   33 2    
    64   32   34 am   BACKBONE|DICT|INTERRES
    65   34   35 1    
    66   34   90 1    
    67   35   36 1    
    68   35   37 1    
    69   35   91 1    
    70   36   92 1    
    71   36   93 1    
    72   36   94 1    
    73   37   38 2    
    74   37   39 am   BACKBONE|DICT|INTERRES
    75   39   40 1    
    76   39   95 1    
    77   40   41 1    
    78   40   42 1    
    79   40   96 1    
    80   41   97 1    
    81   41   98 1    
    82   41   99 1    
    83   42   43 2    
    84   42   44 am   BACKBONE|DICT|INTERRES
    85   44   45 1    
    86   44  100 1    
    87   45   46 1    
    88   45   47 1    
    89   45  101 1    
    90   46  102 1    
    91   46  103 1    
    92   46  104 1    
    93   47   48 2    
    94   47   49 am   BACKBONE|DICT|INTERRES
    95   49   50 1    
    96   49  105 1    
    97   50   51 1    
    98   50   52 1    
    99   50  106 1    
   100   51  107 1    
   101   51  108 1    
   102   51  109 1    
   103   52   53 2    
   104   52   54 am   BACKBONE|DICT|INTERRES
   105   54   55 1    
   106   54  110 1    
   107   55   56 1    
   108   55   59 1    
   109   55  111 1    
   110   56   57 am   BACKBONE|DICT|INTERRES
   111   56   58 2    
   112   57  112 1    
   113   57  113 1    
   114   59   60 1    
   115   59  114 1    
   116   59  115 1    
   117   60   61 1    
   118   61  116 1    
   119   61  117 1    
@<TRIPOS>SUBSTRUCTURE
     1 UNK         1 GROUP             0       ****    0 ROOT    
