@<TRIPOS>MOLECULE
3R8
117   119    1
SMALL
USER_CHARGES


@<TRIPOS>ATOM
      1 CA         16.3761  -25.9033  -41.0903 C.3       0 UNK        -0.2013 
      2 C          16.7464  -27.2078  -41.7908 C.2       0 UNK         0.4866 
      3 O          16.7869  -28.2479  -41.1378 O.2       0 UNK        -0.5176 
      4 N          17.0127  -27.2155  -43.1040 N.am      1 UNK        -0.4884 
      5 CA         17.0398  -26.0670  -44.0212 C.3       1 UNK         0.0853 
      6 C6         16.5197  -26.4385  -45.4401 C.3       10 UNK        -0.0849 
      7 S7         14.9020  -27.2929  -45.3917 S.3       10 UNK        -0.2776 
      8 C8         15.2264  -28.8628  -46.2695 C.3       10 UNK         0.0316 
      9 C9         16.4512  -29.6072  -45.7491 C.ar      10 UNK        -0.0863 
     10 C10        16.4770  -30.1180  -44.4463 C.ar      10 UNK        -0.1009 
     11 C11        17.6176  -30.7682  -43.9636 C.ar      10 UNK        -0.0712 
     12 C12        18.7148  -30.9450  -44.8091 C.ar      10 UNK        -0.0894 
     13 C13        18.7064  -30.4339  -46.1093 C.ar      10 UNK        -0.0745 
     14 C14        17.5688  -29.7708  -46.5755 C.ar      10 UNK        -0.0972 
     15 C15        19.9310  -30.5857  -47.0031 C.3       10 UNK         0.0209 
     16 S16        20.9796  -29.0919  -46.9983 S.3       10 UNK        -0.2568 
     17 C17        21.6225  -29.1101  -45.2891 C.3       10 UNK        -0.0983 
     18 CA         22.0975  -27.7425  -44.7424 C.3       3 UNK         0.0876 
     19 N          21.1854  -26.6541  -45.1009 N.am      3 UNK        -0.4424 
     20 C          21.4382  -25.3442  -44.9842 C.2       2 UNK         0.4918 
     21 O          22.5025  -24.8873  -44.5665 O.2       2 UNK        -0.4875 
     22 CA         20.2857  -24.3857  -45.3502 C.3       2 UNK         0.0481 
     23 CB         20.4458  -23.8900  -46.7958 C.3       2 UNK        -0.1831 
     24 N          18.9416  -24.9615  -45.1784 N.am      2 UNK        -0.4498 
     25 C          18.4583  -25.4486  -44.0238 C.2       1 UNK         0.5027 
     26 O          19.1178  -25.4436  -42.9827 O.2       1 UNK        -0.4969 
     27 C          22.3378  -27.8608  -43.2181 C.2       3 UNK         0.5005 
     28 O          23.2751  -28.5530  -42.8146 O.2       3 UNK        -0.5279 
     29 N          21.5110  -27.2029  -42.3850 N.am      4 UNK        -0.4463 
     30 CA         21.6344  -27.1877  -40.9216 C.3       4 UNK         0.0283 
     31 CB         20.4289  -26.4703  -40.2975 C.3       4 UNK        -0.1875 
     32 C          22.9479  -26.5664  -40.4159 C.2       4 UNK         0.4949 
     33 O          23.3822  -26.9067  -39.3170 O.2       4 UNK        -0.5039 
     34 N          23.5976  -25.7347  -41.2439 N.am      5 UNK        -0.4663 
     35 CA         24.9543  -25.2231  -41.0238 C.3       5 UNK         0.0242 
     36 CB         25.2763  -24.1789  -42.1045 C.3       5 UNK        -0.1982 
     37 C          26.0323  -26.3266  -41.0010 C.2       5 UNK         0.5017 
     38 O          27.0608  -26.1434  -40.3497 O.2       5 UNK        -0.5012 
     39 N          25.7708  -27.4500  -41.6853 N.am      6 UNK        -0.4439 
     40 CA         26.5940  -28.6617  -41.6739 C.3       6 UNK         0.0297 
     41 CB         26.7058  -29.1904  -43.1150 C.3       6 UNK        -0.2006 
     42 C          26.0158  -29.7477  -40.7441 C.2       6 UNK         0.4892 
     43 O          26.6184  -30.8165  -40.6388 O.2       6 UNK        -0.5089 
     44 N          24.8648  -29.4710  -40.1069 N.am      7 UNK        -0.4243 
     45 CA         24.0717  -30.3584  -39.2464 C.3       7 UNK         0.0196 
     46 CB         24.8110  -30.6296  -37.9193 C.3       7 UNK        -0.2007 
     47 C          23.6233  -31.6497  -39.9604 C.2       7 UNK         0.5020 
     48 O          23.6341  -32.7221  -39.3542 O.2       7 UNK        -0.5147 
     49 N          23.2451  -31.5285  -41.2422 N.am      8 UNK        -0.4734 
     50 CA         22.9700  -32.6514  -42.1493 C.3       8 UNK         0.0238 
     51 CB         22.6730  -32.1030  -43.5509 C.3       8 UNK        -0.1912 
     52 C          21.8525  -33.6131  -41.7031 C.2       8 UNK         0.5038 
     53 O          21.9589  -34.8104  -41.9730 O.2       8 UNK        -0.5046 
     54 N          20.8237  -33.0847  -41.0282 N.am      9 UNK        -0.4200 
     55 CA         19.7306  -33.8697  -40.4256 C.3       9 UNK         0.0839 
     56 C          19.9931  -34.2608  -38.9405 C.2       9 UNK         0.5513 
     57 N          21.1539  -33.9787  -38.3601 N.am      9 UNK        -0.7519 
     58 O          19.1271  -34.8498  -38.2985 O.2       9 UNK        -0.4960 
     59 C59        18.3462  -33.1889  -40.6103 C.3       10 UNK        -0.0876 
     60 S60        17.8801  -33.0262  -42.3689 S.3       10 UNK        -0.2414 
     61 C61        17.7050  -31.2228  -42.5141 C.3       10 UNK         0.0169 
     62 H62        17.1455  -25.1453  -41.2298 H         1 UNK         0.0903 
     63 H63        15.4279  -25.5203  -41.4661 H         1 UNK         0.0903 
     64 H64        16.2668  -26.0652  -40.0182 H         1 UNK         0.0903 
     65 H65        17.2394  -28.1010  -43.5349 H         1 UNK         0.3096 
     66 H66        16.3758  -25.2885  -43.6429 H         1 UNK         0.1121 
     67 H67        17.2466  -27.0521  -45.9729 H         1 UNK         0.0849 
     68 H68        16.3856  -25.5387  -46.0431 H         1 UNK         0.0849 
     69 H69        15.3282  -28.6502  -47.3349 H         1 UNK         0.0865 
     70 H70        14.3514  -29.5071  -46.1735 H         1 UNK         0.0865 
     71 H71        15.6218  -29.9751  -43.7990 H         1 UNK         0.1346 
     72 H72        19.5899  -31.4599  -44.4386 H         1 UNK         0.1412 
     73 H73        17.5625  -29.3707  -47.5805 H         1 UNK         0.1426 
     74 H74        19.6122  -30.7885  -48.0266 H         1 UNK         0.0716 
     75 H75        20.5272  -31.4461  -46.6947 H         1 UNK         0.0716 
     76 H76        22.4448  -29.8253  -45.2579 H         1 UNK         0.0695 
     77 H77        20.8486  -29.5017  -44.6337 H         1 UNK         0.0695 
     78 H78        23.0639  -27.5151  -45.1974 H         1 UNK         0.0983 
     79 H79        20.2953  -26.9395  -45.4810 H         1 UNK         0.3095 
     80 H80        20.3590  -23.5234  -44.6845 H         1 UNK         0.0454 
     81 H81        20.3533  -24.7042  -47.5156 H         1 UNK         0.0851 
     82 H82        21.4256  -23.4338  -46.9454 H         1 UNK         0.0851 
     83 H83        19.6999  -23.1345  -47.0430 H         1 UNK         0.0851 
     84 H84        18.3560  -24.9840  -46.0008 H         1 UNK         0.2976 
     85 H85        20.7545  -26.6483  -42.7745 H         1 UNK         0.3116 
     86 H86        21.6185  -28.2262  -40.5847 H         1 UNK         0.0646 
     87 H87        19.4926  -26.9490  -40.5826 H         1 UNK         0.0847 
     88 H88        20.3793  -25.4240  -40.6011 H         1 UNK         0.0847 
     89 H89        20.4820  -26.4909  -39.2081 H         1 UNK         0.0847 
     90 H90        23.1625  -25.5024  -42.1271 H         1 UNK         0.3040 
     91 H91        24.9729  -24.7307  -40.0489 H         1 UNK         0.1015 
     92 H92        26.2740  -23.7615  -41.9606 H         1 UNK         0.0786 
     93 H93        24.5714  -23.3477  -42.0759 H         1 UNK         0.0786 
     94 H94        25.2435  -24.6109  -43.1058 H         1 UNK         0.0786 
     95 H95        24.8853  -27.5318  -42.1760 H         1 UNK         0.3172 
     96 H96        27.5999  -28.4309  -41.3178 H         1 UNK         0.0595 
     97 H97        25.7353  -29.4887  -43.5136 H         1 UNK         0.0839 
     98 H98        27.3583  -30.0632  -43.1629 H         1 UNK         0.0839 
     99 H99        27.1258  -28.4378  -43.7824 H         1 UNK         0.0839 
    100 H100       24.4804  -28.5427  -40.2267 H         1 UNK         0.2998 
    101 H101       23.1573  -29.8139  -39.0064 H         1 UNK         0.0822 
    102 H102       25.0921  -29.6991  -37.4260 H         1 UNK         0.0787 
    103 H103       24.1789  -31.1847  -37.2250 H         1 UNK         0.0787 
    104 H104       25.7176  -31.2156  -38.0735 H         1 UNK         0.0787 
    105 H105       23.2776  -30.6070  -41.6624 H         1 UNK         0.3055 
    106 H106       23.8864  -33.2431  -42.2060 H         1 UNK         0.1106 
    107 H107       22.4817  -32.9103  -44.2595 H         1 UNK         0.0828 
    108 H108       23.5151  -31.5272  -43.9354 H         1 UNK         0.0828 
    109 H109       21.7949  -31.4591  -43.5417 H         1 UNK         0.0828 
    110 H110       20.8331  -32.0961  -40.8290 H         1 UNK         0.2931 
    111 H111       19.6672  -34.8264  -40.9474 H         1 UNK         0.0412 
    112 H112       21.9122  -33.5361  -38.8691 H         1 UNK         0.3472 
    113 H113       21.2956  -34.2501  -37.4001 H         1 UNK         0.3472 
    114 H114       17.5616  -33.7772  -40.1306 H         1 UNK         0.0970 
    115 H115       18.3304  -32.2149  -40.1184 H         1 UNK         0.0970 
    116 H116       18.5624  -30.7340  -42.0487 H         1 UNK         0.0612 
    117 H117       16.8239  -30.9077  -41.9531 H         1 UNK         0.0612 
@<TRIPOS>BOND
     1    1    2 1    
     2    1   62 1    
     3    1   63 1    
     4    1   64 1    
     5    2    3 2    
     6    2    4 am   BACKBONE|DICT|INTERRES
     7    4    5 1    
     8    4   65 1    
     9    5    6 1    
    10    5   25 1    
    11    5   66 1    
    12    6    7 1    
    13    6   67 1    
    14    6   68 1    
    15    7    8 1    
    16    8    9 1    
    17    8   69 1    
    18    8   70 1    
    19    9   10 ar   
    20    9   14 ar   
    21   10   11 ar   
    22   10   71 1    
    23   11   12 ar   
    24   11   61 1    
    25   12   13 ar   
    26   12   72 1    
    27   13   14 ar   
    28   13   15 1    
    29   14   73 1    
    30   15   16 1    
    31   15   74 1    
    32   15   75 1    
    33   16   17 1    
    34   17   18 1    
    35   17   76 1    
    36   17   77 1    
    37   18   19 1    
    38   18   27 1    
    39   18   78 1    
    40   19   20 am   BACKBONE|DICT|INTERRES
    41   19   79 1    
    42   20   21 2    
    43   20   22 1    
    44   22   23 1    
    45   22   24 1    
    46   22   80 1    
    47   23   81 1    
    48   23   82 1    
    49   23   83 1    
    50   24   25 am   BACKBONE|DICT|INTERRES
    51   24   84 1    
    52   25   26 2    
    53   27   28 2    
    54   27   29 am   BACKBONE|DICT|INTERRES
    55   29   30 1    
    56   29   85 1    
    57   30   31 1    
    58   30   32 1    
    59   30   86 1    
    60   31   87 1    
    61   31   88 1    
    62   31   89 1    
    63   32   33 2    
    64   32   34 am   BACKBONE|DICT|INTERRES
    65   34   35 1    
    66   34   90 1    
    67   35   36 1    
    68   35   37 1    
    69   35   91 1    
    70   36   92 1    
    71   36   93 1    
    72   36   94 1    
    73   37   38 2    
    74   37   39 am   BACKBONE|DICT|INTERRES
    75   39   40 1    
    76   39   95 1    
    77   40   41 1    
    78   40   42 1    
    79   40   96 1    
    80   41   97 1    
    81   41   98 1    
    82   41   99 1    
    83   42   43 2    
    84   42   44 am   BACKBONE|DICT|INTERRES
    85   44   45 1    
    86   44  100 1    
    87   45   46 1    
    88   45   47 1    
    89   45  101 1    
    90   46  102 1    
    91   46  103 1    
    92   46  104 1    
    93   47   48 2    
    94   47   49 am   BACKBONE|DICT|INTERRES
    95   49   50 1    
    96   49  105 1    
    97   50   51 1    
    98   50   52 1    
    99   50  106 1    
   100   51  107 1    
   101   51  108 1    
   102   51  109 1    
   103   52   53 2    
   104   52   54 am   BACKBONE|DICT|INTERRES
   105   54   55 1    
   106   54  110 1    
   107   55   56 1    
   108   55   59 1    
   109   55  111 1    
   110   56   57 am   BACKBONE|DICT|INTERRES
   111   56   58 2    
   112   57  112 1    
   113   57  113 1    
   114   59   60 1    
   115   59  114 1    
   116   59  115 1    
   117   60   61 1    
   118   61  116 1    
   119   61  117 1    
@<TRIPOS>SUBSTRUCTURE
     1 UNK         1 GROUP             0       ****    0 ROOT    
