@<TRIPOS>MOLECULE
3R8
117   119    1
SMALL
USER_CHARGES


@<TRIPOS>ATOM
      1 CA         14.4342  -23.6465  -44.9885 C.3       0 UNK        -0.2013 
      2 C          14.9830  -25.0399  -45.2558 C.2       0 UNK         0.4866 
      3 O          15.1686  -25.4146  -46.4140 O.2       0 UNK        -0.5176 
      4 N          15.2464  -25.8099  -44.1960 N.am      1 UNK        -0.4884 
      5 CA         15.8269  -27.1495  -44.2481 C.3       1 UNK         0.0853 
      6 C6         14.7710  -28.2255  -44.6216 C.3       10 UNK        -0.0849 
      7 S7         15.4293  -29.8820  -45.0304 S.3       10 UNK        -0.2776 
      8 C8         16.3485  -29.6008  -46.5808 C.3       10 UNK         0.0316 
      9 C9         17.8263  -29.3361  -46.3189 C.ar      10 UNK        -0.0863 
     10 C10        18.6451  -30.3606  -45.8323 C.ar      10 UNK        -0.1009 
     11 C11        20.0016  -30.1291  -45.5889 C.ar      10 UNK        -0.0712 
     12 C12        20.5379  -28.8600  -45.8199 C.ar      10 UNK        -0.0894 
     13 C13        19.7307  -27.8277  -46.3045 C.ar      10 UNK        -0.0745 
     14 C14        18.3826  -28.0786  -46.5748 C.ar      10 UNK        -0.0972 
     15 C15        20.3106  -26.4436  -46.5525 C.3       10 UNK         0.0209 
     16 S16        20.1111  -25.3588  -45.1025 S.3       10 UNK        -0.2568 
     17 C17        21.4947  -25.8893  -44.0355 C.3       10 UNK        -0.0983 
     18 CA         21.0415  -26.2832  -42.6083 C.3       3 UNK         0.0876 
     19 N          20.0471  -27.3588  -42.6147 N.am      3 UNK        -0.4424 
     20 C          19.3680  -27.7862  -41.5410 C.2       2 UNK         0.4918 
     21 O          19.5248  -27.3361  -40.4042 O.2       2 UNK        -0.4875 
     22 CA         18.2954  -28.8582  -41.8099 C.3       2 UNK         0.0481 
     23 CB         17.5047  -29.2604  -40.5471 C.3       2 UNK        -0.1831 
     24 N          17.3960  -28.4597  -42.8985 N.am      2 UNK        -0.4498 
     25 C          16.5625  -27.4089  -42.9209 C.2       1 UNK         0.5027 
     26 O          16.3763  -26.6478  -41.9661 O.2       1 UNK        -0.4969 
     27 C          22.2663  -26.6547  -41.7501 C.2       3 UNK         0.5005 
     28 O          22.8144  -27.7487  -41.9115 O.2       3 UNK        -0.5279 
     29 N          22.7092  -25.7199  -40.8966 N.am      4 UNK        -0.4463 
     30 CA         23.8330  -25.8792  -39.9628 C.3       4 UNK         0.0283 
     31 CB         23.8991  -24.6518  -39.0396 C.3       4 UNK        -0.1875 
     32 C          25.2008  -26.1225  -40.6286 C.2       4 UNK         0.4949 
     33 O          26.1080  -26.6253  -39.9671 O.2       4 UNK        -0.5039 
     34 N          25.3241  -25.7874  -41.9207 N.am      5 UNK        -0.4663 
     35 CA         26.4815  -26.1127  -42.7584 C.3       5 UNK         0.0242 
     36 CB         26.3783  -25.3383  -44.0824 C.3       5 UNK        -0.1982 
     37 C          26.6255  -27.6232  -43.0278 C.2       5 UNK         0.5017 
     38 O          27.7471  -28.0889  -43.2318 O.2       5 UNK        -0.5012 
     39 N          25.5002  -28.3514  -43.0199 N.am      6 UNK        -0.4439 
     40 CA         25.4417  -29.8074  -43.1441 C.3       6 UNK         0.0297 
     41 CB         24.2981  -30.1892  -44.0945 C.3       6 UNK        -0.2006 
     42 C          25.2524  -30.4610  -41.7675 C.2       6 UNK         0.4892 
     43 O          25.9333  -31.4435  -41.4717 O.2       6 UNK        -0.5089 
     44 N          24.3455  -29.8977  -40.9534 N.am      7 UNK        -0.4243 
     45 CA         24.0091  -30.2190  -39.5585 C.3       7 UNK         0.0196 
     46 CB         25.2199  -30.0088  -38.6298 C.3       7 UNK        -0.2007 
     47 C          23.3756  -31.6019  -39.3216 C.2       7 UNK         0.5020 
     48 O          22.4172  -31.6932  -38.5548 O.2       7 UNK        -0.5147 
     49 N          23.8992  -32.6503  -39.9692 N.am      8 UNK        -0.4734 
     50 CA         23.4746  -34.0502  -39.8254 C.3       8 UNK         0.0238 
     51 CB         24.4238  -34.9483  -40.6346 C.3       8 UNK        -0.1912 
     52 C          22.0119  -34.3128  -40.2279 C.2       8 UNK         0.5038 
     53 O          21.3895  -35.2290  -39.6894 O.2       8 UNK        -0.5046 
     54 N          21.4957  -33.4944  -41.1498 N.am      9 UNK        -0.4200 
     55 CA         20.0868  -33.4343  -41.5591 C.3       9 UNK         0.0839 
     56 C          19.1401  -32.7332  -40.5406 C.2       9 UNK         0.5513 
     57 N          19.6293  -32.1384  -39.4584 N.am      9 UNK        -0.7519 
     58 O          17.9266  -32.7510  -40.7272 O.2       9 UNK        -0.4960 
     59 C59        19.9408  -32.8625  -42.9954 C.3       10 UNK        -0.0876 
     60 S60        20.8985  -31.3319  -43.2766 S.3       10 UNK        -0.2414 
     61 C61        20.8976  -31.2498  -45.0924 C.3       10 UNK         0.0169 
     62 H62        14.3149  -23.4528  -43.9226 H         1 UNK         0.0903 
     63 H63        15.1077  -22.8934  -45.3970 H         1 UNK         0.0903 
     64 H64        13.4615  -23.5287  -45.4654 H         1 UNK         0.0903 
     65 H65        15.1418  -25.4534  -43.2525 H         1 UNK         0.3096 
     66 H66        16.5934  -27.1171  -45.0154 H         1 UNK         0.1121 
     67 H67        14.0488  -28.3364  -43.8107 H         1 UNK         0.0849 
     68 H68        14.1901  -27.8924  -45.4831 H         1 UNK         0.0849 
     69 H69        16.2566  -30.4888  -47.2079 H         1 UNK         0.0865 
     70 H70        15.8921  -28.7846  -47.1436 H         1 UNK         0.0865 
     71 H71        18.2258  -31.3402  -45.6454 H         1 UNK         0.1346 
     72 H72        21.5873  -28.6826  -45.6296 H         1 UNK         0.1412 
     73 H73        17.7639  -27.2841  -46.9713 H         1 UNK         0.1426 
     74 H74        21.3642  -26.5086  -46.8290 H         1 UNK         0.0716 
     75 H75        19.8057  -25.9827  -47.4029 H         1 UNK         0.0716 
     76 H76        22.0350  -26.7113  -44.5064 H         1 UNK         0.0695 
     77 H77        22.2009  -25.0578  -43.9913 H         1 UNK         0.0695 
     78 H78        20.5582  -25.4140  -42.1565 H         1 UNK         0.0983 
     79 H79        19.8598  -27.7819  -43.5119 H         1 UNK         0.3095 
     80 H80        18.8197  -29.7469  -42.1565 H         1 UNK         0.0454 
     81 H81        16.9631  -28.4200  -40.1132 H         1 UNK         0.0851 
     82 H82        16.7854  -30.0495  -40.7657 H         1 UNK         0.0851 
     83 H83        18.1762  -29.6401  -39.7769 H         1 UNK         0.0851 
     84 H84        17.4439  -29.0325  -43.7322 H         1 UNK         0.2976 
     85 H85        22.2104  -24.8428  -40.8414 H         1 UNK         0.3116 
     86 H86        23.6214  -26.7563  -39.3473 H         1 UNK         0.0646 
     87 H87        24.7041  -24.7543  -38.3102 H         1 UNK         0.0847 
     88 H88        22.9734  -24.5249  -38.4779 H         1 UNK         0.0847 
     89 H89        24.0834  -23.7341  -39.5995 H         1 UNK         0.0847 
     90 H90        24.5382  -25.3469  -42.3753 H         1 UNK         0.3040 
     91 H91        27.3833  -25.7859  -42.2354 H         1 UNK         0.1015 
     92 H92        26.3498  -24.2619  -43.9120 H         1 UNK         0.0786 
     93 H93        25.4853  -25.6146  -44.6448 H         1 UNK         0.0786 
     94 H94        27.2402  -25.5405  -44.7200 H         1 UNK         0.0786 
     95 H95        24.6281  -27.8871  -42.7898 H         1 UNK         0.3172 
     96 H96        26.3717  -30.1901  -43.5698 H         1 UNK         0.0595 
     97 H97        24.1771  -31.2720  -44.1497 H         1 UNK         0.0839 
     98 H98        24.4902  -29.8315  -45.1060 H         1 UNK         0.0839 
     99 H99        23.3477  -29.7665  -43.7687 H         1 UNK         0.0839 
    100 H100       23.7940  -29.1319  -41.3398 H         1 UNK         0.2998 
    101 H101       23.2523  -29.4853  -39.2753 H         1 UNK         0.0822 
    102 H102       25.6130  -28.9961  -38.7149 H         1 UNK         0.0787 
    103 H103       24.9413  -30.1609  -37.5861 H         1 UNK         0.0787 
    104 H104       26.0310  -30.7024  -38.8530 H         1 UNK         0.0787 
    105 H105       24.7000  -32.4622  -40.5698 H         1 UNK         0.3055 
    106 H106       23.5665  -34.3135  -38.7695 H         1 UNK         0.1106 
    107 H107       24.1513  -35.9997  -40.5315 H         1 UNK         0.0828 
    108 H108       24.3986  -34.7067  -41.6980 H         1 UNK         0.0828 
    109 H109       25.4539  -34.8473  -40.2922 H         1 UNK         0.0828 
    110 H110       22.0839  -32.7633  -41.5222 H         1 UNK         0.2931 
    111 H111       19.7282  -34.4646  -41.6022 H         1 UNK         0.0412 
    112 H112       18.9913  -31.7143  -38.8053 H         1 UNK         0.3472 
    113 H113       20.6259  -32.1133  -39.2703 H         1 UNK         0.3472 
    114 H114       18.8949  -32.6859  -43.2545 H         1 UNK         0.0970 
    115 H115       20.2937  -33.6165  -43.7005 H         1 UNK         0.0970 
    116 H116       20.5817  -32.1998  -45.5251 H         1 UNK         0.0612 
    117 H117       21.9185  -31.0914  -45.4407 H         1 UNK         0.0612 
@<TRIPOS>BOND
     1    1    2 1    
     2    1   62 1    
     3    1   63 1    
     4    1   64 1    
     5    2    3 2    
     6    2    4 am   BACKBONE|DICT|INTERRES
     7    4    5 1    
     8    4   65 1    
     9    5    6 1    
    10    5   25 1    
    11    5   66 1    
    12    6    7 1    
    13    6   67 1    
    14    6   68 1    
    15    7    8 1    
    16    8    9 1    
    17    8   69 1    
    18    8   70 1    
    19    9   10 ar   
    20    9   14 ar   
    21   10   11 ar   
    22   10   71 1    
    23   11   12 ar   
    24   11   61 1    
    25   12   13 ar   
    26   12   72 1    
    27   13   14 ar   
    28   13   15 1    
    29   14   73 1    
    30   15   16 1    
    31   15   74 1    
    32   15   75 1    
    33   16   17 1    
    34   17   18 1    
    35   17   76 1    
    36   17   77 1    
    37   18   19 1    
    38   18   27 1    
    39   18   78 1    
    40   19   20 am   BACKBONE|DICT|INTERRES
    41   19   79 1    
    42   20   21 2    
    43   20   22 1    
    44   22   23 1    
    45   22   24 1    
    46   22   80 1    
    47   23   81 1    
    48   23   82 1    
    49   23   83 1    
    50   24   25 am   BACKBONE|DICT|INTERRES
    51   24   84 1    
    52   25   26 2    
    53   27   28 2    
    54   27   29 am   BACKBONE|DICT|INTERRES
    55   29   30 1    
    56   29   85 1    
    57   30   31 1    
    58   30   32 1    
    59   30   86 1    
    60   31   87 1    
    61   31   88 1    
    62   31   89 1    
    63   32   33 2    
    64   32   34 am   BACKBONE|DICT|INTERRES
    65   34   35 1    
    66   34   90 1    
    67   35   36 1    
    68   35   37 1    
    69   35   91 1    
    70   36   92 1    
    71   36   93 1    
    72   36   94 1    
    73   37   38 2    
    74   37   39 am   BACKBONE|DICT|INTERRES
    75   39   40 1    
    76   39   95 1    
    77   40   41 1    
    78   40   42 1    
    79   40   96 1    
    80   41   97 1    
    81   41   98 1    
    82   41   99 1    
    83   42   43 2    
    84   42   44 am   BACKBONE|DICT|INTERRES
    85   44   45 1    
    86   44  100 1    
    87   45   46 1    
    88   45   47 1    
    89   45  101 1    
    90   46  102 1    
    91   46  103 1    
    92   46  104 1    
    93   47   48 2    
    94   47   49 am   BACKBONE|DICT|INTERRES
    95   49   50 1    
    96   49  105 1    
    97   50   51 1    
    98   50   52 1    
    99   50  106 1    
   100   51  107 1    
   101   51  108 1    
   102   51  109 1    
   103   52   53 2    
   104   52   54 am   BACKBONE|DICT|INTERRES
   105   54   55 1    
   106   54  110 1    
   107   55   56 1    
   108   55   59 1    
   109   55  111 1    
   110   56   57 am   BACKBONE|DICT|INTERRES
   111   56   58 2    
   112   57  112 1    
   113   57  113 1    
   114   59   60 1    
   115   59  114 1    
   116   59  115 1    
   117   60   61 1    
   118   61  116 1    
   119   61  117 1    
@<TRIPOS>SUBSTRUCTURE
     1 UNK         1 GROUP             0       ****    0 ROOT    
