@<TRIPOS>MOLECULE
3R8
117   119    1
SMALL
USER_CHARGES


@<TRIPOS>ATOM
      1 CA         21.3332  -27.5430  -47.2928 C.3       0 UNK        -0.2013 
      2 C          20.2372  -27.3171  -46.2643 C.2       0 UNK         0.4866 
      3 O          20.4309  -27.6233  -45.0894 O.2       0 UNK        -0.5176 
      4 N          19.0933  -26.7547  -46.6815 N.am      1 UNK        -0.4884 
      5 CA         17.8826  -26.5640  -45.8627 C.3       1 UNK         0.0853 
      6 C6         16.6082  -26.4811  -46.7454 C.3       10 UNK        -0.0849 
      7 S7         15.0935  -27.0845  -45.9172 S.3       10 UNK        -0.2776 
      8 C8         15.1606  -28.8840  -46.2088 C.3       10 UNK         0.0316 
      9 C9         16.2268  -29.5634  -45.3585 C.ar      10 UNK        -0.0863 
     10 C10        17.3761  -30.0897  -45.9537 C.ar      10 UNK        -0.1009 
     11 C11        18.3689  -30.7018  -45.1818 C.ar      10 UNK        -0.0712 
     12 C12        18.1856  -30.8049  -43.7952 C.ar      10 UNK        -0.0894 
     13 C13        17.0441  -30.2738  -43.1826 C.ar      10 UNK        -0.0745 
     14 C14        16.0684  -29.6586  -43.9731 C.ar      10 UNK        -0.0972 
     15 C15        16.8233  -30.3968  -41.6766 C.3       10 UNK         0.0209 
     16 S16        18.2677  -29.9343  -40.6611 S.3       10 UNK        -0.2568 
     17 C17        18.4874  -28.1626  -41.0354 C.3       10 UNK        -0.0983 
     18 CA         19.8651  -27.8790  -41.6920 C.3       3 UNK         0.0876 
     19 N          19.8823  -26.6677  -42.5084 N.am      3 UNK        -0.4424 
     20 C          19.6483  -25.3987  -42.1378 C.2       2 UNK         0.4918 
     21 O          19.4556  -25.0455  -40.9741 O.2       2 UNK        -0.4875 
     22 CA         19.5972  -24.3458  -43.2675 C.3       2 UNK         0.0481 
     23 CB         20.9646  -23.6663  -43.4309 C.3       2 UNK        -0.1831 
     24 N          19.1979  -24.9411  -44.5463 N.am      2 UNK        -0.4498 
     25 C          17.9843  -25.4611  -44.7789 C.2       1 UNK         0.5027 
     26 O          16.9952  -25.1588  -44.1104 O.2       1 UNK        -0.4969 
     27 C          21.0474  -27.9271  -40.7074 C.2       3 UNK         0.5005 
     28 O          21.9663  -28.7199  -40.9109 O.2       3 UNK        -0.5279 
     29 N          21.0421  -27.0610  -39.6850 N.am      4 UNK        -0.4463 
     30 CA         22.0721  -26.9825  -38.6424 C.3       4 UNK         0.0283 
     31 CB         21.6535  -25.9560  -37.5788 C.3       4 UNK        -0.1875 
     32 C          23.4701  -26.6553  -39.1935 C.2       4 UNK         0.4949 
     33 O          24.4516  -27.2610  -38.7640 O.2       4 UNK        -0.5039 
     34 N          23.5265  -25.7522  -40.1826 N.am      5 UNK        -0.4663 
     35 CA         24.7494  -25.3846  -40.9063 C.3       5 UNK         0.0242 
     36 CB         24.4954  -24.0938  -41.7006 C.3       5 UNK        -0.1982 
     37 C          25.2747  -26.4957  -41.8369 C.2       5 UNK         0.5017 
     38 O          26.4412  -26.4477  -42.2267 O.2       5 UNK        -0.5012 
     39 N          24.4183  -27.4728  -42.1630 N.am      6 UNK        -0.4439 
     40 CA         24.7305  -28.6584  -42.9611 C.3       6 UNK         0.0297 
     41 CB         23.6190  -28.8452  -44.0092 C.3       6 UNK        -0.2006 
     42 C          24.8939  -29.9117  -42.0768 C.2       6 UNK         0.4892 
     43 O          24.8548  -31.0252  -42.6021 O.2       6 UNK        -0.5089 
     44 N          25.0521  -29.7207  -40.7552 N.am      7 UNK        -0.4243 
     45 CA         25.2098  -30.7485  -39.7168 C.3       7 UNK         0.0196 
     46 CB         26.5715  -31.4609  -39.8624 C.3       7 UNK        -0.2007 
     47 C          24.0231  -31.7314  -39.6433 C.2       7 UNK         0.5020 
     48 O          24.2227  -32.9173  -39.3787 O.2       7 UNK        -0.5147 
     49 N          22.8130  -31.2130  -39.8961 N.am      8 UNK        -0.4734 
     50 CA         21.5251  -31.9106  -39.9876 C.3       8 UNK         0.0238 
     51 CB         21.1770  -32.6501  -38.6783 C.3       8 UNK        -0.1912 
     52 C          21.3723  -32.8017  -41.2365 C.2       8 UNK         0.5038 
     53 O          20.4059  -33.5635  -41.3055 O.2       8 UNK        -0.5046 
     54 N          22.2895  -32.6734  -42.2072 N.am      9 UNK        -0.4200 
     55 CA         22.3358  -33.4252  -43.4719 C.3       9 UNK         0.0839 
     56 C          22.5633  -34.9576  -43.2797 C.2       9 UNK         0.5513 
     57 N          22.4339  -35.7563  -44.3317 N.am      9 UNK        -0.7519 
     58 O          22.9109  -35.4368  -42.2021 O.2       9 UNK        -0.4960 
     59 C59        21.1423  -33.0805  -44.4130 C.3       10 UNK        -0.0876 
     60 S60        21.1194  -31.3180  -44.8797 S.3       10 UNK        -0.2414 
     61 C61        19.6066  -31.2462  -45.8956 C.3       10 UNK         0.0169 
     62 H62        22.2120  -26.9504  -47.0405 H         1 UNK         0.0903 
     63 H63        21.6232  -28.5936  -47.3000 H         1 UNK         0.0903 
     64 H64        21.0132  -27.2713  -48.2984 H         1 UNK         0.0903 
     65 H65        19.0095  -26.4789  -47.6504 H         1 UNK         0.3096 
     66 H66        17.8033  -27.4714  -45.2651 H         1 UNK         0.1121 
     67 H67        16.4417  -25.4571  -47.0846 H         1 UNK         0.0849 
     68 H68        16.7363  -27.0726  -47.6534 H         1 UNK         0.0849 
     69 H69        14.1882  -29.3146  -45.9656 H         1 UNK         0.0865 
     70 H70        15.3192  -29.0781  -47.2707 H         1 UNK         0.0865 
     71 H71        17.5055  -30.0116  -47.0248 H         1 UNK         0.1346 
     72 H72        18.9302  -31.2938  -43.1831 H         1 UNK         0.1412 
     73 H73        15.1788  -29.2501  -43.5127 H         1 UNK         0.1426 
     74 H74        16.5618  -31.4315  -41.4520 H         1 UNK         0.0716 
     75 H75        15.9733  -29.7908  -41.3589 H         1 UNK         0.0716 
     76 H76        17.6874  -27.8526  -41.7099 H         1 UNK         0.0695 
     77 H77        18.3446  -27.5815  -40.1230 H         1 UNK         0.0695 
     78 H78        20.0455  -28.6771  -42.4160 H         1 UNK         0.0983 
     79 H79        20.0741  -26.8554  -43.4919 H         1 UNK         0.3095 
     80 H80        18.8638  -23.5863  -42.9892 H         1 UNK         0.0454 
     81 H81        21.7297  -24.3738  -43.7519 H         1 UNK         0.0851 
     82 H82        20.9217  -22.8634  -44.1670 H         1 UNK         0.0851 
     83 H83        21.2969  -23.2238  -42.4907 H         1 UNK         0.0851 
     84 H84        19.9445  -25.2401  -45.1576 H         1 UNK         0.2976 
     85 H85        20.2948  -26.3748  -39.6588 H         1 UNK         0.3116 
     86 H86        22.1299  -27.9633  -38.1654 H         1 UNK         0.0646 
     87 H87        22.3994  -25.8895  -36.7854 H         1 UNK         0.0847 
     88 H88        20.7093  -26.2334  -37.1099 H         1 UNK         0.0847 
     89 H89        21.5374  -24.9573  -38.0019 H         1 UNK         0.0847 
     90 H90        22.6683  -25.3056  -40.4722 H         1 UNK         0.3040 
     91 H91        25.5313  -25.1851  -40.1698 H         1 UNK         0.1015 
     92 H92        24.1543  -23.2859  -41.0528 H         1 UNK         0.0786 
     93 H93        23.7492  -24.2412  -42.4805 H         1 UNK         0.0786 
     94 H94        25.4091  -23.7512  -42.1884 H         1 UNK         0.0786 
     95 H95        23.4958  -27.4670  -41.7440 H         1 UNK         0.3172 
     96 H96        25.6740  -28.5183  -43.4918 H         1 UNK         0.0595 
     97 H97        23.5106  -27.9623  -44.6390 H         1 UNK         0.0839 
     98 H98        22.6525  -29.0395  -43.5429 H         1 UNK         0.0839 
     99 H99        23.8354  -29.6859  -44.6693 H         1 UNK         0.0839 
    100 H100       25.0288  -28.7681  -40.4131 H         1 UNK         0.2998 
    101 H101       25.2163  -30.2162  -38.7643 H         1 UNK         0.0822 
    102 H102       27.3928  -30.7449  -39.8913 H         1 UNK         0.0787 
    103 H103       26.7562  -32.1295  -39.0207 H         1 UNK         0.0787 
    104 H104       26.6178  -32.0620  -40.7712 H         1 UNK         0.0787 
    105 H105       22.7623  -30.2297  -40.1600 H         1 UNK         0.3055 
    106 H106       20.7878  -31.1194  -40.1118 H         1 UNK         0.1106 
    107 H107       20.1431  -32.9972  -38.6915 H         1 UNK         0.0828 
    108 H108       21.8078  -33.5258  -38.5252 H         1 UNK         0.0828 
    109 H109       21.2862  -31.9980  -37.8119 H         1 UNK         0.0828 
    110 H110       23.0659  -32.0395  -42.0603 H         1 UNK         0.2931 
    111 H111       23.2470  -33.0784  -43.9608 H         1 UNK         0.0412 
    112 H112       22.6002  -36.7441  -44.2152 H         1 UNK         0.3472 
    113 H113       22.1911  -35.3960  -45.2407 H         1 UNK         0.3472 
    114 H114       20.1904  -33.3487  -43.9524 H         1 UNK         0.0970 
    115 H115       21.2003  -33.6485  -45.3418 H         1 UNK         0.0970 
    116 H116       19.8315  -30.6108  -46.7535 H         1 UNK         0.0612 
    117 H117       19.3794  -32.2336  -46.2992 H         1 UNK         0.0612 
@<TRIPOS>BOND
     1    1    2 1    
     2    1   62 1    
     3    1   63 1    
     4    1   64 1    
     5    2    3 2    
     6    2    4 am   BACKBONE|DICT|INTERRES
     7    4    5 1    
     8    4   65 1    
     9    5    6 1    
    10    5   25 1    
    11    5   66 1    
    12    6    7 1    
    13    6   67 1    
    14    6   68 1    
    15    7    8 1    
    16    8    9 1    
    17    8   69 1    
    18    8   70 1    
    19    9   10 ar   
    20    9   14 ar   
    21   10   11 ar   
    22   10   71 1    
    23   11   12 ar   
    24   11   61 1    
    25   12   13 ar   
    26   12   72 1    
    27   13   14 ar   
    28   13   15 1    
    29   14   73 1    
    30   15   16 1    
    31   15   74 1    
    32   15   75 1    
    33   16   17 1    
    34   17   18 1    
    35   17   76 1    
    36   17   77 1    
    37   18   19 1    
    38   18   27 1    
    39   18   78 1    
    40   19   20 am   BACKBONE|DICT|INTERRES
    41   19   79 1    
    42   20   21 2    
    43   20   22 1    
    44   22   23 1    
    45   22   24 1    
    46   22   80 1    
    47   23   81 1    
    48   23   82 1    
    49   23   83 1    
    50   24   25 am   BACKBONE|DICT|INTERRES
    51   24   84 1    
    52   25   26 2    
    53   27   28 2    
    54   27   29 am   BACKBONE|DICT|INTERRES
    55   29   30 1    
    56   29   85 1    
    57   30   31 1    
    58   30   32 1    
    59   30   86 1    
    60   31   87 1    
    61   31   88 1    
    62   31   89 1    
    63   32   33 2    
    64   32   34 am   BACKBONE|DICT|INTERRES
    65   34   35 1    
    66   34   90 1    
    67   35   36 1    
    68   35   37 1    
    69   35   91 1    
    70   36   92 1    
    71   36   93 1    
    72   36   94 1    
    73   37   38 2    
    74   37   39 am   BACKBONE|DICT|INTERRES
    75   39   40 1    
    76   39   95 1    
    77   40   41 1    
    78   40   42 1    
    79   40   96 1    
    80   41   97 1    
    81   41   98 1    
    82   41   99 1    
    83   42   43 2    
    84   42   44 am   BACKBONE|DICT|INTERRES
    85   44   45 1    
    86   44  100 1    
    87   45   46 1    
    88   45   47 1    
    89   45  101 1    
    90   46  102 1    
    91   46  103 1    
    92   46  104 1    
    93   47   48 2    
    94   47   49 am   BACKBONE|DICT|INTERRES
    95   49   50 1    
    96   49  105 1    
    97   50   51 1    
    98   50   52 1    
    99   50  106 1    
   100   51  107 1    
   101   51  108 1    
   102   51  109 1    
   103   52   53 2    
   104   52   54 am   BACKBONE|DICT|INTERRES
   105   54   55 1    
   106   54  110 1    
   107   55   56 1    
   108   55   59 1    
   109   55  111 1    
   110   56   57 am   BACKBONE|DICT|INTERRES
   111   56   58 2    
   112   57  112 1    
   113   57  113 1    
   114   59   60 1    
   115   59  114 1    
   116   59  115 1    
   117   60   61 1    
   118   61  116 1    
   119   61  117 1    
@<TRIPOS>SUBSTRUCTURE
     1 UNK         1 GROUP             0       ****    0 ROOT    
