@<TRIPOS>MOLECULE
3R8
117   119    1
SMALL
USER_CHARGES


@<TRIPOS>ATOM
      1 CA         14.9288  -27.7037  -48.4064 C.3       0 UNK        -0.2013 
      2 C          16.3089  -28.2697  -48.1075 C.2       0 UNK         0.4866 
      3 O          17.0551  -28.5861  -49.0342 O.2       0 UNK        -0.5176 
      4 N          16.6532  -28.4011  -46.8200 N.am      1 UNK        -0.4884 
      5 CA         17.9340  -28.9439  -46.3451 C.3       1 UNK         0.0853 
      6 C6         17.9212  -29.2196  -44.8181 C.3       10 UNK        -0.0849 
      7 S7         16.5539  -30.2747  -44.2426 S.3       10 UNK        -0.2776 
      8 C8         15.9419  -29.2968  -42.8277 C.3       10 UNK         0.0316 
      9 C9         16.9911  -29.1241  -41.7325 C.ar      10 UNK        -0.0863 
     10 C10        17.4572  -30.2400  -41.0306 C.ar      10 UNK        -0.1009 
     11 C11        18.3966  -30.0933  -40.0072 C.ar      10 UNK        -0.0712 
     12 C12        18.8486  -28.8163  -39.6665 C.ar      10 UNK        -0.0894 
     13 C13        18.3923  -27.6890  -40.3547 C.ar      10 UNK        -0.0745 
     14 C14        17.4714  -27.8508  -41.3969 C.ar      10 UNK        -0.0972 
     15 C15        18.8408  -26.2993  -39.9137 C.3       10 UNK         0.0209 
     16 S16        20.6530  -26.0818  -39.9638 S.3       10 UNK        -0.2568 
     17 C17        20.9167  -25.4199  -41.6398 C.3       10 UNK        -0.0983 
     18 CA         21.2477  -26.5272  -42.6793 C.3       3 UNK         0.0876 
     19 N          21.0450  -26.1123  -44.0692 N.am      3 UNK        -0.4424 
     20 C          19.8527  -25.8234  -44.6020 C.2       2 UNK         0.4918 
     21 O          18.8102  -25.7577  -43.9487 O.2       2 UNK        -0.4875 
     22 CA         19.7535  -25.6411  -46.1292 C.3       2 UNK         0.0481 
     23 CB         21.1047  -25.5735  -46.8800 C.3       2 UNK        -0.1831 
     24 N          18.8596  -26.6927  -46.6284 N.am      2 UNK        -0.4498 
     25 C          19.1263  -28.0092  -46.6290 C.2       1 UNK         0.5027 
     26 O          20.2543  -28.4868  -46.7311 O.2       1 UNK        -0.4969 
     27 C          22.6814  -27.0537  -42.5193 C.2       3 UNK         0.5005 
     28 O          22.8748  -28.1938  -42.0889 O.2       3 UNK        -0.5279 
     29 N          23.6604  -26.2031  -42.8710 N.am      4 UNK        -0.4463 
     30 CA         25.1082  -26.4177  -42.7259 C.3       4 UNK         0.0283 
     31 CB         25.5971  -27.5191  -43.6903 C.3       4 UNK        -0.1875 
     32 C          25.5298  -26.6697  -41.2622 C.2       4 UNK         0.4949 
     33 O          26.3830  -27.5184  -41.0068 O.2       4 UNK        -0.5039 
     34 N          24.8965  -25.9367  -40.3312 N.am      5 UNK        -0.4663 
     35 CA         24.9919  -26.0862  -38.8710 C.3       5 UNK         0.0242 
     36 CB         26.4069  -25.7316  -38.3638 C.3       5 UNK        -0.1982 
     37 C          24.5010  -27.4695  -38.3951 C.2       5 UNK         0.5017 
     38 O          25.1508  -28.1066  -37.5643 O.2       5 UNK        -0.5012 
     39 N          23.3551  -27.8936  -38.9494 N.am      6 UNK        -0.4439 
     40 CA         22.6780  -29.1788  -38.7547 C.3       6 UNK         0.0297 
     41 CB         22.1430  -29.3151  -37.3139 C.3       6 UNK        -0.2006 
     42 C          23.5425  -30.3697  -39.2051 C.2       6 UNK         0.4892 
     43 O          23.7469  -31.3139  -38.4390 O.2       6 UNK        -0.5089 
     44 N          24.0297  -30.2916  -40.4491 N.am      7 UNK        -0.4243 
     45 CA         24.8088  -31.3425  -41.1081 C.3       7 UNK         0.0196 
     46 CB         26.2647  -30.8788  -41.2723 C.3       7 UNK        -0.2007 
     47 C          24.2143  -31.7426  -42.4663 C.2       7 UNK         0.5020 
     48 O          24.4716  -32.8587  -42.9166 O.2       7 UNK        -0.5147 
     49 N          23.4237  -30.8622  -43.0974 N.am      8 UNK        -0.4734 
     50 CA         22.7961  -31.0960  -44.4038 C.3       8 UNK         0.0238 
     51 CB         22.8490  -29.7923  -45.2191 C.3       8 UNK        -0.1912 
     52 C          21.3574  -31.6373  -44.2842 C.2       8 UNK         0.5038 
     53 O          20.5898  -31.5204  -45.2391 O.2       8 UNK        -0.5046 
     54 N          21.0140  -32.2074  -43.1213 N.am      9 UNK        -0.4200 
     55 CA         19.6765  -32.6967  -42.7446 C.3       9 UNK         0.0839 
     56 C          19.0640  -33.7980  -43.6606 C.2       9 UNK         0.5513 
     57 N          19.8474  -34.5117  -44.4602 N.am      9 UNK        -0.7519 
     58 O          17.8565  -34.0192  -43.6288 O.2       9 UNK        -0.4960 
     59 C59        19.6373  -33.1763  -41.2678 C.3       10 UNK        -0.0876 
     60 S60        20.3778  -32.0146  -40.0679 S.3       10 UNK        -0.2414 
     61 C61        18.9147  -31.3060  -39.2525 C.3       10 UNK         0.0169 
     62 H62        14.3456  -28.4224  -48.9817 H         1 UNK         0.0903 
     63 H63        15.0169  -26.7894  -48.9926 H         1 UNK         0.0903 
     64 H64        14.3764  -27.4710  -47.4960 H         1 UNK         0.0903 
     65 H65        15.9877  -28.1613  -46.0984 H         1 UNK         0.3096 
     66 H66        18.1225  -29.8854  -46.8667 H         1 UNK         0.1121 
     67 H67        17.8825  -28.2761  -44.2713 H         1 UNK         0.0849 
     68 H68        18.8513  -29.6973  -44.5060 H         1 UNK         0.0849 
     69 H69        15.5909  -28.3280  -43.1867 H         1 UNK         0.0865 
     70 H70        15.0694  -29.7976  -42.4058 H         1 UNK         0.0865 
     71 H71        17.0910  -31.2247  -41.2874 H         1 UNK         0.1346 
     72 H72        19.5522  -28.6953  -38.8549 H         1 UNK         0.1412 
     73 H73        17.1100  -26.9814  -41.9299 H         1 UNK         0.1426 
     74 H74        18.3514  -25.5223  -40.5026 H         1 UNK         0.0716 
     75 H75        18.5095  -26.1471  -38.8857 H         1 UNK         0.0716 
     76 H76        21.7057  -24.6673  -41.5955 H         1 UNK         0.0695 
     77 H77        20.0236  -24.8639  -41.9212 H         1 UNK         0.0695 
     78 H78        20.5772  -27.3732  -42.5066 H         1 UNK         0.0983 
     79 H79        21.8436  -26.2021  -44.6815 H         1 UNK         0.3095 
     80 H80        19.2384  -24.6943  -46.2974 H         1 UNK         0.0454 
     81 H81        20.9463  -25.4850  -47.9547 H         1 UNK         0.0851 
     82 H82        21.7358  -26.4463  -46.7147 H         1 UNK         0.0851 
     83 H83        21.6749  -24.6970  -46.5698 H         1 UNK         0.0851 
     84 H84        17.8793  -26.4528  -46.5742 H         1 UNK         0.2976 
     85 H85        23.3939  -25.2837  -43.1973 H         1 UNK         0.3116 
     86 H86        25.5911  -25.4853  -43.0221 H         1 UNK         0.0646 
     87 H87        25.3099  -27.3024  -44.7189 H         1 UNK         0.0847 
     88 H88        26.6843  -27.6027  -43.6701 H         1 UNK         0.0847 
     89 H89        25.1937  -28.4963  -43.4275 H         1 UNK         0.0847 
     90 H90        24.2276  -25.2523  -40.6554 H         1 UNK         0.3040 
     91 H91        24.3014  -25.3593  -38.4395 H         1 UNK         0.1015 
     92 H92        27.1530  -26.4534  -38.6974 H         1 UNK         0.0786 
     93 H93        26.4370  -25.7174  -37.2736 H         1 UNK         0.0786 
     94 H94        26.7165  -24.7451  -38.7084 H         1 UNK         0.0786 
     95 H95        22.9215  -27.2898  -39.6344 H         1 UNK         0.3172 
     96 H96        21.8171  -29.1678  -39.4242 H         1 UNK         0.0595 
     97 H97        21.5008  -28.4756  -37.0484 H         1 UNK         0.0839 
     98 H98        22.9507  -29.3656  -36.5833 H         1 UNK         0.0839 
     99 H99        21.5504  -30.2244  -37.2059 H         1 UNK         0.0839 
    100 H100       23.8004  -29.4679  -40.9984 H         1 UNK         0.2998 
    101 H101       24.8100  -32.2462  -40.4949 H         1 UNK         0.0822 
    102 H102       26.7005  -30.5939  -40.3144 H         1 UNK         0.0787 
    103 H103       26.8833  -31.6747  -41.6889 H         1 UNK         0.0787 
    104 H104       26.3427  -30.0225  -41.9415 H         1 UNK         0.0787 
    105 H105       23.2232  -29.9627  -42.6681 H         1 UNK         0.3055 
    106 H106       23.3643  -31.8483  -44.9554 H         1 UNK         0.1106 
    107 H107       23.8661  -29.4108  -45.2987 H         1 UNK         0.0828 
    108 H108       22.4907  -29.9536  -46.2366 H         1 UNK         0.0828 
    109 H109       22.2258  -29.0152  -44.7769 H         1 UNK         0.0828 
    110 H110       21.7128  -32.2519  -42.3951 H         1 UNK         0.2931 
    111 H111       19.0145  -31.8339  -42.8300 H         1 UNK         0.0412 
    112 H112       20.8378  -34.3316  -44.4977 H         1 UNK         0.3472 
    113 H113       19.4399  -35.2232  -45.0464 H         1 UNK         0.3472 
    114 H114       18.6107  -33.3973  -40.9704 H         1 UNK         0.0970 
    115 H115       20.1787  -34.1195  -41.1703 H         1 UNK         0.0970 
    116 H116       18.1320  -32.0579  -39.1444 H         1 UNK         0.0612 
    117 H117       19.1934  -31.0164  -38.2382 H         1 UNK         0.0612 
@<TRIPOS>BOND
     1    1    2 1    
     2    1   62 1    
     3    1   63 1    
     4    1   64 1    
     5    2    3 2    
     6    2    4 am   BACKBONE|DICT|INTERRES
     7    4    5 1    
     8    4   65 1    
     9    5    6 1    
    10    5   25 1    
    11    5   66 1    
    12    6    7 1    
    13    6   67 1    
    14    6   68 1    
    15    7    8 1    
    16    8    9 1    
    17    8   69 1    
    18    8   70 1    
    19    9   10 ar   
    20    9   14 ar   
    21   10   11 ar   
    22   10   71 1    
    23   11   12 ar   
    24   11   61 1    
    25   12   13 ar   
    26   12   72 1    
    27   13   14 ar   
    28   13   15 1    
    29   14   73 1    
    30   15   16 1    
    31   15   74 1    
    32   15   75 1    
    33   16   17 1    
    34   17   18 1    
    35   17   76 1    
    36   17   77 1    
    37   18   19 1    
    38   18   27 1    
    39   18   78 1    
    40   19   20 am   BACKBONE|DICT|INTERRES
    41   19   79 1    
    42   20   21 2    
    43   20   22 1    
    44   22   23 1    
    45   22   24 1    
    46   22   80 1    
    47   23   81 1    
    48   23   82 1    
    49   23   83 1    
    50   24   25 am   BACKBONE|DICT|INTERRES
    51   24   84 1    
    52   25   26 2    
    53   27   28 2    
    54   27   29 am   BACKBONE|DICT|INTERRES
    55   29   30 1    
    56   29   85 1    
    57   30   31 1    
    58   30   32 1    
    59   30   86 1    
    60   31   87 1    
    61   31   88 1    
    62   31   89 1    
    63   32   33 2    
    64   32   34 am   BACKBONE|DICT|INTERRES
    65   34   35 1    
    66   34   90 1    
    67   35   36 1    
    68   35   37 1    
    69   35   91 1    
    70   36   92 1    
    71   36   93 1    
    72   36   94 1    
    73   37   38 2    
    74   37   39 am   BACKBONE|DICT|INTERRES
    75   39   40 1    
    76   39   95 1    
    77   40   41 1    
    78   40   42 1    
    79   40   96 1    
    80   41   97 1    
    81   41   98 1    
    82   41   99 1    
    83   42   43 2    
    84   42   44 am   BACKBONE|DICT|INTERRES
    85   44   45 1    
    86   44  100 1    
    87   45   46 1    
    88   45   47 1    
    89   45  101 1    
    90   46  102 1    
    91   46  103 1    
    92   46  104 1    
    93   47   48 2    
    94   47   49 am   BACKBONE|DICT|INTERRES
    95   49   50 1    
    96   49  105 1    
    97   50   51 1    
    98   50   52 1    
    99   50  106 1    
   100   51  107 1    
   101   51  108 1    
   102   51  109 1    
   103   52   53 2    
   104   52   54 am   BACKBONE|DICT|INTERRES
   105   54   55 1    
   106   54  110 1    
   107   55   56 1    
   108   55   59 1    
   109   55  111 1    
   110   56   57 am   BACKBONE|DICT|INTERRES
   111   56   58 2    
   112   57  112 1    
   113   57  113 1    
   114   59   60 1    
   115   59  114 1    
   116   59  115 1    
   117   60   61 1    
   118   61  116 1    
   119   61  117 1    
@<TRIPOS>SUBSTRUCTURE
     1 UNK         1 GROUP             0       ****    0 ROOT    
