@<TRIPOS>MOLECULE
3R8
117   119    1
SMALL
USER_CHARGES


@<TRIPOS>ATOM
      1 CA         16.2300  -24.6973  -49.4081 C.3       0 UNK        -0.2013 
      2 C          16.8617  -25.0338  -48.0663 C.2       0 UNK         0.4866 
      3 O          17.9182  -24.4963  -47.7323 O.2       0 UNK        -0.5176 
      4 N          16.2171  -25.9054  -47.2804 N.am      1 UNK        -0.4884 
      5 CA         16.6768  -26.4006  -45.9732 C.3       1 UNK         0.0853 
      6 C6         16.0538  -27.7816  -45.6405 C.3       10 UNK        -0.0849 
      7 S7         16.5742  -29.0511  -46.8462 S.3       10 UNK        -0.2776 
      8 C8         17.3118  -30.3355  -45.7768 C.3       10 UNK         0.0316 
      9 C9         18.4590  -29.8493  -44.8921 C.ar      10 UNK        -0.0863 
     10 C10        18.5383  -30.2947  -43.5692 C.ar      10 UNK        -0.1009 
     11 C11        19.5977  -29.9052  -42.7450 C.ar      10 UNK        -0.0712 
     12 C12        20.5738  -29.0380  -43.2435 C.ar      10 UNK        -0.0894 
     13 C13        20.5055  -28.5756  -44.5613 C.ar      10 UNK        -0.0745 
     14 C14        19.4556  -28.9984  -45.3843 C.ar      10 UNK        -0.0972 
     15 C15        21.5817  -27.6531  -45.1167 C.3       10 UNK         0.0209 
     16 S16        20.9305  -25.9877  -45.4711 S.3       10 UNK        -0.2568 
     17 C17        21.5844  -24.9585  -44.1029 C.3       10 UNK        -0.0983 
     18 CA         20.5228  -24.4593  -43.0822 C.3       3 UNK         0.0876 
     19 N          19.3131  -23.9904  -43.7544 N.am      3 UNK        -0.4424 
     20 C          18.3294  -23.2597  -43.2148 C.2       2 UNK         0.4918 
     21 O          18.3837  -22.7508  -42.0947 O.2       2 UNK        -0.4875 
     22 CA         17.0686  -23.0675  -44.0792 C.3       2 UNK         0.0481 
     23 CB         17.1033  -21.7048  -44.7883 C.3       2 UNK        -0.1831 
     24 N          16.9361  -24.1281  -45.0817 N.am      2 UNK        -0.4498 
     25 C          16.4694  -25.3614  -44.8456 C.2       1 UNK         0.5027 
     26 O          15.9063  -25.6818  -43.7974 O.2       1 UNK        -0.4969 
     27 C          20.2063  -25.5254  -42.0128 C.2       3 UNK         0.5005 
     28 O          19.1669  -26.1861  -42.0745 O.2       3 UNK        -0.5279 
     29 N          21.1311  -25.6787  -41.0582 N.am      4 UNK        -0.4463 
     30 CA         21.0703  -26.6601  -39.9737 C.3       4 UNK         0.0283 
     31 CB         20.4809  -26.0060  -38.7095 C.3       4 UNK        -0.1875 
     32 C          22.4553  -27.2845  -39.7357 C.2       4 UNK         0.4949 
     33 O          22.7950  -27.6088  -38.5970 O.2       4 UNK        -0.5039 
     34 N          23.2361  -27.4351  -40.8120 N.am      5 UNK        -0.4663 
     35 CA         24.5687  -28.0274  -40.8052 C.3       5 UNK         0.0242 
     36 CB         25.6286  -26.9175  -40.6705 C.3       5 UNK        -0.1982 
     37 C          24.7342  -28.8406  -42.0932 C.2       5 UNK         0.5017 
     38 O          25.0806  -28.2732  -43.1304 O.2       5 UNK        -0.5012 
     39 N          24.4460  -30.1428  -42.0106 N.am      6 UNK        -0.4439 
     40 CA         24.5799  -31.1101  -43.1031 C.3       6 UNK         0.0297 
     41 CB         23.2571  -31.2106  -43.8856 C.3       6 UNK        -0.2006 
     42 C          25.0772  -32.4714  -42.5858 C.2       6 UNK         0.4892 
     43 O          24.7025  -33.5074  -43.1377 O.2       6 UNK        -0.5089 
     44 N          25.9046  -32.4479  -41.5283 N.am      7 UNK        -0.4243 
     45 CA         26.5513  -33.5702  -40.8263 C.3       7 UNK         0.0196 
     46 CB         27.4817  -34.3669  -41.7624 C.3       7 UNK        -0.2007 
     47 C          25.5809  -34.5028  -40.0787 C.2       7 UNK         0.5020 
     48 O          25.7766  -34.7501  -38.8891 O.2       7 UNK        -0.5147 
     49 N          24.5431  -34.9843  -40.7716 N.am      8 UNK        -0.4734 
     50 CA         23.4485  -35.7869  -40.2147 C.3       8 UNK         0.0238 
     51 CB         22.7302  -36.5108  -41.3652 C.3       8 UNK        -0.1912 
     52 C          22.4450  -34.9505  -39.3982 C.2       8 UNK         0.5038 
     53 O          21.6660  -35.5184  -38.6316 O.2       8 UNK        -0.5046 
     54 N          22.4815  -33.6285  -39.5799 N.am      9 UNK        -0.4200 
     55 CA         21.6556  -32.6241  -38.9107 C.3       9 UNK         0.0839 
     56 C          22.3894  -31.2599  -38.8861 C.2       9 UNK         0.5513 
     57 N          21.9175  -30.3200  -38.0811 N.am      9 UNK        -0.7519 
     58 O          23.3641  -31.0394  -39.6051 O.2       9 UNK        -0.4960 
     59 C59        20.2253  -32.5330  -39.5128 C.3       10 UNK        -0.0876 
     60 S60        20.1927  -32.1829  -41.3073 S.3       10 UNK        -0.2414 
     61 C61        19.6862  -30.4353  -41.3221 C.3       10 UNK         0.0169 
     62 H62        16.0120  -23.6311  -49.4633 H         1 UNK         0.0903 
     63 H63        16.9153  -24.9476  -50.2174 H         1 UNK         0.0903 
     64 H64        15.3006  -25.2430  -49.5700 H         1 UNK         0.0903 
     65 H65        15.3449  -26.3009  -47.6025 H         1 UNK         0.3096 
     66 H66        17.7584  -26.5458  -46.0316 H         1 UNK         0.1121 
     67 H67        14.9640  -27.7238  -45.6351 H         1 UNK         0.0849 
     68 H68        16.3435  -28.1046  -44.6387 H         1 UNK         0.0849 
     69 H69        16.5158  -30.7656  -45.1667 H         1 UNK         0.0865 
     70 H70        17.6819  -31.1440  -46.4084 H         1 UNK         0.0865 
     71 H71        17.7865  -30.9678  -43.1798 H         1 UNK         0.1346 
     72 H72        21.3939  -28.7370  -42.6089 H         1 UNK         0.1412 
     73 H73        19.4138  -28.6575  -46.4098 H         1 UNK         0.1426 
     74 H74        21.9596  -28.0797  -46.0469 H         1 UNK         0.0716 
     75 H75        22.4398  -27.5979  -44.4456 H         1 UNK         0.0716 
     76 H76        22.4120  -25.4673  -43.6061 H         1 UNK         0.0695 
     77 H77        22.0403  -24.0862  -44.5738 H         1 UNK         0.0695 
     78 H78        20.9439  -23.6004  -42.5544 H         1 UNK         0.0983 
     79 H79        19.1656  -24.3834  -44.6719 H         1 UNK         0.3095 
     80 H80        16.1997  -23.0889  -43.4183 H         1 UNK         0.0454 
     81 H81        17.1832  -20.8914  -44.0658 H         1 UNK         0.0851 
     82 H82        17.9529  -21.6228  -45.4674 H         1 UNK         0.0851 
     83 H83        16.1945  -21.5354  -45.3660 H         1 UNK         0.0851 
     84 H84        17.3554  -23.9639  -45.9941 H         1 UNK         0.2976 
     85 H85        21.9550  -25.0914  -41.0696 H         1 UNK         0.3116 
     86 H86        20.4164  -27.4851  -40.2623 H         1 UNK         0.0646 
     87 H87        20.3752  -26.7330  -37.9033 H         1 UNK         0.0847 
     88 H88        19.4900  -25.5945  -38.9023 H         1 UNK         0.0847 
     89 H89        21.1147  -25.1983  -38.3421 H         1 UNK         0.0847 
     90 H90        22.8815  -27.1688  -41.7192 H         1 UNK         0.3040 
     91 H91        24.6778  -28.7060  -39.9557 H         1 UNK         0.1015 
     92 H92        25.5311  -26.3932  -39.7197 H         1 UNK         0.0786 
     93 H93        25.5478  -26.1786  -41.4687 H         1 UNK         0.0786 
     94 H94        26.6359  -27.3339  -40.7096 H         1 UNK         0.0786 
     95 H95        24.0977  -30.5101  -41.1223 H         1 UNK         0.3172 
     96 H96        25.3520  -30.7650  -43.7938 H         1 UNK         0.0595 
     97 H97        22.9863  -30.2509  -44.3232 H         1 UNK         0.0839 
     98 H98        22.4358  -31.5348  -43.2464 H         1 UNK         0.0839 
     99 H99        23.3335  -31.9225  -44.7083 H         1 UNK         0.0839 
    100 H100       26.1241  -31.5366  -41.1504 H         1 UNK         0.2998 
    101 H101       27.1821  -33.1094  -40.0640 H         1 UNK         0.0822 
    102 H102       28.0235  -35.1351  -41.2089 H         1 UNK         0.0787 
    103 H103       26.9323  -34.8707  -42.5582 H         1 UNK         0.0787 
    104 H104       28.2245  -33.7187  -42.2273 H         1 UNK         0.0787 
    105 H105       24.4651  -34.6947  -41.7454 H         1 UNK         0.3055 
    106 H106       23.8716  -36.5364  -39.5419 H         1 UNK         0.1106 
    107 H107       22.2909  -35.8058  -42.0725 H         1 UNK         0.0828 
    108 H108       23.4139  -37.1572  -41.9158 H         1 UNK         0.0828 
    109 H109       21.9233  -37.1408  -40.9882 H         1 UNK         0.0828 
    110 H110       23.1775  -33.2428  -40.2022 H         1 UNK         0.2931 
    111 H111       21.5647  -32.9309  -37.8669 H         1 UNK         0.0412 
    112 H112       21.1305  -30.4906  -37.4757 H         1 UNK         0.3472 
    113 H113       22.3601  -29.4062  -38.0871 H         1 UNK         0.3472 
    114 H114       19.6274  -31.7925  -38.9790 H         1 UNK         0.0970 
    115 H115       19.7096  -33.4812  -39.3551 H         1 UNK         0.0970 
    116 H116       18.7171  -30.3302  -40.8323 H         1 UNK         0.0612 
    117 H117       20.3990  -29.8519  -40.7384 H         1 UNK         0.0612 
@<TRIPOS>BOND
     1    1    2 1    
     2    1   62 1    
     3    1   63 1    
     4    1   64 1    
     5    2    3 2    
     6    2    4 am   BACKBONE|DICT|INTERRES
     7    4    5 1    
     8    4   65 1    
     9    5    6 1    
    10    5   25 1    
    11    5   66 1    
    12    6    7 1    
    13    6   67 1    
    14    6   68 1    
    15    7    8 1    
    16    8    9 1    
    17    8   69 1    
    18    8   70 1    
    19    9   10 ar   
    20    9   14 ar   
    21   10   11 ar   
    22   10   71 1    
    23   11   12 ar   
    24   11   61 1    
    25   12   13 ar   
    26   12   72 1    
    27   13   14 ar   
    28   13   15 1    
    29   14   73 1    
    30   15   16 1    
    31   15   74 1    
    32   15   75 1    
    33   16   17 1    
    34   17   18 1    
    35   17   76 1    
    36   17   77 1    
    37   18   19 1    
    38   18   27 1    
    39   18   78 1    
    40   19   20 am   BACKBONE|DICT|INTERRES
    41   19   79 1    
    42   20   21 2    
    43   20   22 1    
    44   22   23 1    
    45   22   24 1    
    46   22   80 1    
    47   23   81 1    
    48   23   82 1    
    49   23   83 1    
    50   24   25 am   BACKBONE|DICT|INTERRES
    51   24   84 1    
    52   25   26 2    
    53   27   28 2    
    54   27   29 am   BACKBONE|DICT|INTERRES
    55   29   30 1    
    56   29   85 1    
    57   30   31 1    
    58   30   32 1    
    59   30   86 1    
    60   31   87 1    
    61   31   88 1    
    62   31   89 1    
    63   32   33 2    
    64   32   34 am   BACKBONE|DICT|INTERRES
    65   34   35 1    
    66   34   90 1    
    67   35   36 1    
    68   35   37 1    
    69   35   91 1    
    70   36   92 1    
    71   36   93 1    
    72   36   94 1    
    73   37   38 2    
    74   37   39 am   BACKBONE|DICT|INTERRES
    75   39   40 1    
    76   39   95 1    
    77   40   41 1    
    78   40   42 1    
    79   40   96 1    
    80   41   97 1    
    81   41   98 1    
    82   41   99 1    
    83   42   43 2    
    84   42   44 am   BACKBONE|DICT|INTERRES
    85   44   45 1    
    86   44  100 1    
    87   45   46 1    
    88   45   47 1    
    89   45  101 1    
    90   46  102 1    
    91   46  103 1    
    92   46  104 1    
    93   47   48 2    
    94   47   49 am   BACKBONE|DICT|INTERRES
    95   49   50 1    
    96   49  105 1    
    97   50   51 1    
    98   50   52 1    
    99   50  106 1    
   100   51  107 1    
   101   51  108 1    
   102   51  109 1    
   103   52   53 2    
   104   52   54 am   BACKBONE|DICT|INTERRES
   105   54   55 1    
   106   54  110 1    
   107   55   56 1    
   108   55   59 1    
   109   55  111 1    
   110   56   57 am   BACKBONE|DICT|INTERRES
   111   56   58 2    
   112   57  112 1    
   113   57  113 1    
   114   59   60 1    
   115   59  114 1    
   116   59  115 1    
   117   60   61 1    
   118   61  116 1    
   119   61  117 1    
@<TRIPOS>SUBSTRUCTURE
     1 UNK         1 GROUP             0       ****    0 ROOT    
