@<TRIPOS>MOLECULE
3R8
117   119    1
SMALL
USER_CHARGES


@<TRIPOS>ATOM
      1 CA         15.5496  -25.2113  -42.2696 C.3       0 UNK        -0.2013 
      2 C          16.5445  -24.9008  -43.3782 C.2       0 UNK         0.4866 
      3 O          16.4296  -23.8612  -44.0276 O.2       0 UNK        -0.5176 
      4 N          17.5196  -25.7901  -43.5961 N.am      1 UNK        -0.4884 
      5 CA         18.6029  -25.6210  -44.5602 C.3       1 UNK         0.0853 
      6 C6         18.1840  -25.8420  -46.0499 C.3       10 UNK        -0.0849 
      7 S7         17.9901  -27.5341  -46.7234 S.3       10 UNK        -0.2776 
      8 C8         16.4157  -28.1184  -46.0204 C.3       10 UNK         0.0316 
      9 C9         16.6711  -29.1291  -44.9120 C.ar      10 UNK        -0.0863 
     10 C10        17.2313  -30.3739  -45.2139 C.ar      10 UNK        -0.1009 
     11 C11        17.5279  -31.2939  -44.2001 C.ar      10 UNK        -0.0712 
     12 C12        17.2398  -30.9553  -42.8730 C.ar      10 UNK        -0.0894 
     13 C13        16.6569  -29.7227  -42.5617 C.ar      10 UNK        -0.0745 
     14 C14        16.3581  -28.8245  -43.5874 C.ar      10 UNK        -0.0972 
     15 C15        16.3377  -29.3500  -41.1229 C.3       10 UNK         0.0209 
     16 S16        17.6022  -28.2391  -40.4283 S.3       10 UNK        -0.2568 
     17 C17        18.9313  -29.4177  -40.0001 C.3       10 UNK        -0.0983 
     18 CA         20.3320  -29.0211  -40.5258 C.3       3 UNK         0.0876 
     19 N          20.3568  -28.8290  -41.9791 N.am      3 UNK        -0.4424 
     20 C          21.4744  -28.7175  -42.7092 C.2       2 UNK         0.4918 
     21 O          22.6081  -28.8283  -42.2424 O.2       2 UNK        -0.4875 
     22 CA         21.3127  -28.3861  -44.2023 C.3       2 UNK         0.0481 
     23 CB         21.2600  -29.6852  -45.0139 C.3       2 UNK        -0.1831 
     24 N          20.1472  -27.5570  -44.5395 N.am      2 UNK        -0.4498 
     25 C          19.8335  -26.3661  -44.0148 C.2       1 UNK         0.5027 
     26 O          20.4563  -25.8587  -43.0814 O.2       1 UNK        -0.4969 
     27 C          20.9366  -27.8395  -39.7320 C.2       3 UNK         0.5005 
     28 O          21.4713  -28.0595  -38.6444 O.2       3 UNK        -0.5279 
     29 N          20.8578  -26.6219  -40.2860 N.am      4 UNK        -0.4463 
     30 CA         21.4330  -25.4058  -39.7125 C.3       4 UNK         0.0283 
     31 CB         20.4255  -24.2534  -39.8597 C.3       4 UNK        -0.1875 
     32 C          22.7616  -25.0456  -40.3925 C.2       4 UNK         0.4949 
     33 O          23.6994  -24.6386  -39.7073 O.2       4 UNK        -0.5039 
     34 N          22.8159  -25.1833  -41.7247 N.am      5 UNK        -0.4663 
     35 CA         23.9529  -24.7890  -42.5592 C.3       5 UNK         0.0242 
     36 CB         23.4949  -24.6981  -44.0239 C.3       5 UNK        -0.1982 
     37 C          25.1749  -25.7132  -42.4350 C.2       5 UNK         0.5017 
     38 O          26.2954  -25.2382  -42.6262 O.2       5 UNK        -0.5012 
     39 N          24.9478  -26.9980  -42.1344 N.am      6 UNK        -0.4439 
     40 CA         25.9883  -28.0095  -41.9666 C.3       6 UNK         0.0297 
     41 CB         25.9553  -29.0023  -43.1459 C.3       6 UNK        -0.2006 
     42 C          25.8211  -28.6958  -40.6068 C.2       6 UNK         0.4892 
     43 O          26.5894  -28.4026  -39.6904 O.2       6 UNK        -0.5089 
     44 N          24.8223  -29.5802  -40.5035 N.am      7 UNK        -0.4243 
     45 CA         24.4851  -30.3921  -39.3294 C.3       7 UNK         0.0196 
     46 CB         25.6698  -31.2668  -38.8622 C.3       7 UNK        -0.2007 
     47 C          23.2875  -31.2948  -39.6441 C.2       7 UNK         0.5020 
     48 O          22.4126  -31.4591  -38.7948 O.2       7 UNK        -0.5147 
     49 N          23.2611  -31.8520  -40.8603 N.am      8 UNK        -0.4734 
     50 CA         22.2191  -32.7212  -41.4012 C.3       8 UNK         0.0238 
     51 CB         22.2218  -34.0846  -40.6769 C.3       8 UNK        -0.1912 
     52 C          22.4812  -32.9078  -42.9016 C.2       8 UNK         0.5038 
     53 O          23.5614  -32.5510  -43.3821 O.2       8 UNK        -0.5046 
     54 N          21.4997  -33.4835  -43.6037 N.am      9 UNK        -0.4200 
     55 CA         21.6285  -33.9372  -44.9960 C.3       9 UNK         0.0839 
     56 C          22.5248  -35.2005  -45.1048 C.2       9 UNK         0.5513 
     57 N          23.2830  -35.3311  -46.1844 N.am      9 UNK        -0.7519 
     58 O          22.5053  -36.0782  -44.2439 O.2       9 UNK        -0.4960 
     59 C59        20.2409  -34.1933  -45.6396 C.3       10 UNK        -0.0876 
     60 S60        19.3250  -32.6402  -45.8951 S.3       10 UNK        -0.2414 
     61 C61        18.1359  -32.6618  -44.5109 C.3       10 UNK         0.0169 
     62 H62        15.4278  -24.3437  -41.6217 H         1 UNK         0.0903 
     63 H63        14.5772  -25.4569  -42.6955 H         1 UNK         0.0903 
     64 H64        15.8735  -26.0463  -41.6499 H         1 UNK         0.0903 
     65 H65        17.5986  -26.6046  -43.0033 H         1 UNK         0.3096 
     66 H66        18.8991  -24.5704  -44.4991 H         1 UNK         0.1121 
     67 H67        17.2643  -25.2929  -46.2569 H         1 UNK         0.0849 
     68 H68        18.9331  -25.3604  -46.6807 H         1 UNK         0.0849 
     69 H69        15.8236  -27.2742  -45.6638 H         1 UNK         0.0865 
     70 H70        15.8296  -28.5936  -46.8083 H         1 UNK         0.0865 
     71 H71        17.4492  -30.6144  -46.2452 H         1 UNK         0.1346 
     72 H72        17.4590  -31.6579  -42.0808 H         1 UNK         0.1412 
     73 H73        15.8814  -27.8858  -43.3500 H         1 UNK         0.1426 
     74 H74        16.2393  -30.2399  -40.4990 H         1 UNK         0.0716 
     75 H75        15.3704  -28.8467  -41.0847 H         1 UNK         0.0716 
     76 H76        18.6783  -30.4045  -40.3877 H         1 UNK         0.0695 
     77 H77        18.9486  -29.5354  -38.9148 H         1 UNK         0.0695 
     78 H78        20.9835  -29.8691  -40.3250 H         1 UNK         0.0983 
     79 H79        19.4609  -28.7395  -42.4357 H         1 UNK         0.3095 
     80 H80        22.2013  -27.8327  -44.5092 H         1 UNK         0.0454 
     81 H81        20.3839  -30.2736  -44.7455 H         1 UNK         0.0851 
     82 H82        21.2205  -29.4905  -46.0856 H         1 UNK         0.0851 
     83 H83        22.1392  -30.3041  -44.8280 H         1 UNK         0.0851 
     84 H84        19.5511  -27.8966  -45.2867 H         1 UNK         0.2976 
     85 H85        20.4414  -26.5315  -41.2064 H         1 UNK         0.3116 
     86 H86        21.6282  -25.5447  -38.6470 H         1 UNK         0.0646 
     87 H87        20.1823  -24.0546  -40.9044 H         1 UNK         0.0847 
     88 H88        20.8240  -23.3305  -39.4361 H         1 UNK         0.0847 
     89 H89        19.4946  -24.4740  -39.3371 H         1 UNK         0.0847 
     90 H90        21.9770  -25.4834  -42.2175 H         1 UNK         0.3040 
     91 H91        24.2701  -23.7927  -42.2424 H         1 UNK         0.1015 
     92 H92        23.1601  -25.6634  -44.4031 H         1 UNK         0.0786 
     93 H93        24.3080  -24.3593  -44.6674 H         1 UNK         0.0786 
     94 H94        22.6740  -23.9901  -44.1398 H         1 UNK         0.0786 
     95 H95        23.9932  -27.3077  -41.9871 H         1 UNK         0.3172 
     96 H96        26.9767  -27.5451  -41.9593 H         1 UNK         0.0595 
     97 H97        24.9757  -29.4602  -43.2837 H         1 UNK         0.0839 
     98 H98        26.6757  -29.8080  -42.9984 H         1 UNK         0.0839 
     99 H99        26.2167  -28.5046  -44.0797 H         1 UNK         0.0839 
    100 H100       24.1605  -29.6354  -41.2728 H         1 UNK         0.2998 
    101 H101       24.1943  -29.7165  -38.5223 H         1 UNK         0.0822 
    102 H102       26.4818  -30.6686  -38.4503 H         1 UNK         0.0787 
    103 H103       25.3604  -31.9555  -38.0746 H         1 UNK         0.0787 
    104 H104       26.0748  -31.8662  -39.6784 H         1 UNK         0.0787 
    105 H105       24.0191  -31.6873  -41.5129 H         1 UNK         0.3055 
    106 H106       21.2505  -32.2326  -41.2757 H         1 UNK         0.1106 
    107 H107       21.4707  -34.7582  -41.0908 H         1 UNK         0.0828 
    108 H108       23.1882  -34.5825  -40.7663 H         1 UNK         0.0828 
    109 H109       21.9985  -33.9797  -39.6155 H         1 UNK         0.0828 
    110 H110       20.6658  -33.7807  -43.1217 H         1 UNK         0.2931 
    111 H111       22.1182  -33.1381  -45.5577 H         1 UNK         0.0412 
    112 H112       23.2982  -34.6207  -46.9001 H         1 UNK         0.3472 
    113 H113       23.8607  -36.1519  -46.2820 H         1 UNK         0.3472 
    114 H114       19.6497  -34.8928  -45.0457 H         1 UNK         0.0970 
    115 H115       20.3548  -34.6566  -46.6218 H         1 UNK         0.0970 
    116 H116       17.3333  -33.3624  -44.7441 H         1 UNK         0.0612 
    117 H117       18.6400  -33.0464  -43.6238 H         1 UNK         0.0612 
@<TRIPOS>BOND
     1    1    2 1    
     2    1   62 1    
     3    1   63 1    
     4    1   64 1    
     5    2    3 2    
     6    2    4 am   BACKBONE|DICT|INTERRES
     7    4    5 1    
     8    4   65 1    
     9    5    6 1    
    10    5   25 1    
    11    5   66 1    
    12    6    7 1    
    13    6   67 1    
    14    6   68 1    
    15    7    8 1    
    16    8    9 1    
    17    8   69 1    
    18    8   70 1    
    19    9   10 ar   
    20    9   14 ar   
    21   10   11 ar   
    22   10   71 1    
    23   11   12 ar   
    24   11   61 1    
    25   12   13 ar   
    26   12   72 1    
    27   13   14 ar   
    28   13   15 1    
    29   14   73 1    
    30   15   16 1    
    31   15   74 1    
    32   15   75 1    
    33   16   17 1    
    34   17   18 1    
    35   17   76 1    
    36   17   77 1    
    37   18   19 1    
    38   18   27 1    
    39   18   78 1    
    40   19   20 am   BACKBONE|DICT|INTERRES
    41   19   79 1    
    42   20   21 2    
    43   20   22 1    
    44   22   23 1    
    45   22   24 1    
    46   22   80 1    
    47   23   81 1    
    48   23   82 1    
    49   23   83 1    
    50   24   25 am   BACKBONE|DICT|INTERRES
    51   24   84 1    
    52   25   26 2    
    53   27   28 2    
    54   27   29 am   BACKBONE|DICT|INTERRES
    55   29   30 1    
    56   29   85 1    
    57   30   31 1    
    58   30   32 1    
    59   30   86 1    
    60   31   87 1    
    61   31   88 1    
    62   31   89 1    
    63   32   33 2    
    64   32   34 am   BACKBONE|DICT|INTERRES
    65   34   35 1    
    66   34   90 1    
    67   35   36 1    
    68   35   37 1    
    69   35   91 1    
    70   36   92 1    
    71   36   93 1    
    72   36   94 1    
    73   37   38 2    
    74   37   39 am   BACKBONE|DICT|INTERRES
    75   39   40 1    
    76   39   95 1    
    77   40   41 1    
    78   40   42 1    
    79   40   96 1    
    80   41   97 1    
    81   41   98 1    
    82   41   99 1    
    83   42   43 2    
    84   42   44 am   BACKBONE|DICT|INTERRES
    85   44   45 1    
    86   44  100 1    
    87   45   46 1    
    88   45   47 1    
    89   45  101 1    
    90   46  102 1    
    91   46  103 1    
    92   46  104 1    
    93   47   48 2    
    94   47   49 am   BACKBONE|DICT|INTERRES
    95   49   50 1    
    96   49  105 1    
    97   50   51 1    
    98   50   52 1    
    99   50  106 1    
   100   51  107 1    
   101   51  108 1    
   102   51  109 1    
   103   52   53 2    
   104   52   54 am   BACKBONE|DICT|INTERRES
   105   54   55 1    
   106   54  110 1    
   107   55   56 1    
   108   55   59 1    
   109   55  111 1    
   110   56   57 am   BACKBONE|DICT|INTERRES
   111   56   58 2    
   112   57  112 1    
   113   57  113 1    
   114   59   60 1    
   115   59  114 1    
   116   59  115 1    
   117   60   61 1    
   118   61  116 1    
   119   61  117 1    
@<TRIPOS>SUBSTRUCTURE
     1 UNK         1 GROUP             0       ****    0 ROOT    
