@<TRIPOS>MOLECULE
3R8
117   119    1
SMALL
USER_CHARGES


@<TRIPOS>ATOM
      1 CA         13.2410  -27.9686  -48.3421 C.3       0 UNK        -0.2013 
      2 C          14.4069  -28.6856  -47.6778 C.2       0 UNK         0.4866 
      3 O          14.5039  -29.9101  -47.7648 O.2       0 UNK        -0.5176 
      4 N          15.2941  -27.9342  -47.0206 N.am      1 UNK        -0.4884 
      5 CA         16.4781  -28.4344  -46.3240 C.3       1 UNK         0.0853 
      6 C6         16.1600  -29.1054  -44.9553 C.3       10 UNK        -0.0849 
      7 S7         15.0835  -28.1399  -43.8289 S.3       10 UNK        -0.2776 
      8 C8         16.2709  -27.2036  -42.7945 C.3       10 UNK         0.0316 
      9 C9         17.0326  -27.9878  -41.7209 C.ar      10 UNK        -0.0863 
     10 C10        16.9845  -29.3834  -41.6060 C.ar      10 UNK        -0.1009 
     11 C11        17.7339  -30.0471  -40.6307 C.ar      10 UNK        -0.0712 
     12 C12        18.5124  -29.3088  -39.7360 C.ar      10 UNK        -0.0894 
     13 C13        18.5512  -27.9152  -39.8162 C.ar      10 UNK        -0.0745 
     14 C14        17.8169  -27.2655  -40.8140 C.ar      10 UNK        -0.0972 
     15 C15        19.3632  -27.1144  -38.8056 C.3       10 UNK         0.0209 
     16 S16        21.1464  -27.1163  -39.1797 S.3       10 UNK        -0.2568 
     17 C17        21.1954  -26.1787  -40.7400 C.3       10 UNK        -0.0983 
     18 CA         21.5075  -27.0945  -41.9525 C.3       3 UNK         0.0876 
     19 N          20.8328  -26.6246  -43.1648 N.am      3 UNK        -0.4424 
     20 C          20.4638  -27.4279  -44.1668 C.2       2 UNK         0.4918 
     21 O          20.6341  -28.6489  -44.1758 O.2       2 UNK        -0.4875 
     22 CA         19.7845  -26.7600  -45.3652 C.3       2 UNK         0.0481 
     23 CB         20.7873  -26.5280  -46.5070 C.3       2 UNK        -0.1831 
     24 N          18.7265  -27.6590  -45.8057 N.am      2 UNK        -0.4498 
     25 C          17.4978  -27.2936  -46.1823 C.2       1 UNK         0.5027 
     26 O          17.1495  -26.1240  -46.3721 O.2       1 UNK        -0.4969 
     27 C          23.0266  -27.2228  -42.1787 C.2       3 UNK         0.5005 
     28 O          23.6298  -28.2120  -41.7574 O.2       3 UNK        -0.5279 
     29 N          23.6109  -26.1970  -42.8234 N.am      4 UNK        -0.4463 
     30 CA         25.0468  -25.9886  -43.0736 C.3       4 UNK         0.0283 
     31 CB         25.5954  -27.0531  -44.0431 C.3       4 UNK        -0.1875 
     32 C          25.8916  -25.8915  -41.7851 C.2       4 UNK         0.4949 
     33 O          27.0780  -26.2210  -41.8082 O.2       4 UNK        -0.5039 
     34 N          25.2554  -25.4625  -40.6824 N.am      5 UNK        -0.4663 
     35 CA         25.7784  -25.4188  -39.3084 C.3       5 UNK         0.0242 
     36 CB         26.9045  -24.3700  -39.1825 C.3       5 UNK        -0.1982 
     37 C          26.1882  -26.8042  -38.7603 C.2       5 UNK         0.5017 
     38 O          27.0466  -26.8825  -37.8794 O.2       5 UNK        -0.5012 
     39 N          25.5694  -27.8681  -39.2861 N.am      6 UNK        -0.4439 
     40 CA         25.8184  -29.2593  -38.9325 C.3       6 UNK         0.0297 
     41 CB         26.9449  -29.8262  -39.8243 C.3       6 UNK        -0.2006 
     42 C          24.4807  -30.0036  -39.0305 C.2       6 UNK         0.4892 
     43 O          23.5824  -29.7185  -38.2375 O.2       6 UNK        -0.5089 
     44 N          24.3615  -30.9232  -39.9930 N.am      7 UNK        -0.4243 
     45 CA         23.1425  -31.6613  -40.3050 C.3       7 UNK         0.0196 
     46 CB         22.9582  -32.8421  -39.3296 C.3       7 UNK        -0.2007 
     47 C          23.1906  -32.0923  -41.7755 C.2       7 UNK         0.5020 
     48 O          23.0897  -33.2836  -42.0751 O.2       7 UNK        -0.5147 
     49 N          23.3489  -31.1161  -42.6835 N.am      8 UNK        -0.4734 
     50 CA         23.3767  -31.3385  -44.1405 C.3       8 UNK         0.0238 
     51 CB         23.8165  -30.0539  -44.8581 C.3       8 UNK        -0.1912 
     52 C          22.0628  -31.8875  -44.7346 C.2       8 UNK         0.5038 
     53 O          22.0698  -32.3768  -45.8651 O.2       8 UNK        -0.5046 
     54 N          20.9805  -31.8350  -43.9511 N.am      9 UNK        -0.4200 
     55 CA         19.7113  -32.5345  -44.1728 C.3       9 UNK         0.0839 
     56 C          19.8092  -34.0902  -44.1944 C.2       9 UNK         0.5513 
     57 N          20.8608  -34.7017  -43.6589 N.am      9 UNK        -0.7519 
     58 O          18.9137  -34.7501  -44.7153 O.2       9 UNK        -0.4960 
     59 C59        18.6420  -32.0447  -43.1634 C.3       10 UNK        -0.0876 
     60 S60        19.1147  -32.3084  -41.4142 S.3       10 UNK        -0.2414 
     61 C61        17.7035  -31.5644  -40.5423 C.3       10 UNK         0.0169 
     62 H62        12.2972  -28.3362  -47.9403 H         1 UNK         0.0903 
     63 H63        13.2494  -28.1526  -49.4161 H         1 UNK         0.0903 
     64 H64        13.2805  -26.8913  -48.1818 H         1 UNK         0.0903 
     65 H65        15.2102  -26.9246  -46.9978 H         1 UNK         0.3096 
     66 H66        16.9483  -29.1801  -46.9699 H         1 UNK         0.1121 
     67 H67        17.0788  -29.3806  -44.4376 H         1 UNK         0.0849 
     68 H68        15.6498  -30.0515  -45.1420 H         1 UNK         0.0849 
     69 H69        16.9899  -26.6959  -43.4368 H         1 UNK         0.0865 
     70 H70        15.7064  -26.4129  -42.2980 H         1 UNK         0.0865 
     71 H71        16.3764  -29.9713  -42.2770 H         1 UNK         0.1346 
     72 H72        19.0883  -29.8190  -38.9758 H         1 UNK         0.1412 
     73 H73        17.8495  -26.1864  -40.8807 H         1 UNK         0.1426 
     74 H74        19.0055  -26.0850  -38.7507 H         1 UNK         0.0716 
     75 H75        19.2161  -27.5368  -37.8105 H         1 UNK         0.0716 
     76 H76        21.9137  -25.3630  -40.6390 H         1 UNK         0.0695 
     77 H77        20.2317  -25.6860  -40.8711 H         1 UNK         0.0695 
     78 H78        21.1280  -28.0962  -41.7323 H         1 UNK         0.0983 
     79 H79        20.6366  -25.6363  -43.2283 H         1 UNK         0.3095 
     80 H80        19.3623  -25.8038  -45.0484 H         1 UNK         0.0454 
     81 H81        20.3044  -26.0685  -47.3695 H         1 UNK         0.0851 
     82 H82        21.2453  -27.4613  -46.8378 H         1 UNK         0.0851 
     83 H83        21.5921  -25.8625  -46.1925 H         1 UNK         0.0851 
     84 H84        18.9308  -28.6356  -45.6331 H         1 UNK         0.2976 
     85 H85        23.0132  -25.4445  -43.1352 H         1 UNK         0.3116 
     86 H86        25.1315  -25.0188  -43.5661 H         1 UNK         0.0646 
     87 H87        24.9543  -27.1719  -44.9163 H         1 UNK         0.0847 
     88 H88        26.5872  -26.7781  -44.4040 H         1 UNK         0.0847 
     89 H89        25.6909  -28.0205  -43.5508 H         1 UNK         0.0847 
     90 H90        24.2854  -25.2011  -40.7841 H         1 UNK         0.3040 
     91 H91        24.9512  -25.0878  -38.6782 H         1 UNK         0.1015 
     92 H92        27.8011  -24.6706  -39.7252 H         1 UNK         0.0786 
     93 H93        27.1906  -24.2252  -38.1399 H         1 UNK         0.0786 
     94 H94        26.5887  -23.4001  -39.5665 H         1 UNK         0.0786 
     95 H95        24.8579  -27.7250  -39.9953 H         1 UNK         0.3172 
     96 H96        26.1349  -29.3251  -37.8894 H         1 UNK         0.0595 
     97 H97        27.8811  -29.2954  -39.6495 H         1 UNK         0.0839 
     98 H98        26.7138  -29.7321  -40.8865 H         1 UNK         0.0839 
     99 H99        27.1333  -30.8786  -39.6075 H         1 UNK         0.0839 
    100 H100       25.1421  -31.0785  -40.6162 H         1 UNK         0.2998 
    101 H101       22.2844  -30.9923  -40.2030 H         1 UNK         0.0822 
    102 H102       22.0495  -33.3998  -39.5612 H         1 UNK         0.0787 
    103 H103       23.7948  -33.5398  -39.3803 H         1 UNK         0.0787 
    104 H104       22.8698  -32.4982  -38.2991 H         1 UNK         0.0787 
    105 H105       23.4349  -30.1547  -42.3623 H         1 UNK         0.3055 
    106 H106       24.1319  -32.1024  -44.3386 H         1 UNK         0.1106 
    107 H107       24.8583  -29.8301  -44.6369 H         1 UNK         0.0828 
    108 H108       23.7392  -30.1566  -45.9414 H         1 UNK         0.0828 
    109 H109       23.2109  -29.1961  -44.5679 H         1 UNK         0.0828 
    110 H110       21.0765  -31.3909  -43.0508 H         1 UNK         0.2931 
    111 H111       19.3722  -32.2423  -45.1684 H         1 UNK         0.0412 
    112 H112       21.5897  -34.1698  -43.1962 H         1 UNK         0.3472 
    113 H113       20.9119  -35.7076  -43.6827 H         1 UNK         0.3472 
    114 H114       18.4830  -30.9776  -43.3165 H         1 UNK         0.0970 
    115 H115       17.6795  -32.5237  -43.3537 H         1 UNK         0.0970 
    116 H116       16.7710  -31.9594  -40.9485 H         1 UNK         0.0612 
    117 H117       17.7355  -31.8714  -39.4959 H         1 UNK         0.0612 
@<TRIPOS>BOND
     1    1    2 1    
     2    1   62 1    
     3    1   63 1    
     4    1   64 1    
     5    2    3 2    
     6    2    4 am   BACKBONE|DICT|INTERRES
     7    4    5 1    
     8    4   65 1    
     9    5    6 1    
    10    5   25 1    
    11    5   66 1    
    12    6    7 1    
    13    6   67 1    
    14    6   68 1    
    15    7    8 1    
    16    8    9 1    
    17    8   69 1    
    18    8   70 1    
    19    9   10 ar   
    20    9   14 ar   
    21   10   11 ar   
    22   10   71 1    
    23   11   12 ar   
    24   11   61 1    
    25   12   13 ar   
    26   12   72 1    
    27   13   14 ar   
    28   13   15 1    
    29   14   73 1    
    30   15   16 1    
    31   15   74 1    
    32   15   75 1    
    33   16   17 1    
    34   17   18 1    
    35   17   76 1    
    36   17   77 1    
    37   18   19 1    
    38   18   27 1    
    39   18   78 1    
    40   19   20 am   BACKBONE|DICT|INTERRES
    41   19   79 1    
    42   20   21 2    
    43   20   22 1    
    44   22   23 1    
    45   22   24 1    
    46   22   80 1    
    47   23   81 1    
    48   23   82 1    
    49   23   83 1    
    50   24   25 am   BACKBONE|DICT|INTERRES
    51   24   84 1    
    52   25   26 2    
    53   27   28 2    
    54   27   29 am   BACKBONE|DICT|INTERRES
    55   29   30 1    
    56   29   85 1    
    57   30   31 1    
    58   30   32 1    
    59   30   86 1    
    60   31   87 1    
    61   31   88 1    
    62   31   89 1    
    63   32   33 2    
    64   32   34 am   BACKBONE|DICT|INTERRES
    65   34   35 1    
    66   34   90 1    
    67   35   36 1    
    68   35   37 1    
    69   35   91 1    
    70   36   92 1    
    71   36   93 1    
    72   36   94 1    
    73   37   38 2    
    74   37   39 am   BACKBONE|DICT|INTERRES
    75   39   40 1    
    76   39   95 1    
    77   40   41 1    
    78   40   42 1    
    79   40   96 1    
    80   41   97 1    
    81   41   98 1    
    82   41   99 1    
    83   42   43 2    
    84   42   44 am   BACKBONE|DICT|INTERRES
    85   44   45 1    
    86   44  100 1    
    87   45   46 1    
    88   45   47 1    
    89   45  101 1    
    90   46  102 1    
    91   46  103 1    
    92   46  104 1    
    93   47   48 2    
    94   47   49 am   BACKBONE|DICT|INTERRES
    95   49   50 1    
    96   49  105 1    
    97   50   51 1    
    98   50   52 1    
    99   50  106 1    
   100   51  107 1    
   101   51  108 1    
   102   51  109 1    
   103   52   53 2    
   104   52   54 am   BACKBONE|DICT|INTERRES
   105   54   55 1    
   106   54  110 1    
   107   55   56 1    
   108   55   59 1    
   109   55  111 1    
   110   56   57 am   BACKBONE|DICT|INTERRES
   111   56   58 2    
   112   57  112 1    
   113   57  113 1    
   114   59   60 1    
   115   59  114 1    
   116   59  115 1    
   117   60   61 1    
   118   61  116 1    
   119   61  117 1    
@<TRIPOS>SUBSTRUCTURE
     1 UNK         1 GROUP             0       ****    0 ROOT    
