@<TRIPOS>MOLECULE
3R8
117   119    1
SMALL
USER_CHARGES


@<TRIPOS>ATOM
      1 CA         20.0352  -25.0951  -39.0233 C.3       0 UNK        -0.2013 
      2 C          19.1947  -24.9756  -40.2861 C.2       0 UNK         0.4866 
      3 O          18.5207  -23.9642  -40.4833 O.2       0 UNK        -0.5176 
      4 N          19.2256  -26.0064  -41.1364 N.am      1 UNK        -0.4884 
      5 CA         18.5335  -26.0719  -42.4243 C.3       1 UNK         0.0853 
      6 C6         18.3564  -27.5508  -42.8501 C.3       10 UNK        -0.0849 
      7 S7         16.9268  -27.8244  -43.9467 S.3       10 UNK        -0.2776 
      8 C8         16.7978  -29.6417  -43.8761 C.3       10 UNK         0.0316 
      9 C9         18.0742  -30.3203  -44.3549 C.ar      10 UNK        -0.0863 
     10 C10        18.8584  -31.0691  -43.4700 C.ar      10 UNK        -0.1009 
     11 C11        20.0322  -31.6874  -43.9132 C.ar      10 UNK        -0.0712 
     12 C12        20.4330  -31.5291  -45.2434 C.ar      10 UNK        -0.0894 
     13 C13        19.6635  -30.7729  -46.1327 C.ar      10 UNK        -0.0745 
     14 C14        18.4755  -30.1881  -45.6870 C.ar      10 UNK        -0.0972 
     15 C15        20.1237  -30.5740  -47.5708 C.3       10 UNK         0.0209 
     16 S16        20.4345  -28.8206  -47.9649 S.3       10 UNK        -0.2568 
     17 C17        21.7254  -28.3925  -46.7481 C.3       10 UNK        -0.0983 
     18 CA         21.9365  -26.8623  -46.6223 C.3       3 UNK         0.0876 
     19 N          20.7068  -26.1760  -46.2196 N.am      3 UNK        -0.4424 
     20 C          20.4346  -24.8802  -46.4174 C.2       2 UNK         0.4918 
     21 O          21.1886  -24.1108  -47.0153 O.2       2 UNK        -0.4875 
     22 CA         19.1180  -24.3379  -45.8287 C.3       2 UNK         0.0481 
     23 CB         18.0275  -24.3051  -46.9108 C.3       2 UNK        -0.1831 
     24 N          18.6183  -25.0795  -44.6642 N.am      2 UNK        -0.4498 
     25 C          19.2696  -25.2459  -43.5043 C.2       1 UNK         0.5027 
     26 O          20.4043  -24.8063  -43.2980 O.2       1 UNK        -0.4969 
     27 C          23.0893  -26.5151  -45.6539 C.2       3 UNK         0.5005 
     28 O          23.5407  -27.3776  -44.8999 O.2       3 UNK        -0.5279 
     29 N          23.5291  -25.2482  -45.6750 N.am      4 UNK        -0.4463 
     30 CA         24.6773  -24.6913  -44.9453 C.3       4 UNK         0.0283 
     31 CB         25.9944  -25.2073  -45.5632 C.3       4 UNK        -0.1875 
     32 C          24.6207  -24.8992  -43.4163 C.2       4 UNK         0.4949 
     33 O          25.6479  -25.1845  -42.7987 O.2       4 UNK        -0.5039 
     34 N          23.4198  -24.7511  -42.8375 N.am      5 UNK        -0.4663 
     35 CA         23.1016  -24.8952  -41.4110 C.3       5 UNK         0.0242 
     36 CB         23.8654  -23.8635  -40.5517 C.3       5 UNK        -0.1982 
     37 C          23.2244  -26.3355  -40.8736 C.2       5 UNK         0.5017 
     38 O          23.3651  -26.5129  -39.6620 O.2       5 UNK        -0.5012 
     39 N          23.1351  -27.3416  -41.7575 N.am      6 UNK        -0.4439 
     40 CA         23.0290  -28.7574  -41.3888 C.3       6 UNK         0.0297 
     41 CB         23.1778  -29.6240  -42.6490 C.3       6 UNK        -0.2006 
     42 C          21.6934  -29.0655  -40.6881 C.2       6 UNK         0.4892 
     43 O          20.7097  -28.3571  -40.9057 O.2       6 UNK        -0.5089 
     44 N          21.6766  -30.1295  -39.8797 N.am      7 UNK        -0.4243 
     45 CA         20.4943  -30.6023  -39.1499 C.3       7 UNK         0.0196 
     46 CB         20.1344  -29.6411  -37.9987 C.3       7 UNK        -0.2007 
     47 C          20.6908  -32.0258  -38.6121 C.2       7 UNK         0.5020 
     48 O          19.7185  -32.7731  -38.5108 O.2       7 UNK        -0.5147 
     49 N          21.9415  -32.3902  -38.2910 N.am      8 UNK        -0.4734 
     50 CA         22.3315  -33.6793  -37.7040 C.3       8 UNK         0.0238 
     51 CB         23.7865  -33.5736  -37.2135 C.3       8 UNK        -0.1912 
     52 C          22.1566  -34.9110  -38.6169 C.2       8 UNK         0.5038 
     53 O          22.3691  -36.0289  -38.1442 O.2       8 UNK        -0.5046 
     54 N          21.7904  -34.7054  -39.8897 N.am      9 UNK        -0.4200 
     55 CA         21.5148  -35.7720  -40.8637 C.3       9 UNK         0.0839 
     56 C          20.2480  -36.6314  -40.5668 C.2       9 UNK         0.5513 
     57 N          19.3383  -36.1963  -39.7019 N.am      9 UNK        -0.7519 
     58 O          20.0988  -37.7157  -41.1245 O.2       9 UNK        -0.4960 
     59 C59        21.5483  -35.2399  -42.3217 C.3       10 UNK        -0.0876 
     60 S60        20.1231  -34.1924  -42.7916 S.3       10 UNK        -0.2414 
     61 C61        20.8617  -32.5404  -42.9652 C.3       10 UNK         0.0169 
     62 H62        20.7739  -24.2951  -38.9851 H         1 UNK         0.0903 
     63 H63        20.5643  -26.0474  -38.9765 H         1 UNK         0.0903 
     64 H64        19.4009  -25.0170  -38.1408 H         1 UNK         0.0903 
     65 H65        19.8167  -26.8146  -40.9372 H         1 UNK         0.3096 
     66 H66        17.5466  -25.6244  -42.2850 H         1 UNK         0.1121 
     67 H67        18.1904  -28.1710  -41.9670 H         1 UNK         0.0849 
     68 H68        19.2635  -27.9439  -43.3153 H         1 UNK         0.0849 
     69 H69        16.5527  -29.9453  -42.8570 H         1 UNK         0.0865 
     70 H70        15.9634  -29.9643  -44.5005 H         1 UNK         0.0865 
     71 H71        18.5529  -31.1830  -42.4389 H         1 UNK         0.1346 
     72 H72        21.3462  -31.9961  -45.5862 H         1 UNK         0.1412 
     73 H73        17.8778  -29.6013  -46.3715 H         1 UNK         0.1426 
     74 H74        21.0302  -31.1465  -47.7736 H         1 UNK         0.0716 
     75 H75        19.3586  -30.9585  -48.2464 H         1 UNK         0.0716 
     76 H76        22.6506  -28.8854  -47.0527 H         1 UNK         0.0695 
     77 H77        21.4583  -28.8107  -45.7764 H         1 UNK         0.0695 
     78 H78        22.2301  -26.4932  -47.6077 H         1 UNK         0.0983 
     79 H79        20.0325  -26.7353  -45.7197 H         1 UNK         0.3095 
     80 H80        19.3073  -23.3129  -45.5040 H         1 UNK         0.0454 
     81 H81        17.1169  -23.8308  -46.5446 H         1 UNK         0.0851 
     82 H82        17.7704  -25.3077  -47.2554 H         1 UNK         0.0851 
     83 H83        18.3577  -23.7365  -47.7814 H         1 UNK         0.0851 
     84 H84        17.7094  -25.5127  -44.7618 H         1 UNK         0.2976 
     85 H85        23.0228  -24.5993  -46.2707 H         1 UNK         0.3116 
     86 H86        24.6422  -23.6122  -45.1015 H         1 UNK         0.0646 
     87 H87        26.0327  -25.0165  -46.6356 H         1 UNK         0.0847 
     88 H88        26.8585  -24.7122  -45.1181 H         1 UNK         0.0847 
     89 H89        26.1182  -26.2798  -45.4082 H         1 UNK         0.0847 
     90 H90        22.6183  -24.5635  -43.4299 H         1 UNK         0.3040 
     91 H91        22.0440  -24.6499  -41.3218 H         1 UNK         0.1015 
     92 H92        24.9317  -24.0846  -40.5011 H         1 UNK         0.0786 
     93 H93        23.4901  -23.8536  -39.5276 H         1 UNK         0.0786 
     94 H94        23.7485  -22.8541  -40.9458 H         1 UNK         0.0786 
     95 H95        23.0553  -27.1210  -42.7432 H         1 UNK         0.3172 
     96 H96        23.8469  -28.9902  -40.7039 H         1 UNK         0.0595 
     97 H97        24.1139  -29.4143  -43.1669 H         1 UNK         0.0839 
     98 H98        22.3610  -29.4560  -43.3531 H         1 UNK         0.0839 
     99 H99        23.1825  -30.6848  -42.3991 H         1 UNK         0.0839 
    100 H100       22.5131  -30.6884  -39.8025 H         1 UNK         0.2998 
    101 H101       19.6555  -30.6393  -39.8490 H         1 UNK         0.0822 
    102 H102       19.2889  -30.0198  -37.4225 H         1 UNK         0.0787 
    103 H103       20.9688  -29.5102  -37.3088 H         1 UNK         0.0787 
    104 H104       19.8501  -28.6565  -38.3696 H         1 UNK         0.0787 
    105 H105       22.6732  -31.6977  -38.3378 H         1 UNK         0.3055 
    106 H106       21.6927  -33.8512  -36.8346 H         1 UNK         0.1106 
    107 H107       23.9057  -32.7677  -36.4890 H         1 UNK         0.0828 
    108 H108       24.1039  -34.4934  -36.7199 H         1 UNK         0.0828 
    109 H109       24.4780  -33.3926  -38.0373 H         1 UNK         0.0828 
    110 H110       21.5976  -33.7626  -40.1882 H         1 UNK         0.2931 
    111 H111       22.3520  -36.4683  -40.7819 H         1 UNK         0.0412 
    112 H112       19.4458  -35.2955  -39.2592 H         1 UNK         0.3472 
    113 H113       18.5245  -36.7598  -39.5124 H         1 UNK         0.3472 
    114 H114       22.4818  -34.7043  -42.4985 H         1 UNK         0.0970 
    115 H115       21.5722  -36.0836  -43.0139 H         1 UNK         0.0970 
    116 H116       20.9236  -32.0650  -41.9860 H         1 UNK         0.0612 
    117 H117       21.8826  -32.6257  -43.3397 H         1 UNK         0.0612 
@<TRIPOS>BOND
     1    1    2 1    
     2    1   62 1    
     3    1   63 1    
     4    1   64 1    
     5    2    3 2    
     6    2    4 am   BACKBONE|DICT|INTERRES
     7    4    5 1    
     8    4   65 1    
     9    5    6 1    
    10    5   25 1    
    11    5   66 1    
    12    6    7 1    
    13    6   67 1    
    14    6   68 1    
    15    7    8 1    
    16    8    9 1    
    17    8   69 1    
    18    8   70 1    
    19    9   10 ar   
    20    9   14 ar   
    21   10   11 ar   
    22   10   71 1    
    23   11   12 ar   
    24   11   61 1    
    25   12   13 ar   
    26   12   72 1    
    27   13   14 ar   
    28   13   15 1    
    29   14   73 1    
    30   15   16 1    
    31   15   74 1    
    32   15   75 1    
    33   16   17 1    
    34   17   18 1    
    35   17   76 1    
    36   17   77 1    
    37   18   19 1    
    38   18   27 1    
    39   18   78 1    
    40   19   20 am   BACKBONE|DICT|INTERRES
    41   19   79 1    
    42   20   21 2    
    43   20   22 1    
    44   22   23 1    
    45   22   24 1    
    46   22   80 1    
    47   23   81 1    
    48   23   82 1    
    49   23   83 1    
    50   24   25 am   BACKBONE|DICT|INTERRES
    51   24   84 1    
    52   25   26 2    
    53   27   28 2    
    54   27   29 am   BACKBONE|DICT|INTERRES
    55   29   30 1    
    56   29   85 1    
    57   30   31 1    
    58   30   32 1    
    59   30   86 1    
    60   31   87 1    
    61   31   88 1    
    62   31   89 1    
    63   32   33 2    
    64   32   34 am   BACKBONE|DICT|INTERRES
    65   34   35 1    
    66   34   90 1    
    67   35   36 1    
    68   35   37 1    
    69   35   91 1    
    70   36   92 1    
    71   36   93 1    
    72   36   94 1    
    73   37   38 2    
    74   37   39 am   BACKBONE|DICT|INTERRES
    75   39   40 1    
    76   39   95 1    
    77   40   41 1    
    78   40   42 1    
    79   40   96 1    
    80   41   97 1    
    81   41   98 1    
    82   41   99 1    
    83   42   43 2    
    84   42   44 am   BACKBONE|DICT|INTERRES
    85   44   45 1    
    86   44  100 1    
    87   45   46 1    
    88   45   47 1    
    89   45  101 1    
    90   46  102 1    
    91   46  103 1    
    92   46  104 1    
    93   47   48 2    
    94   47   49 am   BACKBONE|DICT|INTERRES
    95   49   50 1    
    96   49  105 1    
    97   50   51 1    
    98   50   52 1    
    99   50  106 1    
   100   51  107 1    
   101   51  108 1    
   102   51  109 1    
   103   52   53 2    
   104   52   54 am   BACKBONE|DICT|INTERRES
   105   54   55 1    
   106   54  110 1    
   107   55   56 1    
   108   55   59 1    
   109   55  111 1    
   110   56   57 am   BACKBONE|DICT|INTERRES
   111   56   58 2    
   112   57  112 1    
   113   57  113 1    
   114   59   60 1    
   115   59  114 1    
   116   59  115 1    
   117   60   61 1    
   118   61  116 1    
   119   61  117 1    
@<TRIPOS>SUBSTRUCTURE
     1 UNK         1 GROUP             0       ****    0 ROOT    
