@<TRIPOS>MOLECULE
3R8
117   119    1
SMALL
USER_CHARGES


@<TRIPOS>ATOM
      1 CA         16.8706  -25.8155  -48.6696 C.3       0 UNK        -0.2013 
      2 C          17.8553  -26.1660  -47.5643 C.2       0 UNK         0.4866 
      3 O          17.4838  -26.1424  -46.3918 O.2       0 UNK        -0.5176 
      4 N          19.1001  -26.4950  -47.9367 N.am      1 UNK        -0.4884 
      5 CA         20.2142  -26.8628  -47.0510 C.3       1 UNK         0.0853 
      6 C6         20.0089  -28.2240  -46.3231 C.3       10 UNK        -0.0849 
      7 S7         19.6518  -29.6497  -47.4052 S.3       10 UNK        -0.2776 
      8 C8         17.9039  -30.0301  -47.0342 C.3       10 UNK         0.0316 
      9 C9         17.6150  -30.1817  -45.5434 C.ar      10 UNK        -0.0863 
     10 C10        18.1074  -31.2720  -44.8176 C.ar      10 UNK        -0.1009 
     11 C11        17.8318  -31.3965  -43.4499 C.ar      10 UNK        -0.0712 
     12 C12        17.0641  -30.4176  -42.8088 C.ar      10 UNK        -0.0894 
     13 C13        16.5684  -29.3251  -43.5245 C.ar      10 UNK        -0.0745 
     14 C14        16.8391  -29.2200  -44.8903 C.ar      10 UNK        -0.0972 
     15 C15        15.7165  -28.2652  -42.8439 C.3       10 UNK         0.0209 
     16 S16        16.6087  -26.6862  -42.6794 S.3       10 UNK        -0.2568 
     17 C17        17.4675  -26.8693  -41.0786 C.3       10 UNK        -0.0983 
     18 CA         19.0029  -27.0692  -41.1874 C.3       3 UNK         0.0876 
     19 N          19.6100  -26.1207  -42.1365 N.am      3 UNK        -0.4424 
     20 C          20.9080  -25.9609  -42.4283 C.2       2 UNK         0.4918 
     21 O          21.8339  -26.4885  -41.8068 O.2       2 UNK        -0.4875 
     22 CA         21.1909  -25.1626  -43.7072 C.3       2 UNK         0.0481 
     23 CB         22.6514  -24.6937  -43.8194 C.3       2 UNK        -0.1831 
     24 N          20.8606  -26.0474  -44.8175 N.am      2 UNK        -0.4498 
     25 C          20.5785  -25.7066  -46.0808 C.2       1 UNK         0.5027 
     26 O          20.6097  -24.5458  -46.4970 O.2       1 UNK        -0.4969 
     27 C          19.6044  -27.0670  -39.7643 C.2       3 UNK         0.5005 
     28 O          19.5146  -28.0828  -39.0736 O.2       3 UNK        -0.5279 
     29 N          20.1727  -25.9277  -39.3424 N.am      4 UNK        -0.4463 
     30 CA         20.7521  -25.7031  -38.0171 C.3       4 UNK         0.0283 
     31 CB         21.1589  -24.2265  -37.8846 C.3       4 UNK        -0.1875 
     32 C          21.9435  -26.6164  -37.6786 C.2       4 UNK         0.4949 
     33 O          22.0879  -26.9845  -36.5122 O.2       4 UNK        -0.5039 
     34 N          22.7645  -26.9664  -38.6798 N.am      5 UNK        -0.4663 
     35 CA         23.9240  -27.8500  -38.5183 C.3       5 UNK         0.0242 
     36 CB         25.0269  -27.1946  -37.6573 C.3       5 UNK        -0.1982 
     37 C          24.5003  -28.2715  -39.8715 C.2       5 UNK         0.5017 
     38 O          24.6606  -29.4677  -40.1166 O.2       5 UNK        -0.5012 
     39 N          24.8149  -27.2798  -40.7183 N.am      6 UNK        -0.4439 
     40 CA         25.5599  -27.4380  -41.9749 C.3       6 UNK         0.0297 
     41 CB         25.9620  -26.0530  -42.5083 C.3       6 UNK        -0.2006 
     42 C          24.8804  -28.3015  -43.0570 C.2       6 UNK         0.4892 
     43 O          25.5619  -28.7289  -43.9895 O.2       6 UNK        -0.5089 
     44 N          23.5803  -28.5867  -42.8983 N.am      7 UNK        -0.4243 
     45 CA         22.8382  -29.6019  -43.6514 C.3       7 UNK         0.0196 
     46 CB         21.3628  -29.5677  -43.2222 C.3       7 UNK        -0.2007 
     47 C          23.3866  -31.0325  -43.4797 C.2       7 UNK         0.5020 
     48 O          23.2287  -31.8388  -44.3965 O.2       7 UNK        -0.5147 
     49 N          24.0093  -31.3184  -42.3224 N.am      8 UNK        -0.4734 
     50 CA         24.6055  -32.6032  -41.9276 C.3       8 UNK         0.0238 
     51 CB         25.8656  -32.8956  -42.7701 C.3       8 UNK        -0.1912 
     52 C          23.5886  -33.7631  -41.9370 C.2       8 UNK         0.5038 
     53 O          23.8801  -34.8402  -42.4620 O.2       8 UNK        -0.5046 
     54 N          22.4010  -33.4948  -41.3793 N.am      9 UNK        -0.4200 
     55 CA         21.2446  -34.4006  -41.3173 C.3       9 UNK         0.0839 
     56 C          21.5437  -35.7357  -40.5817 C.2       9 UNK         0.5513 
     57 N          20.9862  -36.8425  -41.0531 N.am      9 UNK        -0.7519 
     58 O          22.2325  -35.7660  -39.5637 O.2       9 UNK        -0.4960 
     59 C59        20.0129  -33.7046  -40.6797 C.3       10 UNK        -0.0876 
     60 S60        19.6081  -32.1029  -41.4540 S.3       10 UNK        -0.2414 
     61 C61        18.3419  -32.5946  -42.6615 C.3       10 UNK         0.0169 
     62 H62        17.3221  -25.8892  -49.6588 H         1 UNK         0.0903 
     63 H63        16.0154  -26.4901  -48.6365 H         1 UNK         0.0903 
     64 H64        16.5065  -24.7969  -48.5376 H         1 UNK         0.0903 
     65 H65        19.3349  -26.4683  -48.9193 H         1 UNK         0.3096 
     66 H66        21.0837  -26.9730  -47.7012 H         1 UNK         0.1121 
     67 H67        19.2386  -28.1291  -45.5587 H         1 UNK         0.0849 
     68 H68        20.9258  -28.4986  -45.8036 H         1 UNK         0.0849 
     69 H69        17.2790  -29.2483  -47.4687 H         1 UNK         0.0865 
     70 H70        17.6288  -30.9531  -47.5463 H         1 UNK         0.0865 
     71 H71        18.7058  -32.0202  -45.3194 H         1 UNK         0.1346 
     72 H72        16.8533  -30.5113  -41.7522 H         1 UNK         0.1412 
     73 H73        16.4535  -28.3727  -45.4412 H         1 UNK         0.1426 
     74 H74        14.8230  -28.0942  -43.4461 H         1 UNK         0.0716 
     75 H75        15.3606  -28.6054  -41.8705 H         1 UNK         0.0716 
     76 H76        17.0194  -27.6936  -40.5206 H         1 UNK         0.0695 
     77 H77        17.2450  -25.9674  -40.5044 H         1 UNK         0.0695 
     78 H78        19.1804  -28.0659  -41.5969 H         1 UNK         0.0983 
     79 H79        18.9373  -25.6573  -42.7322 H         1 UNK         0.3095 
     80 H80        20.5335  -24.2910  -43.7205 H         1 UNK         0.0454 
     81 H81        22.9621  -24.1538  -42.9242 H         1 UNK         0.0851 
     82 H82        22.7875  -24.0224  -44.6671 H         1 UNK         0.0851 
     83 H83        23.3252  -25.5391  -43.9557 H         1 UNK         0.0851 
     84 H84        20.7924  -27.0222  -44.5654 H         1 UNK         0.2976 
     85 H85        20.2003  -25.1520  -39.9881 H         1 UNK         0.3116 
     86 H86        19.9692  -25.9057  -37.2831 H         1 UNK         0.0646 
     87 H87        20.3035  -23.5637  -38.0159 H         1 UNK         0.0847 
     88 H88        21.5731  -24.0235  -36.8958 H         1 UNK         0.0847 
     89 H89        21.9173  -23.9484  -38.6175 H         1 UNK         0.0847 
     90 H90        22.5273  -26.6849  -39.6249 H         1 UNK         0.3040 
     91 H91        23.5881  -28.7603  -38.0162 H         1 UNK         0.1015 
     92 H92        25.3130  -26.2145  -38.0403 H         1 UNK         0.0786 
     93 H93        25.9262  -27.8122  -37.6359 H         1 UNK         0.0786 
     94 H94        24.7112  -27.0667  -36.6223 H         1 UNK         0.0786 
     95 H95        24.6297  -26.3310  -40.4270 H         1 UNK         0.3172 
     96 H96        26.4834  -27.9647  -41.7251 H         1 UNK         0.0595 
     97 H97        25.1123  -25.3768  -42.5713 H         1 UNK         0.0839 
     98 H98        26.4062  -26.1204  -43.5026 H         1 UNK         0.0839 
     99 H99        26.7033  -25.5859  -41.8597 H         1 UNK         0.0839 
    100 H100       23.0808  -28.1109  -42.1558 H         1 UNK         0.2998 
    101 H101       22.9073  -29.3503  -44.7112 H         1 UNK         0.0822 
    102 H102       20.7865  -30.3387  -43.7362 H         1 UNK         0.0787 
    103 H103       21.2553  -29.7366  -42.1504 H         1 UNK         0.0787 
    104 H104       20.8923  -28.6169  -43.4522 H         1 UNK         0.0787 
    105 H105       24.0992  -30.5751  -41.6335 H         1 UNK         0.3055 
    106 H106       24.9244  -32.4888  -40.8901 H         1 UNK         0.1106 
    107 H107       26.5749  -32.0695  -42.7209 H         1 UNK         0.0828 
    108 H108       26.3803  -33.7864  -42.4080 H         1 UNK         0.0828 
    109 H109       25.6213  -33.0652  -43.8192 H         1 UNK         0.0828 
    110 H110       22.2523  -32.5750  -40.9928 H         1 UNK         0.2931 
    111 H111       20.9924  -34.6389  -42.3527 H         1 UNK         0.0412 
    112 H112       21.1541  -37.7166  -40.5790 H         1 UNK         0.3472 
    113 H113       20.4115  -36.8256  -41.8817 H         1 UNK         0.3472 
    114 H114       19.1377  -34.3557  -40.7256 H         1 UNK         0.0970 
    115 H115       20.1912  -33.5201  -39.6184 H         1 UNK         0.0970 
    116 H116       18.7606  -33.3480  -43.3304 H         1 UNK         0.0612 
    117 H117       17.5066  -33.0653  -42.1411 H         1 UNK         0.0612 
@<TRIPOS>BOND
     1    1    2 1    
     2    1   62 1    
     3    1   63 1    
     4    1   64 1    
     5    2    3 2    
     6    2    4 am   BACKBONE|DICT|INTERRES
     7    4    5 1    
     8    4   65 1    
     9    5    6 1    
    10    5   25 1    
    11    5   66 1    
    12    6    7 1    
    13    6   67 1    
    14    6   68 1    
    15    7    8 1    
    16    8    9 1    
    17    8   69 1    
    18    8   70 1    
    19    9   10 ar   
    20    9   14 ar   
    21   10   11 ar   
    22   10   71 1    
    23   11   12 ar   
    24   11   61 1    
    25   12   13 ar   
    26   12   72 1    
    27   13   14 ar   
    28   13   15 1    
    29   14   73 1    
    30   15   16 1    
    31   15   74 1    
    32   15   75 1    
    33   16   17 1    
    34   17   18 1    
    35   17   76 1    
    36   17   77 1    
    37   18   19 1    
    38   18   27 1    
    39   18   78 1    
    40   19   20 am   BACKBONE|DICT|INTERRES
    41   19   79 1    
    42   20   21 2    
    43   20   22 1    
    44   22   23 1    
    45   22   24 1    
    46   22   80 1    
    47   23   81 1    
    48   23   82 1    
    49   23   83 1    
    50   24   25 am   BACKBONE|DICT|INTERRES
    51   24   84 1    
    52   25   26 2    
    53   27   28 2    
    54   27   29 am   BACKBONE|DICT|INTERRES
    55   29   30 1    
    56   29   85 1    
    57   30   31 1    
    58   30   32 1    
    59   30   86 1    
    60   31   87 1    
    61   31   88 1    
    62   31   89 1    
    63   32   33 2    
    64   32   34 am   BACKBONE|DICT|INTERRES
    65   34   35 1    
    66   34   90 1    
    67   35   36 1    
    68   35   37 1    
    69   35   91 1    
    70   36   92 1    
    71   36   93 1    
    72   36   94 1    
    73   37   38 2    
    74   37   39 am   BACKBONE|DICT|INTERRES
    75   39   40 1    
    76   39   95 1    
    77   40   41 1    
    78   40   42 1    
    79   40   96 1    
    80   41   97 1    
    81   41   98 1    
    82   41   99 1    
    83   42   43 2    
    84   42   44 am   BACKBONE|DICT|INTERRES
    85   44   45 1    
    86   44  100 1    
    87   45   46 1    
    88   45   47 1    
    89   45  101 1    
    90   46  102 1    
    91   46  103 1    
    92   46  104 1    
    93   47   48 2    
    94   47   49 am   BACKBONE|DICT|INTERRES
    95   49   50 1    
    96   49  105 1    
    97   50   51 1    
    98   50   52 1    
    99   50  106 1    
   100   51  107 1    
   101   51  108 1    
   102   51  109 1    
   103   52   53 2    
   104   52   54 am   BACKBONE|DICT|INTERRES
   105   54   55 1    
   106   54  110 1    
   107   55   56 1    
   108   55   59 1    
   109   55  111 1    
   110   56   57 am   BACKBONE|DICT|INTERRES
   111   56   58 2    
   112   57  112 1    
   113   57  113 1    
   114   59   60 1    
   115   59  114 1    
   116   59  115 1    
   117   60   61 1    
   118   61  116 1    
   119   61  117 1    
@<TRIPOS>SUBSTRUCTURE
     1 UNK         1 GROUP             0       ****    0 ROOT    
