@<TRIPOS>MOLECULE
3R8
117   119    1
SMALL
USER_CHARGES


@<TRIPOS>ATOM
      1 CA         18.4987  -27.3665  -41.1413 C.3       0 UNK        -0.2013 
      2 C          17.9838  -26.9953  -42.5229 C.2       0 UNK         0.4866 
      3 O          18.7821  -26.7858  -43.4383 O.2       0 UNK        -0.5176 
      4 N          16.6550  -26.8842  -42.6621 N.am      1 UNK        -0.4884 
      5 CA         15.8739  -26.5738  -43.8732 C.3       1 UNK         0.0853 
      6 C6         16.0178  -27.6255  -45.0065 C.3       10 UNK        -0.0849 
      7 S7         15.5259  -29.2992  -44.4524 S.3       10 UNK        -0.2776 
      8 C8         16.6554  -30.3934  -45.3786 C.3       10 UNK         0.0316 
      9 C9         18.1142  -30.1707  -45.0060 C.ar      10 UNK        -0.0863 
     10 C10        18.6058  -30.6039  -43.7701 C.ar      10 UNK        -0.1009 
     11 C11        19.9334  -30.3522  -43.4120 C.ar      10 UNK        -0.0712 
     12 C12        20.7641  -29.6649  -44.3000 C.ar      10 UNK        -0.0894 
     13 C13        20.2931  -29.2328  -45.5409 C.ar      10 UNK        -0.0745 
     14 C14        18.9686  -29.5118  -45.8953 C.ar      10 UNK        -0.0972 
     15 C15        21.2259  -28.4686  -46.4767 C.3       10 UNK         0.0209 
     16 S16        20.4049  -27.0556  -47.2848 S.3       10 UNK        -0.2568 
     17 C17        21.6242  -25.7052  -47.1012 C.3       10 UNK        -0.0983 
     18 CA         21.3730  -24.7579  -45.8929 C.3       3 UNK         0.0876 
     19 N          19.9452  -24.5416  -45.6452 N.am      3 UNK        -0.4424 
     20 C          19.4038  -23.4832  -45.0301 C.2       2 UNK         0.4918 
     21 O          20.0551  -22.5658  -44.5312 O.2       2 UNK        -0.4875 
     22 CA         17.8701  -23.4450  -44.9803 C.3       2 UNK         0.0481 
     23 CB         17.3107  -22.9750  -46.3393 C.3       2 UNK        -0.1831 
     24 N          17.3608  -24.7632  -44.6023 N.am      2 UNK        -0.4498 
     25 C          16.0944  -25.1355  -44.3936 C.2       1 UNK         0.5027 
     26 O          15.1221  -24.3982  -44.5617 O.2       1 UNK        -0.4969 
     27 C          22.1626  -25.1912  -44.6409 C.2       3 UNK         0.5005 
     28 O          23.3505  -24.8716  -44.5583 O.2       3 UNK        -0.5279 
     29 N          21.5186  -25.8966  -43.6975 N.am      4 UNK        -0.4463 
     30 CA         22.0380  -26.4010  -42.4155 C.3       4 UNK         0.0283 
     31 CB         22.4901  -25.2567  -41.4890 C.3       4 UNK        -0.1875 
     32 C          23.1184  -27.4917  -42.5270 C.2       4 UNK         0.4949 
     33 O          22.9788  -28.5245  -41.8756 O.2       4 UNK        -0.5039 
     34 N          24.1468  -27.2635  -43.3547 N.am      5 UNK        -0.4663 
     35 CA         25.2511  -28.1635  -43.7119 C.3       5 UNK         0.0242 
     36 CB         24.7997  -29.1213  -44.8371 C.3       5 UNK        -0.1982 
     37 C          25.8824  -28.8824  -42.5004 C.2       5 UNK         0.5017 
     38 O          26.5874  -28.2417  -41.7196 O.2       5 UNK        -0.5012 
     39 N          25.6221  -30.1908  -42.3732 N.am      6 UNK        -0.4439 
     40 CA         26.1317  -31.0627  -41.3138 C.3       6 UNK         0.0297 
     41 CB         26.0312  -32.5227  -41.7885 C.3       6 UNK        -0.2006 
     42 C          25.4183  -30.8997  -39.9591 C.2       6 UNK         0.4892 
     43 O          25.9273  -31.4205  -38.9661 O.2       6 UNK        -0.5089 
     44 N          24.2491  -30.2407  -39.9338 N.am      7 UNK        -0.4243 
     45 CA         23.3541  -29.9788  -38.7936 C.3       7 UNK         0.0196 
     46 CB         24.0537  -29.1233  -37.7201 C.3       7 UNK        -0.2007 
     47 C          22.6885  -31.2210  -38.1653 C.2       7 UNK         0.5020 
     48 O          21.5541  -31.1160  -37.7006 O.2       7 UNK        -0.5147 
     49 N          23.3761  -32.3700  -38.1648 N.am      8 UNK        -0.4734 
     50 CA         22.8849  -33.6666  -37.6802 C.3       8 UNK         0.0238 
     51 CB         24.0859  -34.6051  -37.4780 C.3       8 UNK        -0.1912 
     52 C          21.8401  -34.3207  -38.6063 C.2       8 UNK         0.5038 
     53 O          21.1449  -35.2422  -38.1759 O.2       8 UNK        -0.5046 
     54 N          21.7624  -33.8432  -39.8532 N.am      9 UNK        -0.4200 
     55 CA         20.7561  -34.1740  -40.8714 C.3       9 UNK         0.0839 
     56 C          19.2927  -33.8742  -40.4350 C.2       9 UNK         0.5513 
     57 N          18.3227  -34.5406  -41.0466 N.am      9 UNK        -0.7519 
     58 O          19.0221  -33.0313  -39.5828 O.2       9 UNK        -0.4960 
     59 C59        21.0999  -33.5232  -42.2477 C.3       10 UNK        -0.0876 
     60 S60        21.8935  -31.8774  -42.1480 S.3       10 UNK        -0.2414 
     61 C61        20.4617  -30.7586  -42.0447 C.3       10 UNK         0.0169 
     62 H62        19.1472  -28.2372  -41.2080 H         1 UNK         0.0903 
     63 H63        19.0724  -26.5417  -40.7200 H         1 UNK         0.0903 
     64 H64        17.6882  -27.6038  -40.4526 H         1 UNK         0.0903 
     65 H65        16.0834  -27.0458  -41.8445 H         1 UNK         0.3096 
     66 H66        14.8319  -26.6047  -43.5491 H         1 UNK         0.1121 
     67 H67        17.0415  -27.6375  -45.3800 H         1 UNK         0.0849 
     68 H68        15.3883  -27.3600  -45.8579 H         1 UNK         0.0849 
     69 H69        16.3879  -31.4312  -45.1746 H         1 UNK         0.0865 
     70 H70        16.4995  -30.2450  -46.4484 H         1 UNK         0.0865 
     71 H71        17.9456  -31.1104  -43.0793 H         1 UNK         0.1346 
     72 H72        21.7832  -29.4628  -44.0126 H         1 UNK         0.1412 
     73 H73        18.5907  -29.1844  -46.8538 H         1 UNK         0.1426 
     74 H74        21.6041  -29.1482  -47.2410 H         1 UNK         0.0716 
     75 H75        22.0925  -28.1091  -45.9212 H         1 UNK         0.0716 
     76 H76        21.5583  -25.1159  -48.0170 H         1 UNK         0.0695 
     77 H77        22.6386  -26.1098  -47.1032 H         1 UNK         0.0695 
     78 H78        21.7933  -23.7869  -46.1662 H         1 UNK         0.0983 
     79 H79        19.3365  -25.2464  -46.0377 H         1 UNK         0.3095 
     80 H80        17.5744  -22.7329  -44.2077 H         1 UNK         0.0454 
     81 H81        16.2398  -22.7805  -46.2918 H         1 UNK         0.0851 
     82 H82        17.4822  -23.7120  -47.1245 H         1 UNK         0.0851 
     83 H83        17.7848  -22.0449  -46.6558 H         1 UNK         0.0851 
     84 H84        18.0642  -25.4501  -44.3276 H         1 UNK         0.2976 
     85 H85        20.5480  -26.1493  -43.8727 H         1 UNK         0.3116 
     86 H86        21.1846  -26.8791  -41.9361 H         1 UNK         0.0646 
     87 H87        21.6881  -24.5357  -41.3316 H         1 UNK         0.0847 
     88 H88        23.3504  -24.7196  -41.8887 H         1 UNK         0.0847 
     89 H89        22.7771  -25.6420  -40.5096 H         1 UNK         0.0847 
     90 H90        24.1411  -26.3587  -43.8226 H         1 UNK         0.3040 
     91 H91        26.0389  -27.5296  -44.1224 H         1 UNK         0.1015 
     92 H92        25.6168  -29.7724  -45.1517 H         1 UNK         0.0786 
     93 H93        24.4867  -28.5635  -45.7196 H         1 UNK         0.0786 
     94 H94        23.9672  -29.7560  -44.5353 H         1 UNK         0.0786 
     95 H95        25.0001  -30.6143  -43.0466 H         1 UNK         0.3172 
     96 H96        27.1863  -30.8279  -41.1547 H         1 UNK         0.0595 
     97 H97        24.9969  -32.8201  -41.9671 H         1 UNK         0.0839 
     98 H98        26.4414  -33.2064  -41.0437 H         1 UNK         0.0839 
     99 H99        26.5910  -32.6809  -42.7104 H         1 UNK         0.0839 
    100 H100       23.9149  -29.8467  -40.8109 H         1 UNK         0.2998 
    101 H101       22.5409  -29.3796  -39.2071 H         1 UNK         0.0822 
    102 H102       24.4546  -28.2040  -38.1473 H         1 UNK         0.0787 
    103 H103       23.3535  -28.8377  -36.9340 H         1 UNK         0.0787 
    104 H104       24.8749  -29.6585  -37.2426 H         1 UNK         0.0787 
    105 H105       24.3351  -32.3289  -38.5001 H         1 UNK         0.3055 
    106 H106       22.4016  -33.5087  -36.7134 H         1 UNK         0.1106 
    107 H107       24.6158  -34.7892  -38.4135 H         1 UNK         0.0828 
    108 H108       23.7660  -35.5725  -37.0880 H         1 UNK         0.0828 
    109 H109       24.7983  -34.1900  -36.7648 H         1 UNK         0.0828 
    110 H110       22.3627  -33.0676  -40.0912 H         1 UNK         0.2931 
    111 H111       20.8134  -35.2568  -41.0004 H         1 UNK         0.0412 
    112 H112       17.3655  -34.3567  -40.7888 H         1 UNK         0.3472 
    113 H113       18.5263  -35.2340  -41.7499 H         1 UNK         0.3472 
    114 H114       21.8064  -34.1711  -42.7681 H         1 UNK         0.0970 
    115 H115       20.2315  -33.4689  -42.9077 H         1 UNK         0.0970 
    116 H116       19.6759  -31.2059  -41.4379 H         1 UNK         0.0612 
    117 H117       20.7742  -29.8620  -41.5112 H         1 UNK         0.0612 
@<TRIPOS>BOND
     1    1    2 1    
     2    1   62 1    
     3    1   63 1    
     4    1   64 1    
     5    2    3 2    
     6    2    4 am   BACKBONE|DICT|INTERRES
     7    4    5 1    
     8    4   65 1    
     9    5    6 1    
    10    5   25 1    
    11    5   66 1    
    12    6    7 1    
    13    6   67 1    
    14    6   68 1    
    15    7    8 1    
    16    8    9 1    
    17    8   69 1    
    18    8   70 1    
    19    9   10 ar   
    20    9   14 ar   
    21   10   11 ar   
    22   10   71 1    
    23   11   12 ar   
    24   11   61 1    
    25   12   13 ar   
    26   12   72 1    
    27   13   14 ar   
    28   13   15 1    
    29   14   73 1    
    30   15   16 1    
    31   15   74 1    
    32   15   75 1    
    33   16   17 1    
    34   17   18 1    
    35   17   76 1    
    36   17   77 1    
    37   18   19 1    
    38   18   27 1    
    39   18   78 1    
    40   19   20 am   BACKBONE|DICT|INTERRES
    41   19   79 1    
    42   20   21 2    
    43   20   22 1    
    44   22   23 1    
    45   22   24 1    
    46   22   80 1    
    47   23   81 1    
    48   23   82 1    
    49   23   83 1    
    50   24   25 am   BACKBONE|DICT|INTERRES
    51   24   84 1    
    52   25   26 2    
    53   27   28 2    
    54   27   29 am   BACKBONE|DICT|INTERRES
    55   29   30 1    
    56   29   85 1    
    57   30   31 1    
    58   30   32 1    
    59   30   86 1    
    60   31   87 1    
    61   31   88 1    
    62   31   89 1    
    63   32   33 2    
    64   32   34 am   BACKBONE|DICT|INTERRES
    65   34   35 1    
    66   34   90 1    
    67   35   36 1    
    68   35   37 1    
    69   35   91 1    
    70   36   92 1    
    71   36   93 1    
    72   36   94 1    
    73   37   38 2    
    74   37   39 am   BACKBONE|DICT|INTERRES
    75   39   40 1    
    76   39   95 1    
    77   40   41 1    
    78   40   42 1    
    79   40   96 1    
    80   41   97 1    
    81   41   98 1    
    82   41   99 1    
    83   42   43 2    
    84   42   44 am   BACKBONE|DICT|INTERRES
    85   44   45 1    
    86   44  100 1    
    87   45   46 1    
    88   45   47 1    
    89   45  101 1    
    90   46  102 1    
    91   46  103 1    
    92   46  104 1    
    93   47   48 2    
    94   47   49 am   BACKBONE|DICT|INTERRES
    95   49   50 1    
    96   49  105 1    
    97   50   51 1    
    98   50   52 1    
    99   50  106 1    
   100   51  107 1    
   101   51  108 1    
   102   51  109 1    
   103   52   53 2    
   104   52   54 am   BACKBONE|DICT|INTERRES
   105   54   55 1    
   106   54  110 1    
   107   55   56 1    
   108   55   59 1    
   109   55  111 1    
   110   56   57 am   BACKBONE|DICT|INTERRES
   111   56   58 2    
   112   57  112 1    
   113   57  113 1    
   114   59   60 1    
   115   59  114 1    
   116   59  115 1    
   117   60   61 1    
   118   61  116 1    
   119   61  117 1    
@<TRIPOS>SUBSTRUCTURE
     1 UNK         1 GROUP             0       ****    0 ROOT    
