@<TRIPOS>MOLECULE
3R8
117   119    1
SMALL
USER_CHARGES


@<TRIPOS>ATOM
      1 CA         13.2649  -24.5158  -41.1173 C.3       0 UNK        -0.2013 
      2 C          14.4135  -24.6768  -42.1021 C.2       0 UNK         0.4866 
      3 O          15.1853  -23.7380  -42.3021 O.2       0 UNK        -0.5176 
      4 N          14.5270  -25.8554  -42.7257 N.am      1 UNK        -0.4884 
      5 CA         15.6149  -26.2175  -43.6397 C.3       1 UNK         0.0853 
      6 C6         15.1832  -27.3585  -44.5966 C.3       10 UNK        -0.0849 
      7 S7         14.8033  -28.9428  -43.7612 S.3       10 UNK        -0.2776 
      8 C8         15.2323  -30.1652  -45.0416 C.3       10 UNK         0.0316 
      9 C9         16.7257  -30.2079  -45.3408 C.ar      10 UNK        -0.0863 
     10 C10        17.6009  -30.8887  -44.4876 C.ar      10 UNK        -0.1009 
     11 C11        18.9637  -30.9729  -44.7908 C.ar      10 UNK        -0.0712 
     12 C12        19.4516  -30.3533  -45.9471 C.ar      10 UNK        -0.0894 
     13 C13        18.5862  -29.6722  -46.8090 C.ar      10 UNK        -0.0745 
     14 C14        17.2252  -29.6069  -46.5005 C.ar      10 UNK        -0.0972 
     15 C15        19.0973  -29.0579  -48.1058 C.3       10 UNK         0.0209 
     16 S16        19.3724  -27.2627  -47.9676 S.3       10 UNK        -0.2568 
     17 C17        21.0696  -27.2044  -47.3032 C.3       10 UNK        -0.0983 
     18 CA         21.2762  -26.0310  -46.3015 C.3       3 UNK         0.0876 
     19 N          20.3669  -26.0840  -45.1493 N.am      3 UNK        -0.4424 
     20 C          20.3759  -27.0293  -44.1979 C.2       2 UNK         0.4918 
     21 O          21.1512  -27.9825  -44.1970 O.2       2 UNK        -0.4875 
     22 CA         19.3698  -26.8790  -43.0543 C.3       2 UNK         0.0481 
     23 CB         19.8915  -25.8646  -42.0169 C.3       2 UNK        -0.1831 
     24 N          18.0513  -26.5036  -43.5697 N.am      2 UNK        -0.4498 
     25 C          16.9121  -26.5528  -42.8673 C.2       1 UNK         0.5027 
     26 O          16.8534  -26.8667  -41.6750 O.2       1 UNK        -0.4969 
     27 C          22.7351  -25.8792  -45.8084 C.2       3 UNK         0.5005 
     28 O          23.0874  -24.8120  -45.3022 O.2       3 UNK        -0.5279 
     29 N          23.5399  -26.9452  -45.9253 N.am      4 UNK        -0.4463 
     30 CA         24.9051  -27.0337  -45.3996 C.3       4 UNK         0.0283 
     31 CB         25.6692  -28.1131  -46.1849 C.3       4 UNK        -0.1875 
     32 C          24.9673  -27.3345  -43.8885 C.2       4 UNK         0.4949 
     33 O          26.0475  -27.2173  -43.3082 O.2       4 UNK        -0.5039 
     34 N          23.8419  -27.7461  -43.2826 N.am      5 UNK        -0.4663 
     35 CA         23.6285  -28.1452  -41.8831 C.3       5 UNK         0.0242 
     36 CB         23.9705  -27.0057  -40.9031 C.3       5 UNK        -0.1982 
     37 C          24.3292  -29.4561  -41.4899 C.2       5 UNK         0.5017 
     38 O          23.6797  -30.3415  -40.9307 O.2       5 UNK        -0.5012 
     39 N          25.6382  -29.5503  -41.7664 N.am      6 UNK        -0.4439 
     40 CA         26.5240  -30.7178  -41.6246 C.3       6 UNK         0.0297 
     41 CB         26.1711  -31.7585  -42.7080 C.3       6 UNK        -0.2006 
     42 C          26.5691  -31.3577  -40.2180 C.2       6 UNK         0.4892 
     43 O          26.9765  -32.5139  -40.0961 O.2       6 UNK        -0.5089 
     44 N          26.1187  -30.6151  -39.1938 N.am      7 UNK        -0.4243 
     45 CA         25.8281  -31.0608  -37.8228 C.3       7 UNK         0.0196 
     46 CB         27.1226  -31.4676  -37.0866 C.3       7 UNK        -0.2007 
     47 C          24.7305  -32.1487  -37.7411 C.2       7 UNK         0.5020 
     48 O          24.6537  -32.8550  -36.7345 O.2       7 UNK        -0.5147 
     49 N          23.8998  -32.2635  -38.7867 N.am      8 UNK        -0.4734 
     50 CA         22.8319  -33.2572  -38.9211 C.3       8 UNK         0.0238 
     51 CB         23.0809  -34.0850  -40.1934 C.3       8 UNK        -0.1912 
     52 C          21.4466  -32.5988  -38.9835 C.2       8 UNK         0.5038 
     53 O          20.4929  -33.1591  -38.4416 O.2       8 UNK        -0.5046 
     54 N          21.3604  -31.4333  -39.6330 N.am      9 UNK        -0.4200 
     55 CA         20.1333  -30.6487  -39.8397 C.3       9 UNK         0.0839 
     56 C          20.3082  -29.1388  -39.5132 C.2       9 UNK         0.5513 
     57 N          21.4408  -28.7006  -38.9755 N.am      9 UNK        -0.7519 
     58 O          19.3852  -28.3544  -39.7047 O.2       9 UNK        -0.4960 
     59 C59        19.4953  -30.9145  -41.2344 C.3       10 UNK        -0.0876 
     60 S60        20.6806  -30.7640  -42.6156 S.3       10 UNK        -0.2414 
     61 C61        19.9046  -31.7806  -43.9067 C.3       10 UNK         0.0169 
     62 H62        13.6523  -24.2959  -40.1228 H         1 UNK         0.0903 
     63 H63        12.6210  -23.6915  -41.4226 H         1 UNK         0.0903 
     64 H64        12.6546  -25.4164  -41.0517 H         1 UNK         0.0903 
     65 H65        13.8950  -26.6093  -42.4946 H         1 UNK         0.3096 
     66 H66        15.8305  -25.3403  -44.2548 H         1 UNK         0.1121 
     67 H67        14.2980  -27.0524  -45.1564 H         1 UNK         0.0849 
     68 H68        15.9571  -27.5112  -45.3476 H         1 UNK         0.0849 
     69 H69        14.9049  -31.1510  -44.7076 H         1 UNK         0.0865 
     70 H70        14.6622  -29.9516  -45.9472 H         1 UNK         0.0865 
     71 H71        17.2173  -31.3694  -43.5980 H         1 UNK         0.1346 
     72 H72        20.5045  -30.4201  -46.1836 H         1 UNK         0.1412 
     73 H73        16.5520  -29.0952  -47.1752 H         1 UNK         0.1426 
     74 H74        18.3672  -29.2342  -48.8971 H         1 UNK         0.0716 
     75 H75        20.0145  -29.5500  -48.4333 H         1 UNK         0.0716 
     76 H76        21.7491  -27.1053  -48.1518 H         1 UNK         0.0695 
     77 H77        21.2959  -28.1633  -46.8361 H         1 UNK         0.0695 
     78 H78        21.0463  -25.1052  -46.8319 H         1 UNK         0.0983 
     79 H79        19.7616  -25.2841  -45.0398 H         1 UNK         0.3095 
     80 H80        19.2793  -27.8555  -42.5734 H         1 UNK         0.0454 
     81 H81        20.8951  -26.1326  -41.6844 H         1 UNK         0.0851 
     82 H82        19.2627  -25.8406  -41.1272 H         1 UNK         0.0851 
     83 H83        19.9379  -24.8538  -42.4228 H         1 UNK         0.0851 
     84 H84        18.0057  -26.3142  -44.5614 H         1 UNK         0.2976 
     85 H85        23.1546  -27.7904  -46.3218 H         1 UNK         0.3116 
     86 H86        25.4059  -26.0768  -45.5618 H         1 UNK         0.0646 
     87 H87        25.2239  -29.1003  -46.0545 H         1 UNK         0.0847 
     88 H88        25.6890  -27.8902  -47.2518 H         1 UNK         0.0847 
     89 H89        26.7060  -28.1787  -45.8518 H         1 UNK         0.0847 
     90 H90        23.0060  -27.8362  -43.8564 H         1 UNK         0.3040 
     91 H91        22.5572  -28.3366  -41.7966 H         1 UNK         0.1015 
     92 H92        23.7313  -27.2873  -39.8776 H         1 UNK         0.0786 
     93 H93        23.4013  -26.1051  -41.1324 H         1 UNK         0.0786 
     94 H94        25.0287  -26.7447  -40.9235 H         1 UNK         0.0786 
     95 H95        26.0491  -28.7351  -42.2188 H         1 UNK         0.3172 
     96 H96        27.5339  -30.3572  -41.8240 H         1 UNK         0.0595 
     97 H97        25.1875  -32.1978  -42.5367 H         1 UNK         0.0839 
     98 H98        26.8943  -32.5749  -42.7249 H         1 UNK         0.0839 
     99 H99        26.1697  -31.3119  -43.7023 H         1 UNK         0.0839 
    100 H100       25.8184  -29.6765  -39.4163 H         1 UNK         0.2998 
    101 H101       25.4187  -30.1913  -37.3066 H         1 UNK         0.0822 
    102 H102       26.9324  -31.6415  -36.0267 H         1 UNK         0.0787 
    103 H103       27.8797  -30.6864  -37.1535 H         1 UNK         0.0787 
    104 H104       27.5494  -32.3850  -37.4928 H         1 UNK         0.0787 
    105 H105       24.0191  -31.6233  -39.5674 H         1 UNK         0.3055 
    106 H106       22.8313  -33.9364  -38.0656 H         1 UNK         0.1106 
    107 H107       24.0396  -34.6018  -40.1462 H         1 UNK         0.0828 
    108 H108       22.3083  -34.8440  -40.3242 H         1 UNK         0.0828 
    109 H109       23.0822  -33.4608  -41.0884 H         1 UNK         0.0828 
    110 H110       22.1840  -31.0601  -40.0977 H         1 UNK         0.2931 
    111 H111       19.3999  -30.9731  -39.0995 H         1 UNK         0.0412 
    112 H112       22.1882  -29.3391  -38.7613 H         1 UNK         0.3472 
    113 H113       21.5218  -27.7250  -38.7390 H         1 UNK         0.3472 
    114 H114       18.6474  -30.2520  -41.4194 H         1 UNK         0.0970 
    115 H115       19.0856  -31.9251  -41.2402 H         1 UNK         0.0970 
    116 H116       20.6965  -32.2129  -44.5200 H         1 UNK         0.0612 
    117 H117       19.3802  -32.6262  -43.4600 H         1 UNK         0.0612 
@<TRIPOS>BOND
     1    1    2 1    
     2    1   62 1    
     3    1   63 1    
     4    1   64 1    
     5    2    3 2    
     6    2    4 am   BACKBONE|DICT|INTERRES
     7    4    5 1    
     8    4   65 1    
     9    5    6 1    
    10    5   25 1    
    11    5   66 1    
    12    6    7 1    
    13    6   67 1    
    14    6   68 1    
    15    7    8 1    
    16    8    9 1    
    17    8   69 1    
    18    8   70 1    
    19    9   10 ar   
    20    9   14 ar   
    21   10   11 ar   
    22   10   71 1    
    23   11   12 ar   
    24   11   61 1    
    25   12   13 ar   
    26   12   72 1    
    27   13   14 ar   
    28   13   15 1    
    29   14   73 1    
    30   15   16 1    
    31   15   74 1    
    32   15   75 1    
    33   16   17 1    
    34   17   18 1    
    35   17   76 1    
    36   17   77 1    
    37   18   19 1    
    38   18   27 1    
    39   18   78 1    
    40   19   20 am   BACKBONE|DICT|INTERRES
    41   19   79 1    
    42   20   21 2    
    43   20   22 1    
    44   22   23 1    
    45   22   24 1    
    46   22   80 1    
    47   23   81 1    
    48   23   82 1    
    49   23   83 1    
    50   24   25 am   BACKBONE|DICT|INTERRES
    51   24   84 1    
    52   25   26 2    
    53   27   28 2    
    54   27   29 am   BACKBONE|DICT|INTERRES
    55   29   30 1    
    56   29   85 1    
    57   30   31 1    
    58   30   32 1    
    59   30   86 1    
    60   31   87 1    
    61   31   88 1    
    62   31   89 1    
    63   32   33 2    
    64   32   34 am   BACKBONE|DICT|INTERRES
    65   34   35 1    
    66   34   90 1    
    67   35   36 1    
    68   35   37 1    
    69   35   91 1    
    70   36   92 1    
    71   36   93 1    
    72   36   94 1    
    73   37   38 2    
    74   37   39 am   BACKBONE|DICT|INTERRES
    75   39   40 1    
    76   39   95 1    
    77   40   41 1    
    78   40   42 1    
    79   40   96 1    
    80   41   97 1    
    81   41   98 1    
    82   41   99 1    
    83   42   43 2    
    84   42   44 am   BACKBONE|DICT|INTERRES
    85   44   45 1    
    86   44  100 1    
    87   45   46 1    
    88   45   47 1    
    89   45  101 1    
    90   46  102 1    
    91   46  103 1    
    92   46  104 1    
    93   47   48 2    
    94   47   49 am   BACKBONE|DICT|INTERRES
    95   49   50 1    
    96   49  105 1    
    97   50   51 1    
    98   50   52 1    
    99   50  106 1    
   100   51  107 1    
   101   51  108 1    
   102   51  109 1    
   103   52   53 2    
   104   52   54 am   BACKBONE|DICT|INTERRES
   105   54   55 1    
   106   54  110 1    
   107   55   56 1    
   108   55   59 1    
   109   55  111 1    
   110   56   57 am   BACKBONE|DICT|INTERRES
   111   56   58 2    
   112   57  112 1    
   113   57  113 1    
   114   59   60 1    
   115   59  114 1    
   116   59  115 1    
   117   60   61 1    
   118   61  116 1    
   119   61  117 1    
@<TRIPOS>SUBSTRUCTURE
     1 UNK         1 GROUP             0       ****    0 ROOT    
