@<TRIPOS>MOLECULE
3R8
117   119    1
SMALL
USER_CHARGES


@<TRIPOS>ATOM
      1 CA         18.1617  -25.5803  -40.5245 C.3       0 UNK        -0.2013 
      2 C          16.9444  -25.4026  -41.4306 C.2       0 UNK         0.4866 
      3 O          16.0663  -24.6122  -41.0909 O.2       0 UNK        -0.5176 
      4 N          16.8203  -26.0875  -42.5793 N.am      1 UNK        -0.4884 
      5 CA         17.7340  -27.0661  -43.1951 C.3       1 UNK         0.0853 
      6 C6         17.9774  -28.3438  -42.3444 C.3       10 UNK        -0.0849 
      7 S7         16.4509  -29.2294  -41.8541 S.3       10 UNK        -0.2776 
      8 C8         15.8833  -30.0507  -43.3885 C.3       10 UNK         0.0316 
      9 C9         17.0307  -30.6115  -44.2149 C.ar      10 UNK        -0.0863 
     10 C10        17.7634  -31.7076  -43.7567 C.ar      10 UNK        -0.1009 
     11 C11        18.8979  -32.1419  -44.4502 C.ar      10 UNK        -0.0712 
     12 C12        19.2675  -31.4900  -45.6323 C.ar      10 UNK        -0.0894 
     13 C13        18.5378  -30.3971  -46.1126 C.ar      10 UNK        -0.0745 
     14 C14        17.4016  -29.9843  -45.4057 C.ar      10 UNK        -0.0972 
     15 C15        19.0165  -29.6765  -47.3765 C.3       10 UNK         0.0209 
     16 S16        18.4950  -27.9273  -47.4744 S.3       10 UNK        -0.2568 
     17 C17        19.8165  -27.1513  -48.4716 C.3       10 UNK        -0.0983 
     18 CA         20.8858  -26.4013  -47.6277 C.3       3 UNK         0.0876 
     19 N          20.2767  -25.6419  -46.5314 N.am      3 UNK        -0.4424 
     20 C          20.8901  -24.7704  -45.7229 C.2       2 UNK         0.4918 
     21 O          22.0426  -24.3734  -45.8919 O.2       2 UNK        -0.4875 
     22 CA         20.0903  -24.2752  -44.5007 C.3       2 UNK         0.0481 
     23 CB         19.5669  -22.8517  -44.7480 C.3       2 UNK        -0.1831 
     24 N          18.9693  -25.1326  -44.0850 N.am      2 UNK        -0.4498 
     25 C          19.0418  -26.4228  -43.7165 C.2       1 UNK         0.5027 
     26 O          20.0781  -27.0863  -43.7817 O.2       1 UNK        -0.4969 
     27 C          22.0090  -27.3561  -47.1624 C.2       3 UNK         0.5005 
     28 O          22.9089  -27.6409  -47.9549 O.2       3 UNK        -0.5279 
     29 N          21.9480  -27.8247  -45.9082 N.am      4 UNK        -0.4463 
     30 CA         22.9753  -28.6458  -45.2723 C.3       4 UNK         0.0283 
     31 CB         22.3290  -29.8918  -44.6497 C.3       4 UNK        -0.1875 
     32 C          23.7180  -27.8161  -44.2206 C.2       4 UNK         0.4949 
     33 O          24.9171  -27.5860  -44.3765 O.2       4 UNK        -0.5039 
     34 N          22.9881  -27.3810  -43.1810 N.am      5 UNK        -0.4663 
     35 CA         23.4557  -26.5811  -42.0406 C.3       5 UNK         0.0242 
     36 CB         23.7898  -25.1447  -42.4972 C.3       5 UNK        -0.1982 
     37 C          24.6121  -27.2334  -41.2504 C.2       5 UNK         0.5017 
     38 O          25.4974  -26.5229  -40.7678 O.2       5 UNK        -0.5012 
     39 N          24.5960  -28.5675  -41.1322 N.am      6 UNK        -0.4439 
     40 CA         25.6235  -29.3613  -40.4622 C.3       6 UNK         0.0297 
     41 CB         26.7638  -29.6751  -41.4486 C.3       6 UNK        -0.2006 
     42 C          25.0036  -30.6518  -39.9177 C.2       6 UNK         0.4892 
     43 O          24.0739  -31.1845  -40.5297 O.2       6 UNK        -0.5089 
     44 N          25.5533  -31.1330  -38.7924 N.am      7 UNK        -0.4243 
     45 CA         25.1151  -32.3051  -38.0233 C.3       7 UNK         0.0196 
     46 CB         25.3624  -33.6064  -38.8233 C.3       7 UNK        -0.2007 
     47 C          23.6681  -32.1351  -37.5172 C.2       7 UNK         0.5020 
     48 O          23.3123  -31.0465  -37.0604 O.2       7 UNK        -0.5147 
     49 N          22.8467  -33.1890  -37.6207 N.am      8 UNK        -0.4734 
     50 CA         21.4135  -33.1646  -37.2978 C.3       8 UNK         0.0238 
     51 CB         20.8690  -34.6023  -37.3127 C.3       8 UNK        -0.1912 
     52 C          20.5865  -32.2658  -38.2388 C.2       8 UNK         0.5038 
     53 O          19.4955  -31.8393  -37.8596 O.2       8 UNK        -0.5046 
     54 N          21.1301  -31.9892  -39.4291 N.am      9 UNK        -0.4200 
     55 CA         20.5927  -31.0672  -40.4354 C.3       9 UNK         0.0839 
     56 C          21.1405  -29.6160  -40.2756 C.2       9 UNK         0.5513 
     57 N          21.7643  -29.2485  -39.1614 N.am      9 UNK        -0.7519 
     58 O          21.0098  -28.8006  -41.1822 O.2       9 UNK        -0.4960 
     59 C59        20.8082  -31.6248  -41.8673 C.3       10 UNK        -0.0876 
     60 S60        20.0235  -33.2572  -42.1151 S.3       10 UNK        -0.2414 
     61 C61        19.7517  -33.2930  -43.9227 C.3       10 UNK         0.0169 
     62 H62        17.9970  -26.4084  -39.8359 H         1 UNK         0.0903 
     63 H63        19.0841  -25.7611  -41.0713 H         1 UNK         0.0903 
     64 H64        18.3166  -24.6816  -39.9279 H         1 UNK         0.0903 
     65 H65        15.9755  -25.9287  -43.1114 H         1 UNK         0.3096 
     66 H66        17.2256  -27.3920  -44.1027 H         1 UNK         0.1121 
     67 H67        18.5126  -28.0963  -41.4299 H         1 UNK         0.0849 
     68 H68        18.6378  -29.0380  -42.8654 H         1 UNK         0.0849 
     69 H69        15.1956  -30.8562  -43.1273 H         1 UNK         0.0865 
     70 H70        15.3019  -29.3358  -43.9727 H         1 UNK         0.0865 
     71 H71        17.4768  -32.1882  -42.8314 H         1 UNK         0.1346 
     72 H72        20.1417  -31.8241  -46.1738 H         1 UNK         0.1412 
     73 H73        16.8169  -29.1472  -45.7578 H         1 UNK         0.1426 
     74 H74        18.6467  -30.2073  -48.2544 H         1 UNK         0.0716 
     75 H75        20.1057  -29.7196  -47.4200 H         1 UNK         0.0716 
     76 H76        19.3268  -26.4327  -49.1305 H         1 UNK         0.0695 
     77 H77        20.2666  -27.8890  -49.1394 H         1 UNK         0.0695 
     78 H78        21.3701  -25.6728  -48.2819 H         1 UNK         0.0983 
     79 H79        19.3248  -25.9003  -46.3161 H         1 UNK         0.3095 
     80 H80        20.7832  -24.2357  -43.6595 H         1 UNK         0.0454 
     81 H81        18.8342  -22.8256  -45.5556 H         1 UNK         0.0851 
     82 H82        20.3796  -22.1782  -45.0244 H         1 UNK         0.0851 
     83 H83        19.0991  -22.4381  -43.8545 H         1 UNK         0.0851 
     84 H84        18.0711  -24.6778  -43.9993 H         1 UNK         0.2976 
     85 H85        21.1928  -27.5093  -45.3046 H         1 UNK         0.3116 
     86 H86        23.7125  -28.9855  -46.0029 H         1 UNK         0.0646 
     87 H87        22.0063  -30.5859  -45.4236 H         1 UNK         0.0847 
     88 H88        21.4583  -29.6298  -44.0498 H         1 UNK         0.0847 
     89 H89        23.0311  -30.4272  -44.0090 H         1 UNK         0.0847 
     90 H90        22.0005  -27.6206  -43.1535 H         1 UNK         0.3040 
     91 H91        22.6139  -26.5205  -41.3491 H         1 UNK         0.1015 
     92 H92        24.6749  -25.1202  -43.1338 H         1 UNK         0.0786 
     93 H93        23.9846  -24.4958  -41.6425 H         1 UNK         0.0786 
     94 H94        22.9678  -24.7028  -43.0573 H         1 UNK         0.0786 
     95 H95        23.8097  -29.0944  -41.4922 H         1 UNK         0.3172 
     96 H96        26.0229  -28.7932  -39.6182 H         1 UNK         0.0595 
     97 H97        27.5413  -30.2744  -40.9730 H         1 UNK         0.0839 
     98 H98        27.2365  -28.7624  -41.8148 H         1 UNK         0.0839 
     99 H99        26.4015  -30.2333  -42.3143 H         1 UNK         0.0839 
    100 H100       26.2998  -30.5991  -38.3691 H         1 UNK         0.2998 
    101 H101       25.7429  -32.3400  -37.1313 H         1 UNK         0.0822 
    102 H102       26.3940  -33.6590  -39.1718 H         1 UNK         0.0787 
    103 H103       25.1946  -34.4911  -38.2074 H         1 UNK         0.0787 
    104 H104       24.7176  -33.6808  -39.7002 H         1 UNK         0.0787 
    105 H105       23.2140  -34.0487  -38.0037 H         1 UNK         0.3055 
    106 H106       21.3011  -32.7626  -36.2882 H         1 UNK         0.1106 
    107 H107       20.9624  -35.0596  -38.2986 H         1 UNK         0.0828 
    108 H108       19.8115  -34.6214  -37.0449 H         1 UNK         0.0828 
    109 H109       21.3934  -35.2345  -36.5959 H         1 UNK         0.0828 
    110 H110       22.0547  -32.3450  -39.6269 H         1 UNK         0.2931 
    111 H111       19.5144  -30.9813  -40.2885 H         1 UNK         0.0412 
    112 H112       22.0951  -28.3025  -39.0734 H         1 UNK         0.3472 
    113 H113       21.9494  -29.9163  -38.4255 H         1 UNK         0.3472 
    114 H114       21.8715  -31.7039  -42.0991 H         1 UNK         0.0970 
    115 H115       20.3816  -30.9300  -42.5889 H         1 UNK         0.0970 
    116 H116       20.7276  -33.2990  -44.4108 H         1 UNK         0.0612 
    117 H117       19.2675  -34.2344  -44.1846 H         1 UNK         0.0612 
@<TRIPOS>BOND
     1    1    2 1    
     2    1   62 1    
     3    1   63 1    
     4    1   64 1    
     5    2    3 2    
     6    2    4 am   BACKBONE|DICT|INTERRES
     7    4    5 1    
     8    4   65 1    
     9    5    6 1    
    10    5   25 1    
    11    5   66 1    
    12    6    7 1    
    13    6   67 1    
    14    6   68 1    
    15    7    8 1    
    16    8    9 1    
    17    8   69 1    
    18    8   70 1    
    19    9   10 ar   
    20    9   14 ar   
    21   10   11 ar   
    22   10   71 1    
    23   11   12 ar   
    24   11   61 1    
    25   12   13 ar   
    26   12   72 1    
    27   13   14 ar   
    28   13   15 1    
    29   14   73 1    
    30   15   16 1    
    31   15   74 1    
    32   15   75 1    
    33   16   17 1    
    34   17   18 1    
    35   17   76 1    
    36   17   77 1    
    37   18   19 1    
    38   18   27 1    
    39   18   78 1    
    40   19   20 am   BACKBONE|DICT|INTERRES
    41   19   79 1    
    42   20   21 2    
    43   20   22 1    
    44   22   23 1    
    45   22   24 1    
    46   22   80 1    
    47   23   81 1    
    48   23   82 1    
    49   23   83 1    
    50   24   25 am   BACKBONE|DICT|INTERRES
    51   24   84 1    
    52   25   26 2    
    53   27   28 2    
    54   27   29 am   BACKBONE|DICT|INTERRES
    55   29   30 1    
    56   29   85 1    
    57   30   31 1    
    58   30   32 1    
    59   30   86 1    
    60   31   87 1    
    61   31   88 1    
    62   31   89 1    
    63   32   33 2    
    64   32   34 am   BACKBONE|DICT|INTERRES
    65   34   35 1    
    66   34   90 1    
    67   35   36 1    
    68   35   37 1    
    69   35   91 1    
    70   36   92 1    
    71   36   93 1    
    72   36   94 1    
    73   37   38 2    
    74   37   39 am   BACKBONE|DICT|INTERRES
    75   39   40 1    
    76   39   95 1    
    77   40   41 1    
    78   40   42 1    
    79   40   96 1    
    80   41   97 1    
    81   41   98 1    
    82   41   99 1    
    83   42   43 2    
    84   42   44 am   BACKBONE|DICT|INTERRES
    85   44   45 1    
    86   44  100 1    
    87   45   46 1    
    88   45   47 1    
    89   45  101 1    
    90   46  102 1    
    91   46  103 1    
    92   46  104 1    
    93   47   48 2    
    94   47   49 am   BACKBONE|DICT|INTERRES
    95   49   50 1    
    96   49  105 1    
    97   50   51 1    
    98   50   52 1    
    99   50  106 1    
   100   51  107 1    
   101   51  108 1    
   102   51  109 1    
   103   52   53 2    
   104   52   54 am   BACKBONE|DICT|INTERRES
   105   54   55 1    
   106   54  110 1    
   107   55   56 1    
   108   55   59 1    
   109   55  111 1    
   110   56   57 am   BACKBONE|DICT|INTERRES
   111   56   58 2    
   112   57  112 1    
   113   57  113 1    
   114   59   60 1    
   115   59  114 1    
   116   59  115 1    
   117   60   61 1    
   118   61  116 1    
   119   61  117 1    
@<TRIPOS>SUBSTRUCTURE
     1 UNK         1 GROUP             0       ****    0 ROOT    
