@<TRIPOS>MOLECULE
3R8
117   119    1
SMALL
USER_CHARGES


@<TRIPOS>ATOM
      1 CA         15.6425  -24.2966  -41.7333 C.3       0 UNK        -0.2013 
      2 C          16.2783  -25.4295  -42.5244 C.2       0 UNK         0.4866 
      3 O          16.8287  -25.1929  -43.5995 O.2       0 UNK        -0.5176 
      4 N          16.2159  -26.6595  -41.9981 N.am      1 UNK        -0.4884 
      5 CA         16.7545  -27.8685  -42.6354 C.3       1 UNK         0.0853 
      6 C6         16.0430  -29.1521  -42.1409 C.3       10 UNK        -0.0849 
      7 S7         14.3318  -29.3364  -42.7466 S.3       10 UNK        -0.2776 
      8 C8         14.4964  -29.3816  -44.5722 C.3       10 UNK         0.0316 
      9 C9         15.7182  -30.1396  -45.0909 C.ar      10 UNK        -0.0863 
     10 C10        15.9432  -31.4744  -44.7321 C.ar      10 UNK        -0.1009 
     11 C11        17.0751  -32.1534  -45.1977 C.ar      10 UNK        -0.0712 
     12 C12        17.9584  -31.5040  -46.0613 C.ar      10 UNK        -0.0894 
     13 C13        17.7446  -30.1757  -46.4334 C.ar      10 UNK        -0.0745 
     14 C14        16.6237  -29.4978  -45.9456 C.ar      10 UNK        -0.0972 
     15 C15        18.7308  -29.4915  -47.3672 C.3       10 UNK         0.0209 
     16 S16        20.3473  -29.2559  -46.5623 S.3       10 UNK        -0.2568 
     17 C17        20.4570  -27.4370  -46.4441 C.3       10 UNK        -0.0983 
     18 CA         21.3884  -26.9294  -45.3142 C.3       3 UNK         0.0876 
     19 N          20.8596  -27.2564  -43.9895 N.am      3 UNK        -0.4424 
     20 C          21.2300  -26.6987  -42.8311 C.2       2 UNK         0.4918 
     21 O          22.1601  -25.8949  -42.7421 O.2       2 UNK        -0.4875 
     22 CA         20.4187  -27.0916  -41.5726 C.3       2 UNK         0.0481 
     23 CB         20.7367  -26.1914  -40.3651 C.3       2 UNK        -0.1831 
     24 N          18.9638  -27.1121  -41.7845 N.am      2 UNK        -0.4498 
     25 C          18.2833  -28.0201  -42.5000 C.2       1 UNK         0.5027 
     26 O          18.8304  -28.9673  -43.0646 O.2       1 UNK        -0.4969 
     27 C          22.8549  -27.3644  -45.5185 C.2       3 UNK         0.5005 
     28 O          23.5428  -26.7726  -46.3524 O.2       3 UNK        -0.5279 
     29 N          23.3218  -28.3600  -44.7483 N.am      4 UNK        -0.4463 
     30 CA         24.7100  -28.8286  -44.7617 C.3       4 UNK         0.0283 
     31 CB         24.7672  -30.2546  -44.1885 C.3       4 UNK        -0.1875 
     32 C          25.6667  -27.9087  -43.9815 C.2       4 UNK         0.4949 
     33 O          26.8690  -28.1745  -43.9798 O.2       4 UNK        -0.5039 
     34 N          25.1319  -26.8930  -43.2833 N.am      5 UNK        -0.4663 
     35 CA         25.7882  -25.9508  -42.3630 C.3       5 UNK         0.0242 
     36 CB         26.9146  -25.1552  -43.0504 C.3       5 UNK        -0.1982 
     37 C          26.2734  -26.6087  -41.0599 C.2       5 UNK         0.5017 
     38 O          26.0353  -26.0627  -39.9819 O.2       5 UNK        -0.5012 
     39 N          26.8836  -27.7952  -41.1652 N.am      6 UNK        -0.4439 
     40 CA         27.2609  -28.6883  -40.0693 C.3       6 UNK         0.0297 
     41 CB         28.3332  -29.6692  -40.5782 C.3       6 UNK        -0.2006 
     42 C          26.0311  -29.4088  -39.4783 C.2       6 UNK         0.4892 
     43 O          25.9586  -30.6387  -39.5077 O.2       6 UNK        -0.5089 
     44 N          25.0790  -28.6134  -38.9736 N.am      7 UNK        -0.4243 
     45 CA         23.8193  -28.9549  -38.3015 C.3       7 UNK         0.0196 
     46 CB         24.0818  -29.7257  -36.9931 C.3       7 UNK        -0.2007 
     47 C          22.7654  -29.6825  -39.1568 C.2       7 UNK         0.5020 
     48 O          21.5897  -29.3425  -39.0436 O.2       7 UNK        -0.5147 
     49 N          23.1737  -30.6813  -39.9490 N.am      8 UNK        -0.4734 
     50 CA         22.2904  -31.5881  -40.6907 C.3       8 UNK         0.0238 
     51 CB         23.1323  -32.7240  -41.2936 C.3       8 UNK        -0.1912 
     52 C          21.4714  -30.8846  -41.7969 C.2       8 UNK         0.5038 
     53 O          22.0174  -30.0037  -42.4642 O.2       8 UNK        -0.5046 
     54 N          20.2080  -31.2654  -42.0438 N.am      9 UNK        -0.4200 
     55 CA         19.3909  -32.2592  -41.3185 C.3       9 UNK         0.0839 
     56 C          18.7742  -31.7301  -39.9903 C.2       9 UNK         0.5513 
     57 N          18.8421  -30.4412  -39.6889 N.am      9 UNK        -0.7519 
     58 O          18.2298  -32.5116  -39.2156 O.2       9 UNK        -0.4960 
     59 C59        18.2633  -32.8531  -42.2030 C.3       10 UNK        -0.0876 
     60 S60        18.8592  -33.6781  -43.7138 S.3       10 UNK        -0.2414 
     61 C61        17.3682  -33.5821  -44.7616 C.3       10 UNK         0.0169 
     62 H62        15.2002  -24.6472  -40.8009 H         1 UNK         0.0903 
     63 H63        16.3899  -23.5414  -41.4915 H         1 UNK         0.0903 
     64 H64        14.8581  -23.8227  -42.3228 H         1 UNK         0.0903 
     65 H65        15.7443  -26.8015  -41.1154 H         1 UNK         0.3096 
     66 H66        16.5868  -27.7765  -43.7087 H         1 UNK         0.1121 
     67 H67        16.0314  -29.1839  -41.0500 H         1 UNK         0.0849 
     68 H68        16.5815  -30.0482  -42.4450 H         1 UNK         0.0849 
     69 H69        13.5985  -29.8384  -44.9904 H         1 UNK         0.0865 
     70 H70        14.5027  -28.3531  -44.9364 H         1 UNK         0.0865 
     71 H71        15.2502  -31.9724  -44.0677 H         1 UNK         0.1346 
     72 H72        18.8331  -32.0268  -46.4240 H         1 UNK         0.1412 
     73 H73        16.4582  -28.4685  -46.2336 H         1 UNK         0.1426 
     74 H74        18.3364  -28.5397  -47.7256 H         1 UNK         0.0716 
     75 H75        18.8699  -30.1125  -48.2533 H         1 UNK         0.0716 
     76 H76        19.4556  -27.0315  -46.2901 H         1 UNK         0.0695 
     77 H77        20.7892  -27.0514  -47.4097 H         1 UNK         0.0695 
     78 H78        21.3949  -25.8388  -45.3778 H         1 UNK         0.0983 
     79 H79        20.1325  -27.9666  -43.9550 H         1 UNK         0.3095 
     80 H80        20.7248  -28.1004  -41.3028 H         1 UNK         0.0454 
     81 H81        20.2061  -26.5239  -39.4728 H         1 UNK         0.0851 
     82 H82        20.4676  -25.1516  -40.5535 H         1 UNK         0.0851 
     83 H83        21.8012  -26.2178  -40.1278 H         1 UNK         0.0851 
     84 H84        18.4389  -26.3478  -41.3851 H         1 UNK         0.2976 
     85 H85        22.6970  -28.8028  -44.0801 H         1 UNK         0.3116 
     86 H86        25.0566  -28.8647  -45.7965 H         1 UNK         0.0646 
     87 H87        24.0516  -30.9146  -44.6792 H         1 UNK         0.0847 
     88 H88        24.5572  -30.2645  -43.1185 H         1 UNK         0.0847 
     89 H89        25.7575  -30.6906  -44.3255 H         1 UNK         0.0847 
     90 H90        24.1250  -26.7873  -43.3324 H         1 UNK         0.3040 
     91 H91        25.0125  -25.2372  -42.0781 H         1 UNK         0.1015 
     92 H92        27.3000  -24.3799  -42.3869 H         1 UNK         0.0786 
     93 H93        26.5554  -24.6602  -43.9527 H         1 UNK         0.0786 
     94 H94        27.7579  -25.7880  -43.3279 H         1 UNK         0.0786 
     95 H95        27.0208  -28.1456  -42.1105 H         1 UNK         0.3172 
     96 H96        27.7050  -28.0917  -39.2697 H         1 UNK         0.0595 
     97 H97        27.9575  -30.2918  -41.3914 H         1 UNK         0.0839 
     98 H98        28.6629  -30.3368  -39.7808 H         1 UNK         0.0839 
     99 H99        29.2148  -29.1406  -40.9410 H         1 UNK         0.0839 
    100 H100       25.2495  -27.6163  -39.0740 H         1 UNK         0.2998 
    101 H101       23.3755  -27.9962  -38.0273 H         1 UNK         0.0822 
    102 H102       24.7437  -29.1682  -36.3303 H         1 UNK         0.0787 
    103 H103       23.1514  -29.8993  -36.4505 H         1 UNK         0.0787 
    104 H104       24.5348  -30.7002  -37.1780 H         1 UNK         0.0787 
    105 H105       24.1718  -30.8760  -39.9686 H         1 UNK         0.3055 
    106 H106       21.6225  -32.0138  -39.9432 H         1 UNK         0.1106 
    107 H107       22.5028  -33.4377  -41.8270 H         1 UNK         0.0828 
    108 H108       23.6657  -33.2775  -40.5207 H         1 UNK         0.0828 
    109 H109       23.8687  -32.3465  -42.0034 H         1 UNK         0.0828 
    110 H110       19.6996  -30.7289  -42.7381 H         1 UNK         0.2931 
    111 H111       20.0363  -33.0960  -41.0493 H         1 UNK         0.0412 
    112 H112       19.3660  -29.8055  -40.2696 H         1 UNK         0.3472 
    113 H113       18.4583  -30.1212  -38.8143 H         1 UNK         0.3472 
    114 H114       17.5616  -32.0679  -42.4783 H         1 UNK         0.0970 
    115 H115       17.6834  -33.5911  -41.6449 H         1 UNK         0.0970 
    116 H116       17.5180  -34.2023  -45.6463 H         1 UNK         0.0612 
    117 H117       16.5204  -34.0098  -44.2241 H         1 UNK         0.0612 
@<TRIPOS>BOND
     1    1    2 1    
     2    1   62 1    
     3    1   63 1    
     4    1   64 1    
     5    2    3 2    
     6    2    4 am   BACKBONE|DICT|INTERRES
     7    4    5 1    
     8    4   65 1    
     9    5    6 1    
    10    5   25 1    
    11    5   66 1    
    12    6    7 1    
    13    6   67 1    
    14    6   68 1    
    15    7    8 1    
    16    8    9 1    
    17    8   69 1    
    18    8   70 1    
    19    9   10 ar   
    20    9   14 ar   
    21   10   11 ar   
    22   10   71 1    
    23   11   12 ar   
    24   11   61 1    
    25   12   13 ar   
    26   12   72 1    
    27   13   14 ar   
    28   13   15 1    
    29   14   73 1    
    30   15   16 1    
    31   15   74 1    
    32   15   75 1    
    33   16   17 1    
    34   17   18 1    
    35   17   76 1    
    36   17   77 1    
    37   18   19 1    
    38   18   27 1    
    39   18   78 1    
    40   19   20 am   BACKBONE|DICT|INTERRES
    41   19   79 1    
    42   20   21 2    
    43   20   22 1    
    44   22   23 1    
    45   22   24 1    
    46   22   80 1    
    47   23   81 1    
    48   23   82 1    
    49   23   83 1    
    50   24   25 am   BACKBONE|DICT|INTERRES
    51   24   84 1    
    52   25   26 2    
    53   27   28 2    
    54   27   29 am   BACKBONE|DICT|INTERRES
    55   29   30 1    
    56   29   85 1    
    57   30   31 1    
    58   30   32 1    
    59   30   86 1    
    60   31   87 1    
    61   31   88 1    
    62   31   89 1    
    63   32   33 2    
    64   32   34 am   BACKBONE|DICT|INTERRES
    65   34   35 1    
    66   34   90 1    
    67   35   36 1    
    68   35   37 1    
    69   35   91 1    
    70   36   92 1    
    71   36   93 1    
    72   36   94 1    
    73   37   38 2    
    74   37   39 am   BACKBONE|DICT|INTERRES
    75   39   40 1    
    76   39   95 1    
    77   40   41 1    
    78   40   42 1    
    79   40   96 1    
    80   41   97 1    
    81   41   98 1    
    82   41   99 1    
    83   42   43 2    
    84   42   44 am   BACKBONE|DICT|INTERRES
    85   44   45 1    
    86   44  100 1    
    87   45   46 1    
    88   45   47 1    
    89   45  101 1    
    90   46  102 1    
    91   46  103 1    
    92   46  104 1    
    93   47   48 2    
    94   47   49 am   BACKBONE|DICT|INTERRES
    95   49   50 1    
    96   49  105 1    
    97   50   51 1    
    98   50   52 1    
    99   50  106 1    
   100   51  107 1    
   101   51  108 1    
   102   51  109 1    
   103   52   53 2    
   104   52   54 am   BACKBONE|DICT|INTERRES
   105   54   55 1    
   106   54  110 1    
   107   55   56 1    
   108   55   59 1    
   109   55  111 1    
   110   56   57 am   BACKBONE|DICT|INTERRES
   111   56   58 2    
   112   57  112 1    
   113   57  113 1    
   114   59   60 1    
   115   59  114 1    
   116   59  115 1    
   117   60   61 1    
   118   61  116 1    
   119   61  117 1    
@<TRIPOS>SUBSTRUCTURE
     1 UNK         1 GROUP             0       ****    0 ROOT    
