@<TRIPOS>MOLECULE
3R8
117   119    1
SMALL
USER_CHARGES


@<TRIPOS>ATOM
      1 CA         17.9078  -21.9136  -41.2879 C.3       0 UNK        -0.2013 
      2 C          17.6084  -22.7273  -42.5381 C.2       0 UNK         0.4866 
      3 O          16.9766  -22.2175  -43.4644 O.2       0 UNK        -0.5176 
      4 N          18.0482  -23.9911  -42.5682 N.am      1 UNK        -0.4884 
      5 CA         17.8953  -24.9060  -43.7039 C.3       1 UNK         0.0853 
      6 C6         18.2486  -26.3642  -43.3165 C.3       10 UNK        -0.0849 
      7 S7         17.1817  -27.0306  -41.9943 S.3       10 UNK        -0.2776 
      8 C8         16.1748  -28.2617  -42.8868 C.3       10 UNK         0.0316 
      9 C9         16.9977  -29.4498  -43.3715 C.ar      10 UNK        -0.0863 
     10 C10        17.4914  -30.3864  -42.4572 C.ar      10 UNK        -0.1009 
     11 C11        18.2321  -31.4889  -42.8960 C.ar      10 UNK        -0.0712 
     12 C12        18.4810  -31.6454  -44.2630 C.ar      10 UNK        -0.0894 
     13 C13        18.0020  -30.7136  -45.1889 C.ar      10 UNK        -0.0745 
     14 C14        17.2471  -29.6258  -44.7365 C.ar      10 UNK        -0.0972 
     15 C15        18.2965  -30.9032  -46.6750 C.3       10 UNK         0.0209 
     16 S16        18.9566  -29.4103  -47.4934 S.3       10 UNK        -0.2568 
     17 C17        20.4029  -29.0151  -46.4503 C.3       10 UNK        -0.0983 
     18 CA         21.0677  -27.6548  -46.7980 C.3       3 UNK         0.0876 
     19 N          20.0698  -26.5854  -46.8864 N.am      3 UNK        -0.4424 
     20 C          20.2015  -25.4175  -47.5269 C.2       2 UNK         0.4918 
     21 O          21.1913  -25.1011  -48.1857 O.2       2 UNK        -0.4875 
     22 CA         19.0383  -24.4183  -47.3596 C.3       2 UNK         0.0481 
     23 CB         18.0844  -24.5027  -48.5614 C.3       2 UNK        -0.1831 
     24 N          18.2771  -24.6177  -46.1164 N.am      2 UNK        -0.4498 
     25 C          18.7848  -24.4670  -44.8834 C.2       1 UNK         0.5027 
     26 O          19.9398  -24.0917  -44.6661 O.2       1 UNK        -0.4969 
     27 C          22.1808  -27.3472  -45.7665 C.2       3 UNK         0.5005 
     28 O          23.0550  -28.1925  -45.5702 O.2       3 UNK        -0.5279 
     29 N          22.0961  -26.2056  -45.0608 N.am      4 UNK        -0.4463 
     30 CA         22.8899  -25.7656  -43.9018 C.3       4 UNK         0.0283 
     31 CB         24.4042  -25.7527  -44.1888 C.3       4 UNK        -0.1875 
     32 C          22.5630  -26.5385  -42.6112 C.2       4 UNK         0.4949 
     33 O          22.4498  -25.9154  -41.5560 O.2       4 UNK        -0.5039 
     34 N          22.3711  -27.8591  -42.7301 N.am      5 UNK        -0.4663 
     35 CA         21.9615  -28.8121  -41.6973 C.3       5 UNK         0.0242 
     36 CB         20.5089  -28.5456  -41.2456 C.3       5 UNK        -0.1982 
     37 C          22.9724  -28.8945  -40.5423 C.2       5 UNK         0.5017 
     38 O          23.9910  -29.5685  -40.6956 O.2       5 UNK        -0.5012 
     39 N          22.6646  -28.2423  -39.4099 N.am      6 UNK        -0.4439 
     40 CA         23.4590  -28.1832  -38.1732 C.3       6 UNK         0.0297 
     41 CB         24.7426  -27.3559  -38.3991 C.3       6 UNK        -0.2006 
     42 C          23.7457  -29.5731  -37.5664 C.2       6 UNK         0.4892 
     43 O          24.8392  -29.8065  -37.0505 O.2       6 UNK        -0.5089 
     44 N          22.7623  -30.4791  -37.6858 N.am      7 UNK        -0.4243 
     45 CA         22.7630  -31.8995  -37.3016 C.3       7 UNK         0.0196 
     46 CB         23.0357  -32.0778  -35.7940 C.3       7 UNK        -0.2007 
     47 C          23.6759  -32.8097  -38.1495 C.2       7 UNK         0.5020 
     48 O          23.5426  -34.0304  -38.0562 O.2       7 UNK        -0.5147 
     49 N          24.5470  -32.2390  -38.9946 N.am      8 UNK        -0.4734 
     50 CA         25.4420  -32.9713  -39.8994 C.3       8 UNK         0.0238 
     51 CB         26.5046  -32.0091  -40.4541 C.3       8 UNK        -0.1912 
     52 C          24.6991  -33.6821  -41.0447 C.2       8 UNK         0.5038 
     53 O          25.2381  -34.6304  -41.6166 O.2       8 UNK        -0.5046 
     54 N          23.4746  -33.2278  -41.3379 N.am      9 UNK        -0.4200 
     55 CA         22.5189  -33.8735  -42.2455 C.3       9 UNK         0.0839 
     56 C          21.9054  -35.2048  -41.7142 C.2       9 UNK         0.5513 
     57 N          22.0970  -35.5792  -40.4534 N.am      9 UNK        -0.7519 
     58 O          21.2494  -35.9173  -42.4695 O.2       9 UNK        -0.4960 
     59 C59        21.4319  -32.8723  -42.7156 C.3       10 UNK        -0.0876 
     60 S60        20.4373  -32.1737  -41.3465 S.3       10 UNK        -0.2414 
     61 C61        18.7363  -32.5216  -41.8951 C.3       10 UNK         0.0169 
     62 H62        18.4997  -21.0356  -41.5451 H         1 UNK         0.0903 
     63 H63        18.4620  -22.4912  -40.5483 H         1 UNK         0.0903 
     64 H64        16.9792  -21.5764  -40.8282 H         1 UNK         0.0903 
     65 H65        18.5650  -24.3586  -41.7822 H         1 UNK         0.3096 
     66 H66        16.8512  -24.8712  -44.0237 H         1 UNK         0.1121 
     67 H67        19.2836  -26.4250  -42.9740 H         1 UNK         0.0849 
     68 H68        18.1878  -27.0189  -44.1864 H         1 UNK         0.0849 
     69 H69        15.3902  -28.6222  -42.2199 H         1 UNK         0.0865 
     70 H70        15.6632  -27.7744  -43.7182 H         1 UNK         0.0865 
     71 H71        17.2970  -30.2553  -41.4013 H         1 UNK         0.1346 
     72 H72        19.0437  -32.4995  -44.6106 H         1 UNK         0.1412 
     73 H73        16.8618  -28.9120  -45.4516 H         1 UNK         0.1426 
     74 H74        19.0080  -31.7166  -46.8261 H         1 UNK         0.0716 
     75 H75        17.3767  -31.2018  -47.1793 H         1 UNK         0.0716 
     76 H76        21.1226  -29.8299  -46.5506 H         1 UNK         0.0695 
     77 H77        20.0848  -29.0164  -45.4058 H         1 UNK         0.0695 
     78 H78        21.5526  -27.7487  -47.7720 H         1 UNK         0.0983 
     79 H79        19.1953  -26.7707  -46.4207 H         1 UNK         0.3095 
     80 H80        19.4673  -23.4145  -47.3327 H         1 UNK         0.0454 
     81 H81        17.2974  -23.7511  -48.4985 H         1 UNK         0.0851 
     82 H82        17.6105  -25.4824  -48.6354 H         1 UNK         0.0851 
     83 H83        18.6195  -24.3295  -49.4963 H         1 UNK         0.0851 
     84 H84        17.3186  -24.9209  -46.2203 H         1 UNK         0.2976 
     85 H85        21.3208  -25.5877  -45.2733 H         1 UNK         0.3116 
     86 H86        22.5874  -24.7316  -43.7275 H         1 UNK         0.0646 
     87 H87        24.6325  -25.1878  -45.0924 H         1 UNK         0.0847 
     88 H88        24.9468  -25.2839  -43.3670 H         1 UNK         0.0847 
     89 H89        24.8112  -26.7570  -44.3072 H         1 UNK         0.0847 
     90 H90        22.5683  -28.2562  -43.6440 H         1 UNK         0.3040 
     91 H91        21.9767  -29.7919  -42.1746 H         1 UNK         0.1015 
     92 H92        19.8209  -28.6916  -42.0779 H         1 UNK         0.0786 
     93 H93        20.3602  -27.5332  -40.8700 H         1 UNK         0.0786 
     94 H94        20.2019  -29.2389  -40.4618 H         1 UNK         0.0786 
     95 H95        21.8129  -27.6976  -39.4120 H         1 UNK         0.3172 
     96 H96        22.8488  -27.6527  -37.4409 H         1 UNK         0.0595 
     97 H97        24.5137  -26.3756  -38.8172 H         1 UNK         0.0839 
     98 H98        25.4319  -27.8569  -39.0797 H         1 UNK         0.0839 
     99 H99        25.2740  -27.1914  -37.4609 H         1 UNK         0.0839 
    100 H100       21.9187  -30.1675  -38.1469 H         1 UNK         0.2998 
    101 H101       21.7465  -32.2492  -37.4898 H         1 UNK         0.0822 
    102 H102       22.3603  -31.4691  -35.1929 H         1 UNK         0.0787 
    103 H103       22.8894  -33.1160  -35.4929 H         1 UNK         0.0787 
    104 H104       24.0584  -31.8088  -35.5286 H         1 UNK         0.0787 
    105 H105       24.5913  -31.2284  -39.0323 H         1 UNK         0.3055 
    106 H106       25.9498  -33.7439  -39.3175 H         1 UNK         0.1106 
    107 H107       27.0670  -31.5317  -39.6516 H         1 UNK         0.0828 
    108 H108       27.2224  -32.5408  -41.0803 H         1 UNK         0.0828 
    109 H109       26.0598  -31.2238  -41.0661 H         1 UNK         0.0828 
    110 H110       23.1210  -32.4439  -40.8101 H         1 UNK         0.2931 
    111 H111       23.0836  -34.1560  -43.1362 H         1 UNK         0.0412 
    112 H112       22.6302  -35.0065  -39.8123 H         1 UNK         0.3472 
    113 H113       21.6948  -36.4459  -40.1330 H         1 UNK         0.3472 
    114 H114       21.9002  -32.0451  -43.2506 H         1 UNK         0.0970 
    115 H115       20.7830  -33.3562  -43.4456 H         1 UNK         0.0970 
    116 H116       18.0881  -32.5290  -41.0176 H         1 UNK         0.0612 
    117 H117       18.6784  -33.5258  -42.3180 H         1 UNK         0.0612 
@<TRIPOS>BOND
     1    1    2 1    
     2    1   62 1    
     3    1   63 1    
     4    1   64 1    
     5    2    3 2    
     6    2    4 am   BACKBONE|DICT|INTERRES
     7    4    5 1    
     8    4   65 1    
     9    5    6 1    
    10    5   25 1    
    11    5   66 1    
    12    6    7 1    
    13    6   67 1    
    14    6   68 1    
    15    7    8 1    
    16    8    9 1    
    17    8   69 1    
    18    8   70 1    
    19    9   10 ar   
    20    9   14 ar   
    21   10   11 ar   
    22   10   71 1    
    23   11   12 ar   
    24   11   61 1    
    25   12   13 ar   
    26   12   72 1    
    27   13   14 ar   
    28   13   15 1    
    29   14   73 1    
    30   15   16 1    
    31   15   74 1    
    32   15   75 1    
    33   16   17 1    
    34   17   18 1    
    35   17   76 1    
    36   17   77 1    
    37   18   19 1    
    38   18   27 1    
    39   18   78 1    
    40   19   20 am   BACKBONE|DICT|INTERRES
    41   19   79 1    
    42   20   21 2    
    43   20   22 1    
    44   22   23 1    
    45   22   24 1    
    46   22   80 1    
    47   23   81 1    
    48   23   82 1    
    49   23   83 1    
    50   24   25 am   BACKBONE|DICT|INTERRES
    51   24   84 1    
    52   25   26 2    
    53   27   28 2    
    54   27   29 am   BACKBONE|DICT|INTERRES
    55   29   30 1    
    56   29   85 1    
    57   30   31 1    
    58   30   32 1    
    59   30   86 1    
    60   31   87 1    
    61   31   88 1    
    62   31   89 1    
    63   32   33 2    
    64   32   34 am   BACKBONE|DICT|INTERRES
    65   34   35 1    
    66   34   90 1    
    67   35   36 1    
    68   35   37 1    
    69   35   91 1    
    70   36   92 1    
    71   36   93 1    
    72   36   94 1    
    73   37   38 2    
    74   37   39 am   BACKBONE|DICT|INTERRES
    75   39   40 1    
    76   39   95 1    
    77   40   41 1    
    78   40   42 1    
    79   40   96 1    
    80   41   97 1    
    81   41   98 1    
    82   41   99 1    
    83   42   43 2    
    84   42   44 am   BACKBONE|DICT|INTERRES
    85   44   45 1    
    86   44  100 1    
    87   45   46 1    
    88   45   47 1    
    89   45  101 1    
    90   46  102 1    
    91   46  103 1    
    92   46  104 1    
    93   47   48 2    
    94   47   49 am   BACKBONE|DICT|INTERRES
    95   49   50 1    
    96   49  105 1    
    97   50   51 1    
    98   50   52 1    
    99   50  106 1    
   100   51  107 1    
   101   51  108 1    
   102   51  109 1    
   103   52   53 2    
   104   52   54 am   BACKBONE|DICT|INTERRES
   105   54   55 1    
   106   54  110 1    
   107   55   56 1    
   108   55   59 1    
   109   55  111 1    
   110   56   57 am   BACKBONE|DICT|INTERRES
   111   56   58 2    
   112   57  112 1    
   113   57  113 1    
   114   59   60 1    
   115   59  114 1    
   116   59  115 1    
   117   60   61 1    
   118   61  116 1    
   119   61  117 1    
@<TRIPOS>SUBSTRUCTURE
     1 UNK         1 GROUP             0       ****    0 ROOT    
