@<TRIPOS>MOLECULE
3R8
117   119    1
SMALL
USER_CHARGES


@<TRIPOS>ATOM
      1 CA         11.7086  -26.7059  -44.3217 C.3       0 UNK        -0.2013 
      2 C          13.1398  -26.2651  -44.5902 C.2       0 UNK         0.4866 
      3 O          13.4773  -25.1036  -44.3576 O.2       0 UNK        -0.5176 
      4 N          13.9806  -27.1796  -45.0876 N.am      1 UNK        -0.4884 
      5 CA         15.4103  -26.9624  -45.3297 C.3       1 UNK         0.0853 
      6 C6         15.9854  -27.9925  -46.3384 C.3       10 UNK        -0.0849 
      7 S7         15.6704  -29.7380  -45.8936 S.3       10 UNK        -0.2776 
      8 C8         17.3035  -30.5040  -46.1710 C.3       10 UNK         0.0316 
      9 C9         18.3698  -30.0916  -45.1592 C.ar      10 UNK        -0.0863 
     10 C10        18.0981  -30.0821  -43.7870 C.ar      10 UNK        -0.1009 
     11 C11        19.0923  -29.7660  -42.8555 C.ar      10 UNK        -0.0712 
     12 C12        20.3862  -29.4858  -43.3145 C.ar      10 UNK        -0.0894 
     13 C13        20.6727  -29.4843  -44.6818 C.ar      10 UNK        -0.0745 
     14 C14        19.6598  -29.7805  -45.5985 C.ar      10 UNK        -0.0972 
     15 C15        22.0821  -29.1906  -45.1723 C.3       10 UNK         0.0209 
     16 S16        22.3549  -27.4082  -45.4228 S.3       10 UNK        -0.2568 
     17 C17        22.9168  -26.8783  -43.7711 C.3       10 UNK        -0.0983 
     18 CA         22.1183  -25.6791  -43.1937 C.3       3 UNK         0.0876 
     19 N          20.7439  -26.0392  -42.8538 N.am      3 UNK        -0.4424 
     20 C          19.6612  -25.7087  -43.5589 C.2       2 UNK         0.4918 
     21 O          19.6858  -25.0853  -44.6243 O.2       2 UNK        -0.4875 
     22 CA         18.3133  -26.1125  -42.9545 C.3       2 UNK         0.0481 
     23 CB         17.8373  -25.0801  -41.9164 C.3       2 UNK        -0.1831 
     24 N          17.3481  -26.2265  -44.0406 N.am      2 UNK        -0.4498 
     25 C          16.2111  -26.9273  -44.0099 C.2       1 UNK         0.5027 
     26 O          15.8019  -27.5320  -43.0141 O.2       1 UNK        -0.4969 
     27 C          22.7979  -25.1662  -41.9126 C.2       3 UNK         0.5005 
     28 O          22.3489  -25.4835  -40.8069 O.2       3 UNK        -0.5279 
     29 N          23.8972  -24.4172  -42.0840 N.am      4 UNK        -0.4463 
     30 CA         24.8432  -24.0973  -41.0073 C.3       4 UNK         0.0283 
     31 CB         25.7041  -22.8919  -41.4185 C.3       4 UNK        -0.1875 
     32 C          25.7342  -25.3057  -40.6563 C.2       4 UNK         0.4949 
     33 O          26.1560  -25.4408  -39.5075 O.2       4 UNK        -0.5039 
     34 N          25.9878  -26.1630  -41.6546 N.am      5 UNK        -0.4663 
     35 CA         26.6121  -27.4784  -41.5159 C.3       5 UNK         0.0242 
     36 CB         27.1882  -27.8824  -42.8860 C.3       5 UNK        -0.1982 
     37 C          25.5998  -28.5282  -41.0164 C.2       5 UNK         0.5017 
     38 O          24.4101  -28.2335  -40.8903 O.2       5 UNK        -0.5012 
     39 N          26.0973  -29.7427  -40.7538 N.am      6 UNK        -0.4439 
     40 CA         25.3005  -30.9072  -40.3686 C.3       6 UNK         0.0297 
     41 CB         26.1955  -31.8987  -39.5969 C.3       6 UNK        -0.2006 
     42 C          24.5973  -31.5257  -41.5943 C.2       6 UNK         0.4892 
     43 O          23.5744  -30.9996  -42.0359 O.2       6 UNK        -0.5089 
     44 N          25.1390  -32.6393  -42.1114 N.am      7 UNK        -0.4243 
     45 CA         24.5721  -33.4828  -43.1699 C.3       7 UNK         0.0196 
     46 CB         24.5374  -32.7411  -44.5269 C.3       7 UNK        -0.2007 
     47 C          23.2138  -34.0587  -42.7290 C.2       7 UNK         0.5020 
     48 O          23.1952  -35.0079  -41.9448 O.2       7 UNK        -0.5147 
     49 N          22.1121  -33.4732  -43.2141 N.am      8 UNK        -0.4734 
     50 CA         20.7503  -33.8061  -42.7917 C.3       8 UNK         0.0238 
     51 CB         19.7644  -33.3919  -43.8942 C.3       8 UNK        -0.1912 
     52 C          20.3650  -33.1769  -41.4387 C.2       8 UNK         0.5038 
     53 O          19.4863  -33.7188  -40.7664 O.2       8 UNK        -0.5046 
     54 N          21.0120  -32.0663  -41.0572 N.am      9 UNK        -0.4200 
     55 CA         20.8760  -31.4414  -39.7331 C.3       9 UNK         0.0839 
     56 C          21.7582  -32.1702  -38.6814 C.2       9 UNK         0.5513 
     57 N          21.3992  -32.0768  -37.4083 N.am      9 UNK        -0.7519 
     58 O          22.7739  -32.7874  -38.9930 O.2       9 UNK        -0.4960 
     59 C59        21.1883  -29.9165  -39.7735 C.3       10 UNK        -0.0876 
     60 S60        19.8307  -28.7925  -40.2826 S.3       10 UNK        -0.2414 
     61 C61        18.7116  -29.7445  -41.3744 C.3       10 UNK         0.0169 
     62 H62        11.5474  -27.7509  -44.5862 H         1 UNK         0.0903 
     63 H63        11.4707  -26.5832  -43.2654 H         1 UNK         0.0903 
     64 H64        11.0135  -26.0986  -44.9009 H         1 UNK         0.0903 
     65 H65        13.6677  -28.1308  -45.2248 H         1 UNK         0.3096 
     66 H66        15.5114  -25.9742  -45.7851 H         1 UNK         0.1121 
     67 H67        15.5389  -27.8209  -47.3190 H         1 UNK         0.0849 
     68 H68        17.0564  -27.8327  -46.4786 H         1 UNK         0.0849 
     69 H69        17.1893  -31.5876  -46.1205 H         1 UNK         0.0865 
     70 H70        17.6256  -30.2797  -47.1892 H         1 UNK         0.0865 
     71 H71        17.1020  -30.3213  -43.4401 H         1 UNK         0.1346 
     72 H72        21.1797  -29.2641  -42.6167 H         1 UNK         0.1412 
     73 H73        19.8863  -29.7918  -46.6560 H         1 UNK         0.1426 
     74 H74        22.8207  -29.5913  -44.4762 H         1 UNK         0.0716 
     75 H75        22.2565  -29.7038  -46.1192 H         1 UNK         0.0716 
     76 H76        22.8854  -27.7203  -43.0779 H         1 UNK         0.0695 
     77 H77        23.9723  -26.6247  -43.8782 H         1 UNK         0.0695 
     78 H78        22.1213  -24.8605  -43.9170 H         1 UNK         0.0983 
     79 H79        20.6422  -26.4811  -41.9489 H         1 UNK         0.3095 
     80 H80        18.4251  -27.0840  -42.4737 H         1 UNK         0.0454 
     81 H81        17.7037  -24.0939  -42.3624 H         1 UNK         0.0851 
     82 H82        16.8895  -25.3755  -41.4664 H         1 UNK         0.0851 
     83 H83        18.5599  -24.9786  -41.1057 H         1 UNK         0.0851 
     84 H84        17.6518  -25.7803  -44.8980 H         1 UNK         0.2976 
     85 H85        24.1718  -24.1555  -43.0208 H         1 UNK         0.3116 
     86 H86        24.2805  -23.8245  -40.1118 H         1 UNK         0.0646 
     87 H87        26.3988  -22.6216  -40.6219 H         1 UNK         0.0847 
     88 H88        25.0890  -22.0148  -41.6204 H         1 UNK         0.0847 
     89 H89        26.2974  -23.0999  -42.3097 H         1 UNK         0.0847 
     90 H90        25.5758  -25.9659  -42.5524 H         1 UNK         0.3040 
     91 H91        27.4249  -27.4111  -40.7891 H         1 UNK         0.1015 
     92 H92        27.8798  -27.1284  -43.2629 H         1 UNK         0.0786 
     93 H93        26.4019  -28.0174  -43.6304 H         1 UNK         0.0786 
     94 H94        27.7429  -28.8194  -42.8262 H         1 UNK         0.0786 
     95 H95        27.0832  -29.9021  -40.9034 H         1 UNK         0.3172 
     96 H96        24.5127  -30.5829  -39.6852 H         1 UNK         0.0595 
     97 H97        25.6383  -32.7953  -39.3197 H         1 UNK         0.0839 
     98 H98        26.5561  -31.4541  -38.6690 H         1 UNK         0.0839 
     99 H99        27.0686  -32.2100  -40.1714 H         1 UNK         0.0839 
    100 H100       25.9622  -33.0102  -41.6585 H         1 UNK         0.2998 
    101 H101       25.2439  -34.3354  -43.2825 H         1 UNK         0.0822 
    102 H102       25.5425  -32.4572  -44.8388 H         1 UNK         0.0787 
    103 H103       24.1283  -33.3803  -45.3105 H         1 UNK         0.0787 
    104 H104       23.9380  -31.8316  -44.4985 H         1 UNK         0.0787 
    105 H105       22.2233  -32.6775  -43.8261 H         1 UNK         0.3055 
    106 H106       20.6772  -34.8893  -42.6686 H         1 UNK         0.1106 
    107 H107       18.7320  -33.5697  -43.5897 H         1 UNK         0.0828 
    108 H108       19.8568  -32.3345  -44.1339 H         1 UNK         0.0828 
    109 H109       19.9343  -33.9571  -44.8105 H         1 UNK         0.0828 
    110 H110       21.7802  -31.7245  -41.6257 H         1 UNK         0.2931 
    111 H111       19.8474  -31.5646  -39.3907 H         1 UNK         0.0412 
    112 H112       21.9624  -32.5320  -36.7068 H         1 UNK         0.3472 
    113 H113       20.5719  -31.5694  -37.1340 H         1 UNK         0.3472 
    114 H114       21.4840  -29.5631  -38.7837 H         1 UNK         0.0970 
    115 H115       22.0555  -29.7163  -40.4031 H         1 UNK         0.0970 
    116 H116       18.5661  -30.7611  -41.0159 H         1 UNK         0.0612 
    117 H117       17.7329  -29.2691  -41.2903 H         1 UNK         0.0612 
@<TRIPOS>BOND
     1    1    2 1    
     2    1   62 1    
     3    1   63 1    
     4    1   64 1    
     5    2    3 2    
     6    2    4 am   BACKBONE|DICT|INTERRES
     7    4    5 1    
     8    4   65 1    
     9    5    6 1    
    10    5   25 1    
    11    5   66 1    
    12    6    7 1    
    13    6   67 1    
    14    6   68 1    
    15    7    8 1    
    16    8    9 1    
    17    8   69 1    
    18    8   70 1    
    19    9   10 ar   
    20    9   14 ar   
    21   10   11 ar   
    22   10   71 1    
    23   11   12 ar   
    24   11   61 1    
    25   12   13 ar   
    26   12   72 1    
    27   13   14 ar   
    28   13   15 1    
    29   14   73 1    
    30   15   16 1    
    31   15   74 1    
    32   15   75 1    
    33   16   17 1    
    34   17   18 1    
    35   17   76 1    
    36   17   77 1    
    37   18   19 1    
    38   18   27 1    
    39   18   78 1    
    40   19   20 am   BACKBONE|DICT|INTERRES
    41   19   79 1    
    42   20   21 2    
    43   20   22 1    
    44   22   23 1    
    45   22   24 1    
    46   22   80 1    
    47   23   81 1    
    48   23   82 1    
    49   23   83 1    
    50   24   25 am   BACKBONE|DICT|INTERRES
    51   24   84 1    
    52   25   26 2    
    53   27   28 2    
    54   27   29 am   BACKBONE|DICT|INTERRES
    55   29   30 1    
    56   29   85 1    
    57   30   31 1    
    58   30   32 1    
    59   30   86 1    
    60   31   87 1    
    61   31   88 1    
    62   31   89 1    
    63   32   33 2    
    64   32   34 am   BACKBONE|DICT|INTERRES
    65   34   35 1    
    66   34   90 1    
    67   35   36 1    
    68   35   37 1    
    69   35   91 1    
    70   36   92 1    
    71   36   93 1    
    72   36   94 1    
    73   37   38 2    
    74   37   39 am   BACKBONE|DICT|INTERRES
    75   39   40 1    
    76   39   95 1    
    77   40   41 1    
    78   40   42 1    
    79   40   96 1    
    80   41   97 1    
    81   41   98 1    
    82   41   99 1    
    83   42   43 2    
    84   42   44 am   BACKBONE|DICT|INTERRES
    85   44   45 1    
    86   44  100 1    
    87   45   46 1    
    88   45   47 1    
    89   45  101 1    
    90   46  102 1    
    91   46  103 1    
    92   46  104 1    
    93   47   48 2    
    94   47   49 am   BACKBONE|DICT|INTERRES
    95   49   50 1    
    96   49  105 1    
    97   50   51 1    
    98   50   52 1    
    99   50  106 1    
   100   51  107 1    
   101   51  108 1    
   102   51  109 1    
   103   52   53 2    
   104   52   54 am   BACKBONE|DICT|INTERRES
   105   54   55 1    
   106   54  110 1    
   107   55   56 1    
   108   55   59 1    
   109   55  111 1    
   110   56   57 am   BACKBONE|DICT|INTERRES
   111   56   58 2    
   112   57  112 1    
   113   57  113 1    
   114   59   60 1    
   115   59  114 1    
   116   59  115 1    
   117   60   61 1    
   118   61  116 1    
   119   61  117 1    
@<TRIPOS>SUBSTRUCTURE
     1 UNK         1 GROUP             0       ****    0 ROOT    
