@<TRIPOS>MOLECULE
3R8
117   119    1
SMALL
USER_CHARGES


@<TRIPOS>ATOM
      1 CA         18.0014  -23.3630  -45.3962 C.3       0 UNK        -0.2013 
      2 C          17.9608  -24.7029  -44.6779 C.2       0 UNK         0.4866 
      3 O          18.8450  -24.9917  -43.8709 O.2       0 UNK        -0.5176 
      4 N          16.9431  -25.5256  -44.9655 N.am      1 UNK        -0.4884 
      5 CA         16.7372  -26.8616  -44.3899 C.3       1 UNK         0.0853 
      6 C6         15.5019  -27.5714  -45.0015 C.3       10 UNK        -0.0849 
      7 S7         15.5536  -27.6476  -46.8252 S.3       10 UNK        -0.2776 
      8 C8         15.9884  -29.3930  -47.1285 C.3       10 UNK         0.0316 
      9 C9         17.3713  -29.7683  -46.6068 C.ar      10 UNK        -0.0863 
     10 C10        17.5341  -30.9076  -45.8118 C.ar      10 UNK        -0.1009 
     11 C11        18.7972  -31.2859  -45.3448 C.ar      10 UNK        -0.0712 
     12 C12        19.9048  -30.4922  -45.6778 C.ar      10 UNK        -0.0894 
     13 C13        19.7592  -29.3540  -46.4728 C.ar      10 UNK        -0.0745 
     14 C14        18.4922  -29.0026  -46.9430 C.ar      10 UNK        -0.0972 
     15 C15        20.9743  -28.5199  -46.8494 C.3       10 UNK         0.0209 
     16 S16        21.1423  -27.0407  -45.8038 S.3       10 UNK        -0.2568 
     17 C17        21.9262  -27.7046  -44.2942 C.3       10 UNK        -0.0983 
     18 CA         21.2761  -27.1239  -43.0090 C.3       3 UNK         0.0876 
     19 N          19.8722  -27.5184  -42.8414 N.am      3 UNK        -0.4424 
     20 C          19.4169  -28.7491  -42.5563 C.2       2 UNK         0.4918 
     21 O          20.1534  -29.7160  -42.3533 O.2       2 UNK        -0.4875 
     22 CA         17.8874  -28.9403  -42.4649 C.3       2 UNK         0.0481 
     23 CB         17.5203  -30.0489  -41.4651 C.3       2 UNK        -0.1831 
     24 N          17.1696  -27.7244  -42.0701 N.am      2 UNK        -0.4498 
     25 C          16.6002  -26.7926  -42.8476 C.2       1 UNK         0.5027 
     26 O          15.9502  -25.8702  -42.3530 O.2       1 UNK        -0.4969 
     27 C          22.0948  -27.3997  -41.7309 C.2       3 UNK         0.5005 
     28 O          23.1295  -28.0670  -41.7845 O.2       3 UNK        -0.5279 
     29 N          21.6016  -26.8862  -40.5927 N.am      4 UNK        -0.4463 
     30 CA         22.1596  -27.0707  -39.2450 C.3       4 UNK         0.0283 
     31 CB         21.2527  -26.3676  -38.2229 C.3       4 UNK        -0.1875 
     32 C          23.6184  -26.6087  -39.0731 C.2       4 UNK         0.4949 
     33 O          24.3221  -27.1381  -38.2137 O.2       4 UNK        -0.5039 
     34 N          24.0496  -25.6472  -39.8985 N.am      5 UNK        -0.4663 
     35 CA         25.4250  -25.1486  -39.9557 C.3       5 UNK         0.0242 
     36 CB         25.4085  -23.7411  -40.5767 C.3       5 UNK        -0.1982 
     37 C          26.3877  -26.0696  -40.7327 C.2       5 UNK         0.5017 
     38 O          27.5926  -25.8136  -40.7055 O.2       5 UNK        -0.5012 
     39 N          25.8636  -27.0896  -41.4267 N.am      6 UNK        -0.4439 
     40 CA         26.6201  -28.0015  -42.2786 C.3       6 UNK         0.0297 
     41 CB         26.4488  -27.5832  -43.7541 C.3       6 UNK        -0.2006 
     42 C          26.1960  -29.4472  -41.9819 C.2       6 UNK         0.4892 
     43 O          26.6953  -30.0288  -41.0180 O.2       6 UNK        -0.5089 
     44 N          25.3191  -30.0090  -42.8256 N.am      7 UNK        -0.4243 
     45 CA         24.8767  -31.4047  -42.7886 C.3       7 UNK         0.0196 
     46 CB         24.0494  -31.7030  -44.0494 C.3       7 UNK        -0.2007 
     47 C          24.0848  -31.7843  -41.5263 C.2       7 UNK         0.5020 
     48 O          24.2797  -32.8854  -41.0107 O.2       7 UNK        -0.5147 
     49 N          23.2107  -30.8766  -41.0651 N.am      8 UNK        -0.4734 
     50 CA         22.3408  -30.9960  -39.8852 C.3       8 UNK         0.0238 
     51 CB         23.1787  -30.8607  -38.5968 C.3       8 UNK        -0.1912 
     52 C          21.4366  -32.2474  -39.8769 C.2       8 UNK         0.5038 
     53 O          21.1613  -32.8029  -38.8117 O.2       8 UNK        -0.5046 
     54 N          20.9804  -32.6599  -41.0635 N.am      9 UNK        -0.4200 
     55 CA         20.1328  -33.8331  -41.3399 C.3       9 UNK         0.0839 
     56 C          18.6438  -33.6933  -40.8936 C.2       9 UNK         0.5513 
     57 N          18.3499  -32.9830  -39.8132 N.am      9 UNK        -0.7519 
     58 O          17.7395  -34.2425  -41.5174 O.2       9 UNK        -0.4960 
     59 C59        20.3255  -34.3523  -42.8002 C.3       10 UNK        -0.0876 
     60 S60        20.6016  -33.0604  -44.0611 S.3       10 UNK        -0.2414 
     61 C61        18.9028  -32.5446  -44.4780 C.3       10 UNK         0.0169 
     62 H62        17.9670  -22.5491  -44.6727 H         1 UNK         0.0903 
     63 H63        18.9254  -23.2736  -45.9670 H         1 UNK         0.0903 
     64 H64        17.1645  -23.2428  -46.0838 H         1 UNK         0.0903 
     65 H65        16.2434  -25.2361  -45.6340 H         1 UNK         0.3096 
     66 H66        17.6290  -27.4290  -44.6557 H         1 UNK         0.1121 
     67 H67        14.5850  -27.0495  -44.7197 H         1 UNK         0.0849 
     68 H68        15.4045  -28.5832  -44.6030 H         1 UNK         0.0849 
     69 H69        15.2179  -30.0293  -46.6901 H         1 UNK         0.0865 
     70 H70        15.9613  -29.5782  -48.2031 H         1 UNK         0.0865 
     71 H71        16.6728  -31.5106  -45.5569 H         1 UNK         0.1346 
     72 H72        20.8921  -30.7458  -45.3232 H         1 UNK         0.1412 
     73 H73        18.3777  -28.1256  -47.5658 H         1 UNK         0.1426 
     74 H74        21.8881  -29.1139  -46.7959 H         1 UNK         0.0716 
     75 H75        20.8829  -28.2014  -47.8889 H         1 UNK         0.0716 
     76 H76        21.8862  -28.7942  -44.2892 H         1 UNK         0.0695 
     77 H77        22.9827  -27.4382  -44.3455 H         1 UNK         0.0695 
     78 H78        21.2740  -26.0377  -43.1150 H         1 UNK         0.0983 
     79 H79        19.2145  -26.7643  -43.0097 H         1 UNK         0.3095 
     80 H80        17.5447  -29.2758  -43.4430 H         1 UNK         0.0454 
     81 H81        17.8795  -29.8259  -40.4598 H         1 UNK         0.0851 
     82 H82        16.4424  -30.2020  -41.4135 H         1 UNK         0.0851 
     83 H83        17.9611  -30.9983  -41.7616 H         1 UNK         0.0851 
     84 H84        17.0735  -27.6006  -41.0725 H         1 UNK         0.2976 
     85 H85        20.7423  -26.3581  -40.6497 H         1 UNK         0.3116 
     86 H86        22.1399  -28.1372  -39.0263 H         1 UNK         0.0646 
     87 H87        21.1981  -25.2932  -38.4024 H         1 UNK         0.0847 
     88 H88        20.2384  -26.7664  -38.2487 H         1 UNK         0.0847 
     89 H89        21.6260  -26.5085  -37.2074 H         1 UNK         0.0847 
     90 H90        23.3976  -25.2645  -40.5675 H         1 UNK         0.3040 
     91 H91        25.8114  -25.0680  -38.9369 H         1 UNK         0.1015 
     92 H92        25.0410  -23.7569  -41.6036 H         1 UNK         0.0786 
     93 H93        26.4103  -23.3095  -40.5964 H         1 UNK         0.0786 
     94 H94        24.7781  -23.0610  -40.0033 H         1 UNK         0.0786 
     95 H95        24.8665  -27.2797  -41.3608 H         1 UNK         0.3172 
     96 H96        27.6845  -27.9474  -42.0408 H         1 UNK         0.0595 
     97 H97        26.9402  -28.2889  -44.4254 H         1 UNK         0.0839 
     98 H98        26.8997  -26.6071  -43.9339 H         1 UNK         0.0839 
     99 H99        25.4007  -27.5151  -44.0457 H         1 UNK         0.0839 
    100 H100       24.9395  -29.4349  -43.5632 H         1 UNK         0.2998 
    101 H101       25.7710  -32.0312  -42.8128 H         1 UNK         0.0822 
    102 H102       23.7304  -32.7461  -44.0674 H         1 UNK         0.0787 
    103 H103       23.1506  -31.0868  -44.0970 H         1 UNK         0.0787 
    104 H104       24.6271  -31.5274  -44.9570 H         1 UNK         0.0787 
    105 H105       23.1578  -29.9827  -41.5489 H         1 UNK         0.3055 
    106 H106       21.6531  -30.1518  -39.9358 H         1 UNK         0.1106 
    107 H107       23.8337  -31.7206  -38.4533 H         1 UNK         0.0828 
    108 H108       23.8035  -29.9677  -38.6203 H         1 UNK         0.0828 
    109 H109       22.5392  -30.7856  -37.7166 H         1 UNK         0.0828 
    110 H110       21.2058  -32.0987  -41.8740 H         1 UNK         0.2931 
    111 H111       20.5068  -34.6331  -40.6983 H         1 UNK         0.0412 
    112 H112       17.3914  -32.8999  -39.5143 H         1 UNK         0.3472 
    113 H113       19.1004  -32.6102  -39.2475 H         1 UNK         0.3472 
    114 H114       21.2173  -34.9805  -42.8204 H         1 UNK         0.0970 
    115 H115       19.5191  -35.0133  -43.1219 H         1 UNK         0.0970 
    116 H116       18.4080  -33.3737  -44.9856 H         1 UNK         0.0612 
    117 H117       18.3519  -32.3701  -43.5555 H         1 UNK         0.0612 
@<TRIPOS>BOND
     1    1    2 1    
     2    1   62 1    
     3    1   63 1    
     4    1   64 1    
     5    2    3 2    
     6    2    4 am   BACKBONE|DICT|INTERRES
     7    4    5 1    
     8    4   65 1    
     9    5    6 1    
    10    5   25 1    
    11    5   66 1    
    12    6    7 1    
    13    6   67 1    
    14    6   68 1    
    15    7    8 1    
    16    8    9 1    
    17    8   69 1    
    18    8   70 1    
    19    9   10 ar   
    20    9   14 ar   
    21   10   11 ar   
    22   10   71 1    
    23   11   12 ar   
    24   11   61 1    
    25   12   13 ar   
    26   12   72 1    
    27   13   14 ar   
    28   13   15 1    
    29   14   73 1    
    30   15   16 1    
    31   15   74 1    
    32   15   75 1    
    33   16   17 1    
    34   17   18 1    
    35   17   76 1    
    36   17   77 1    
    37   18   19 1    
    38   18   27 1    
    39   18   78 1    
    40   19   20 am   BACKBONE|DICT|INTERRES
    41   19   79 1    
    42   20   21 2    
    43   20   22 1    
    44   22   23 1    
    45   22   24 1    
    46   22   80 1    
    47   23   81 1    
    48   23   82 1    
    49   23   83 1    
    50   24   25 am   BACKBONE|DICT|INTERRES
    51   24   84 1    
    52   25   26 2    
    53   27   28 2    
    54   27   29 am   BACKBONE|DICT|INTERRES
    55   29   30 1    
    56   29   85 1    
    57   30   31 1    
    58   30   32 1    
    59   30   86 1    
    60   31   87 1    
    61   31   88 1    
    62   31   89 1    
    63   32   33 2    
    64   32   34 am   BACKBONE|DICT|INTERRES
    65   34   35 1    
    66   34   90 1    
    67   35   36 1    
    68   35   37 1    
    69   35   91 1    
    70   36   92 1    
    71   36   93 1    
    72   36   94 1    
    73   37   38 2    
    74   37   39 am   BACKBONE|DICT|INTERRES
    75   39   40 1    
    76   39   95 1    
    77   40   41 1    
    78   40   42 1    
    79   40   96 1    
    80   41   97 1    
    81   41   98 1    
    82   41   99 1    
    83   42   43 2    
    84   42   44 am   BACKBONE|DICT|INTERRES
    85   44   45 1    
    86   44  100 1    
    87   45   46 1    
    88   45   47 1    
    89   45  101 1    
    90   46  102 1    
    91   46  103 1    
    92   46  104 1    
    93   47   48 2    
    94   47   49 am   BACKBONE|DICT|INTERRES
    95   49   50 1    
    96   49  105 1    
    97   50   51 1    
    98   50   52 1    
    99   50  106 1    
   100   51  107 1    
   101   51  108 1    
   102   51  109 1    
   103   52   53 2    
   104   52   54 am   BACKBONE|DICT|INTERRES
   105   54   55 1    
   106   54  110 1    
   107   55   56 1    
   108   55   59 1    
   109   55  111 1    
   110   56   57 am   BACKBONE|DICT|INTERRES
   111   56   58 2    
   112   57  112 1    
   113   57  113 1    
   114   59   60 1    
   115   59  114 1    
   116   59  115 1    
   117   60   61 1    
   118   61  116 1    
   119   61  117 1    
@<TRIPOS>SUBSTRUCTURE
     1 UNK         1 GROUP             0       ****    0 ROOT    
