@<TRIPOS>MOLECULE
3R8
117   119    1
SMALL
USER_CHARGES


@<TRIPOS>ATOM
      1 CA         17.9630  -23.1189  -47.1354 C.3       0 UNK        -0.2013 
      2 C          19.0523  -24.1752  -47.2458 C.2       0 UNK         0.4866 
      3 O          20.0533  -23.9494  -47.9254 O.2       0 UNK        -0.5176 
      4 N          18.8558  -25.3265  -46.5893 N.am      1 UNK        -0.4884 
      5 CA         19.8071  -26.4426  -46.5179 C.3       1 UNK         0.0853 
      6 C6         19.1663  -27.7182  -45.9125 C.3       10 UNK        -0.0849 
      7 S7         20.0970  -29.2442  -46.2841 S.3       10 UNK        -0.2776 
      8 C8         18.7759  -30.4984  -46.2293 C.3       10 UNK         0.0316 
      9 C9         18.2860  -30.7368  -44.8081 C.ar      10 UNK        -0.0863 
     10 C10        18.9175  -31.6804  -43.9930 C.ar      10 UNK        -0.1009 
     11 C11        18.4780  -31.8946  -42.6827 C.ar      10 UNK        -0.0712 
     12 C12        17.4026  -31.1543  -42.1842 C.ar      10 UNK        -0.0894 
     13 C13        16.7611  -30.2118  -42.9927 C.ar      10 UNK        -0.0745 
     14 C14        17.1994  -30.0157  -44.3056 C.ar      10 UNK        -0.0972 
     15 C15        15.5926  -29.4016  -42.4559 C.3       10 UNK         0.0209 
     16 S16        16.0425  -27.6535  -42.2320 S.3       10 UNK        -0.2568 
     17 C17        17.1163  -27.7142  -40.7558 C.3       10 UNK        -0.0983 
     18 CA         18.6373  -27.6369  -41.0647 C.3       3 UNK         0.0876 
     19 N          18.9581  -26.6059  -42.0567 N.am      3 UNK        -0.4424 
     20 C          20.1581  -26.3929  -42.6113 C.2       2 UNK         0.4918 
     21 O          21.1867  -27.0062  -42.3137 O.2       2 UNK        -0.4875 
     22 CA         20.2001  -25.2691  -43.6559 C.3       2 UNK         0.0481 
     23 CB         20.4847  -23.9263  -42.9643 C.3       2 UNK        -0.1831 
     24 N          21.2476  -25.5118  -44.6492 N.am      2 UNK        -0.4498 
     25 C          21.1677  -26.0620  -45.8739 C.2       1 UNK         0.5027 
     26 O          22.1870  -26.2413  -46.5390 O.2       1 UNK        -0.4969 
     27 C          19.4275  -27.4270  -39.7583 C.2       3 UNK         0.5005 
     28 O          20.0512  -28.3614  -39.2562 O.2       3 UNK        -0.5279 
     29 N          19.4158  -26.1812  -39.2575 N.am      4 UNK        -0.4463 
     30 CA         20.0890  -25.7554  -38.0251 C.3       4 UNK         0.0283 
     31 CB         19.6221  -24.3378  -37.6572 C.3       4 UNK        -0.1875 
     32 C          21.6246  -25.8087  -38.1047 C.2       4 UNK         0.4949 
     33 O          22.2774  -25.9502  -37.0711 O.2       4 UNK        -0.5039 
     34 N          22.1714  -25.7138  -39.3241 N.am      5 UNK        -0.4663 
     35 CA         23.5992  -25.8722  -39.6082 C.3       5 UNK         0.0242 
     36 CB         23.9276  -25.1454  -40.9239 C.3       5 UNK        -0.1982 
     37 C          24.0335  -27.3482  -39.6846 C.2       5 UNK         0.5017 
     38 O          25.2365  -27.6077  -39.7248 O.2       5 UNK        -0.5012 
     39 N          23.0622  -28.2762  -39.7293 N.am      6 UNK        -0.4439 
     40 CA         23.2138  -29.7236  -39.9152 C.3       6 UNK         0.0297 
     41 CB         23.8889  -30.3707  -38.6881 C.3       6 UNK        -0.2006 
     42 C          23.9055  -30.0835  -41.2461 C.2       6 UNK         0.4892 
     43 O          24.6965  -31.0271  -41.2937 O.2       6 UNK        -0.5089 
     44 N          23.6149  -29.2968  -42.2934 N.am      7 UNK        -0.4243 
     45 CA         24.3607  -29.2472  -43.5545 C.3       7 UNK         0.0196 
     46 CB         23.7905  -28.1128  -44.4140 C.3       7 UNK        -0.2007 
     47 C          24.4026  -30.5548  -44.3628 C.2       7 UNK         0.5020 
     48 O          25.3803  -30.7831  -45.0773 O.2       7 UNK        -0.5147 
     49 N          23.3594  -31.3826  -44.2455 N.am      8 UNK        -0.4734 
     50 CA         23.2474  -32.6745  -44.9271 C.3       8 UNK         0.0238 
     51 CB         22.5050  -32.4872  -46.2655 C.3       8 UNK        -0.1912 
     52 C          22.5915  -33.7259  -44.0173 C.2       8 UNK         0.5038 
     53 O          21.9143  -34.6316  -44.5209 O.2       8 UNK        -0.5046 
     54 N          22.7783  -33.5749  -42.6973 N.am      9 UNK        -0.4200 
     55 CA         22.1759  -34.4324  -41.6668 C.3       9 UNK         0.0839 
     56 C          23.1647  -35.5195  -41.1716 C.2       9 UNK         0.5513 
     57 N          22.6576  -36.5803  -40.5589 N.am      9 UNK        -0.7519 
     58 O          24.3811  -35.4063  -41.3120 O.2       9 UNK        -0.4960 
     59 C59        21.6051  -33.6023  -40.4828 C.3       10 UNK        -0.0876 
     60 S60        20.6131  -32.1557  -40.9944 S.3       10 UNK        -0.2414 
     61 C61        19.1802  -32.9168  -41.8069 C.3       10 UNK         0.0169 
     62 H62        17.5732  -22.8769  -48.1238 H         1 UNK         0.0903 
     63 H63        17.1308  -23.4517  -46.5154 H         1 UNK         0.0903 
     64 H64        18.3684  -22.2075  -46.6966 H         1 UNK         0.0903 
     65 H65        17.9991  -25.4471  -46.0685 H         1 UNK         0.3096 
     66 H66        20.0343  -26.6811  -47.5600 H         1 UNK         0.1121 
     67 H67        19.0322  -27.6404  -44.8354 H         1 UNK         0.0849 
     68 H68        18.1636  -27.8372  -46.3255 H         1 UNK         0.0849 
     69 H69        19.1563  -31.4309  -46.6485 H         1 UNK         0.0865 
     70 H70        17.9499  -30.1967  -46.8753 H         1 UNK         0.0865 
     71 H71        19.7580  -32.2444  -44.3734 H         1 UNK         0.1346 
     72 H72        17.0704  -31.3099  -41.1669 H         1 UNK         0.1412 
     73 H73        16.7011  -29.2859  -44.9289 H         1 UNK         0.1426 
     74 H74        15.2238  -29.8116  -41.5143 H         1 UNK         0.0716 
     75 H75        14.7626  -29.4634  -43.1611 H         1 UNK         0.0716 
     76 H76        16.8075  -26.8808  -40.1217 H         1 UNK         0.0695 
     77 H77        16.8956  -28.6175  -40.1841 H         1 UNK         0.0695 
     78 H78        18.9489  -28.5954  -41.4873 H         1 UNK         0.0983 
     79 H79        18.1690  -26.0603  -42.3724 H         1 UNK         0.3095 
     80 H80        19.2201  -25.2003  -44.1214 H         1 UNK         0.0454 
     81 H81        21.4467  -23.9278  -42.4504 H         1 UNK         0.0851 
     82 H82        20.4937  -23.1073  -43.6838 H         1 UNK         0.0851 
     83 H83        19.7196  -23.6922  -42.2228 H         1 UNK         0.0851 
     84 H84        22.1786  -25.3229  -44.3104 H         1 UNK         0.2976 
     85 H85        18.8828  -25.4767  -39.7472 H         1 UNK         0.3116 
     86 H86        19.7815  -26.4345  -37.2269 H         1 UNK         0.0646 
     87 H87        20.0847  -24.0040  -36.7272 H         1 UNK         0.0847 
     88 H88        18.5426  -24.2994  -37.5096 H         1 UNK         0.0847 
     89 H89        19.8835  -23.6120  -38.4282 H         1 UNK         0.0847 
     90 H90        21.5583  -25.6180  -40.1204 H         1 UNK         0.3040 
     91 H91        24.1755  -25.4051  -38.8060 H         1 UNK         0.1015 
     92 H92        23.6561  -24.0909  -40.8745 H         1 UNK         0.0786 
     93 H93        23.4079  -25.5890  -41.7733 H         1 UNK         0.0786 
     94 H94        24.9961  -25.1927  -41.1390 H         1 UNK         0.0786 
     95 H95        22.1009  -27.9584  -39.6688 H         1 UNK         0.3172 
     96 H96        22.1997  -30.1120  -39.9739 H         1 UNK         0.0595 
     97 H97        23.3667  -30.1125  -37.7670 H         1 UNK         0.0839 
     98 H98        24.9283  -30.0575  -38.5852 H         1 UNK         0.0839 
     99 H99        23.8849  -31.4582  -38.7678 H         1 UNK         0.0839 
    100 H100       22.9189  -28.5725  -42.1607 H         1 UNK         0.2998 
    101 H101       25.3933  -28.9964  -43.3028 H         1 UNK         0.0822 
    102 H102       23.8606  -27.1515  -43.9050 H         1 UNK         0.0787 
    103 H103       24.3299  -28.0202  -45.3576 H         1 UNK         0.0787 
    104 H104       22.7416  -28.2912  -44.6540 H         1 UNK         0.0787 
    105 H105       22.5955  -31.1199  -43.6360 H         1 UNK         0.3055 
    106 H106       24.2460  -33.0621  -45.1435 H         1 UNK         0.1106 
    107 H107       22.4515  -33.4230  -46.8231 H         1 UNK         0.0828 
    108 H108       21.4844  -32.1373  -46.1115 H         1 UNK         0.0828 
    109 H109       23.0128  -31.7623  -46.9027 H         1 UNK         0.0828 
    110 H110       23.4078  -32.8526  -42.3632 H         1 UNK         0.2931 
    111 H111       21.3402  -34.9755  -42.1099 H         1 UNK         0.0412 
    112 H112       21.6625  -36.6886  -40.4365 H         1 UNK         0.3472 
    113 H113       23.2831  -37.2953  -40.2205 H         1 UNK         0.3472 
    114 H114       20.9926  -34.2310  -39.8340 H         1 UNK         0.0970 
    115 H115       22.4187  -33.2285  -39.8586 H         1 UNK         0.0970 
    116 H116       19.4905  -33.7594  -42.4238 H         1 UNK         0.0612 
    117 H117       18.5016  -33.3150  -41.0512 H         1 UNK         0.0612 
@<TRIPOS>BOND
     1    1    2 1    
     2    1   62 1    
     3    1   63 1    
     4    1   64 1    
     5    2    3 2    
     6    2    4 am   BACKBONE|DICT|INTERRES
     7    4    5 1    
     8    4   65 1    
     9    5    6 1    
    10    5   25 1    
    11    5   66 1    
    12    6    7 1    
    13    6   67 1    
    14    6   68 1    
    15    7    8 1    
    16    8    9 1    
    17    8   69 1    
    18    8   70 1    
    19    9   10 ar   
    20    9   14 ar   
    21   10   11 ar   
    22   10   71 1    
    23   11   12 ar   
    24   11   61 1    
    25   12   13 ar   
    26   12   72 1    
    27   13   14 ar   
    28   13   15 1    
    29   14   73 1    
    30   15   16 1    
    31   15   74 1    
    32   15   75 1    
    33   16   17 1    
    34   17   18 1    
    35   17   76 1    
    36   17   77 1    
    37   18   19 1    
    38   18   27 1    
    39   18   78 1    
    40   19   20 am   BACKBONE|DICT|INTERRES
    41   19   79 1    
    42   20   21 2    
    43   20   22 1    
    44   22   23 1    
    45   22   24 1    
    46   22   80 1    
    47   23   81 1    
    48   23   82 1    
    49   23   83 1    
    50   24   25 am   BACKBONE|DICT|INTERRES
    51   24   84 1    
    52   25   26 2    
    53   27   28 2    
    54   27   29 am   BACKBONE|DICT|INTERRES
    55   29   30 1    
    56   29   85 1    
    57   30   31 1    
    58   30   32 1    
    59   30   86 1    
    60   31   87 1    
    61   31   88 1    
    62   31   89 1    
    63   32   33 2    
    64   32   34 am   BACKBONE|DICT|INTERRES
    65   34   35 1    
    66   34   90 1    
    67   35   36 1    
    68   35   37 1    
    69   35   91 1    
    70   36   92 1    
    71   36   93 1    
    72   36   94 1    
    73   37   38 2    
    74   37   39 am   BACKBONE|DICT|INTERRES
    75   39   40 1    
    76   39   95 1    
    77   40   41 1    
    78   40   42 1    
    79   40   96 1    
    80   41   97 1    
    81   41   98 1    
    82   41   99 1    
    83   42   43 2    
    84   42   44 am   BACKBONE|DICT|INTERRES
    85   44   45 1    
    86   44  100 1    
    87   45   46 1    
    88   45   47 1    
    89   45  101 1    
    90   46  102 1    
    91   46  103 1    
    92   46  104 1    
    93   47   48 2    
    94   47   49 am   BACKBONE|DICT|INTERRES
    95   49   50 1    
    96   49  105 1    
    97   50   51 1    
    98   50   52 1    
    99   50  106 1    
   100   51  107 1    
   101   51  108 1    
   102   51  109 1    
   103   52   53 2    
   104   52   54 am   BACKBONE|DICT|INTERRES
   105   54   55 1    
   106   54  110 1    
   107   55   56 1    
   108   55   59 1    
   109   55  111 1    
   110   56   57 am   BACKBONE|DICT|INTERRES
   111   56   58 2    
   112   57  112 1    
   113   57  113 1    
   114   59   60 1    
   115   59  114 1    
   116   59  115 1    
   117   60   61 1    
   118   61  116 1    
   119   61  117 1    
@<TRIPOS>SUBSTRUCTURE
     1 UNK         1 GROUP             0       ****    0 ROOT    
