@<TRIPOS>MOLECULE
3R8
117   119    1
SMALL
USER_CHARGES


@<TRIPOS>ATOM
      1 CA         23.6572  -25.3354  -47.5191 C.3       0 UNK        -0.2013 
      2 C          22.5667  -25.9447  -46.6524 C.2       0 UNK         0.4866 
      3 O          22.8473  -26.4038  -45.5459 O.2       0 UNK        -0.5176 
      4 N          21.3169  -25.9432  -47.1325 N.am      1 UNK        -0.4884 
      5 CA         20.1445  -26.5055  -46.4490 C.3       1 UNK         0.0853 
      6 C6         19.0510  -26.9499  -47.4531 C.3       10 UNK        -0.0849 
      7 S7         19.5342  -28.5006  -48.2833 S.3       10 UNK        -0.2776 
      8 C8         18.0802  -29.5624  -47.9925 C.3       10 UNK         0.0316 
      9 C9         17.8855  -29.9512  -46.5292 C.ar      10 UNK        -0.0863 
     10 C10        18.6586  -30.9671  -45.9576 C.ar      10 UNK        -0.1009 
     11 C11        18.4121  -31.4069  -44.6510 C.ar      10 UNK        -0.0712 
     12 C12        17.3835  -30.8106  -43.9124 C.ar      10 UNK        -0.0894 
     13 C13        16.6143  -29.7832  -44.4650 C.ar      10 UNK        -0.0745 
     14 C14        16.8719  -29.3563  -45.7711 C.ar      10 UNK        -0.0972 
     15 C15        15.4634  -29.1734  -43.6783 C.3       10 UNK         0.0209 
     16 S16        15.9248  -27.5908  -42.9110 S.3       10 UNK        -0.2568 
     17 C17        16.8589  -28.1272  -41.4355 C.3       10 UNK        -0.0983 
     18 CA         18.3925  -27.9889  -41.6007 C.3       3 UNK         0.0876 
     19 N          18.7752  -26.6550  -42.0729 N.am      3 UNK        -0.4424 
     20 C          20.0143  -26.1807  -42.2514 C.2       2 UNK         0.4918 
     21 O          21.0574  -26.7755  -41.9573 O.2       2 UNK        -0.4875 
     22 CA         20.0994  -24.8601  -43.0235 C.3       2 UNK         0.0481 
     23 CB         21.1224  -23.8883  -42.4134 C.3       2 UNK        -0.1831 
     24 N          20.4892  -25.2394  -44.3781 N.am      2 UNK        -0.4498 
     25 C          19.6133  -25.5787  -45.3329 C.2       1 UNK         0.5027 
     26 O          18.4308  -25.2314  -45.3202 O.2       1 UNK        -0.4969 
     27 C          19.1170  -28.3558  -40.2935 C.2       3 UNK         0.5005 
     28 O          18.9977  -27.6201  -39.3104 O.2       3 UNK        -0.5279 
     29 N          19.9033  -29.4405  -40.3339 N.am      4 UNK        -0.4463 
     30 CA         20.8484  -29.9264  -39.3187 C.3       4 UNK         0.0283 
     31 CB         20.1314  -30.3025  -38.0082 C.3       4 UNK        -0.1875 
     32 C          22.0445  -28.9918  -39.0455 C.2       4 UNK         0.4949 
     33 O          23.1688  -29.4831  -38.9591 O.2       4 UNK        -0.5039 
     34 N          21.7883  -27.6834  -38.9191 N.am      5 UNK        -0.4663 
     35 CA         22.7393  -26.6263  -38.5634 C.3       5 UNK         0.0242 
     36 CB         21.9945  -25.2834  -38.4863 C.3       5 UNK        -0.1982 
     37 C          23.9536  -26.5181  -39.4994 C.2       5 UNK         0.5017 
     38 O          25.0796  -26.4306  -39.0075 O.2       5 UNK        -0.5012 
     39 N          23.7047  -26.5371  -40.8148 N.am      6 UNK        -0.4439 
     40 CA         24.7425  -26.5724  -41.8524 C.3       6 UNK         0.0297 
     41 CB         24.6798  -25.3017  -42.7143 C.3       6 UNK        -0.2006 
     42 C          24.6154  -27.8230  -42.7319 C.2       6 UNK         0.4892 
     43 O          25.6268  -28.2769  -43.2682 O.2       6 UNK        -0.5089 
     44 N          23.3976  -28.3740  -42.8506 N.am      7 UNK        -0.4243 
     45 CA         23.1062  -29.5785  -43.6303 C.3       7 UNK         0.0196 
     46 CB         21.5865  -29.6894  -43.8121 C.3       7 UNK        -0.2007 
     47 C          23.6787  -30.8728  -43.0195 C.2       7 UNK         0.5020 
     48 O          23.7935  -31.8669  -43.7350 O.2       7 UNK        -0.5147 
     49 N          24.0095  -30.8459  -41.7174 N.am      8 UNK        -0.4734 
     50 CA         24.6302  -31.9115  -40.9111 C.3       8 UNK         0.0238 
     51 CB         26.0147  -32.2949  -41.4748 C.3       8 UNK        -0.1912 
     52 C          23.7454  -33.1511  -40.6664 C.2       8 UNK         0.5038 
     53 O          24.2184  -34.1191  -40.0696 O.2       8 UNK        -0.5046 
     54 N          22.4812  -33.0974  -41.0976 N.am      9 UNK        -0.4200 
     55 CA         21.4584  -34.1405  -40.9373 C.3       9 UNK         0.0839 
     56 C          20.8111  -34.2343  -39.5228 C.2       9 UNK         0.5513 
     57 N          21.2616  -33.4801  -38.5283 N.am      9 UNK        -0.7519 
     58 O          19.8952  -35.0263  -39.3157 O.2       9 UNK        -0.4960 
     59 C59        20.4135  -34.0768  -42.0832 C.3       10 UNK        -0.0876 
     60 S60        19.6548  -32.4321  -42.3335 S.3       10 UNK        -0.2414 
     61 C61        19.2017  -32.5886  -44.0942 C.3       10 UNK         0.0169 
     62 H62        23.2669  -24.9663  -48.4673 H         1 UNK         0.0903 
     63 H63        24.1284  -24.5029  -46.9973 H         1 UNK         0.0903 
     64 H64        24.4231  -26.0802  -47.7336 H         1 UNK         0.0903 
     65 H65        21.1372  -25.5361  -48.0395 H         1 UNK         0.3096 
     66 H66        20.4658  -27.4059  -45.9226 H         1 UNK         0.1121 
     67 H67        18.8663  -26.1770  -48.2008 H         1 UNK         0.0849 
     68 H68        18.0956  -27.1141  -46.9542 H         1 UNK         0.0849 
     69 H69        17.1904  -29.0629  -48.3794 H         1 UNK         0.0865 
     70 H70        18.1910  -30.4699  -48.5880 H         1 UNK         0.0865 
     71 H71        19.4300  -31.4420  -46.5489 H         1 UNK         0.1346 
     72 H72        17.1630  -31.1638  -42.9146 H         1 UNK         0.1412 
     73 H73        16.2572  -28.5799  -46.2063 H         1 UNK         0.1426 
     74 H74        15.0991  -29.8654  -42.9175 H         1 UNK         0.0716 
     75 H75        14.6216  -28.9994  -44.3503 H         1 UNK         0.0716 
     76 H76        16.5930  -29.1569  -41.1899 H         1 UNK         0.0695 
     77 H77        16.5111  -27.5196  -40.5974 H         1 UNK         0.0695 
     78 H78        18.7081  -28.6856  -42.3798 H         1 UNK         0.0983 
     79 H79        18.0010  -26.0907  -42.3929 H         1 UNK         0.3095 
     80 H80        19.1265  -24.3639  -43.0284 H         1 UNK         0.0454 
     81 H81        22.0832  -24.3587  -42.2202 H         1 UNK         0.0851 
     82 H82        20.7610  -23.5042  -41.4591 H         1 UNK         0.0851 
     83 H83        21.2928  -23.0305  -43.0637 H         1 UNK         0.0851 
     84 H84        21.4379  -25.5883  -44.4930 H         1 UNK         0.2976 
     85 H85        19.9053  -29.9770  -41.1901 H         1 UNK         0.3116 
     86 H86        21.2651  -30.8441  -39.7339 H         1 UNK         0.0646 
     87 H87        19.6804  -29.4376  -37.5214 H         1 UNK         0.0847 
     88 H88        20.8303  -30.7424  -37.2958 H         1 UNK         0.0847 
     89 H89        19.3453  -31.0366  -38.1850 H         1 UNK         0.0847 
     90 H90        20.8134  -27.4073  -39.0163 H         1 UNK         0.3040 
     91 H91        23.1209  -26.8618  -37.5677 H         1 UNK         0.1015 
     92 H92        21.5315  -25.0236  -39.4390 H         1 UNK         0.0786 
     93 H93        22.6736  -24.4723  -38.2194 H         1 UNK         0.0786 
     94 H94        21.2093  -25.3094  -37.7305 H         1 UNK         0.0786 
     95 H95        22.7362  -26.6003  -41.1184 H         1 UNK         0.3172 
     96 H96        25.7326  -26.6118  -41.3936 H         1 UNK         0.0595 
     97 H97        23.7842  -25.2764  -43.3334 H         1 UNK         0.0839 
     98 H98        25.5329  -25.2557  -43.3924 H         1 UNK         0.0839 
     99 H99        24.7014  -24.3996  -42.1030 H         1 UNK         0.0839 
    100 H100       22.6008  -27.9017  -42.4391 H         1 UNK         0.2998 
    101 H101       23.5581  -29.4547  -44.6170 H         1 UNK         0.0822 
    102 H102       21.1745  -28.7909  -44.2674 H         1 UNK         0.0787 
    103 H103       21.3335  -30.5274  -44.4619 H         1 UNK         0.0787 
    104 H104       21.0790  -29.8410  -42.8620 H         1 UNK         0.0787 
    105 H105       23.8497  -29.9808  -41.2168 H         1 UNK         0.3055 
    106 H106       24.7937  -31.4755  -39.9241 H         1 UNK         0.1106 
    107 H107       26.5442  -32.9629  -40.7943 H         1 UNK         0.0828 
    108 H108       25.9358  -32.8083  -42.4334 H         1 UNK         0.0828 
    109 H109       26.6429  -31.4152  -41.6157 H         1 UNK         0.0828 
    110 H110       22.1841  -32.2710  -41.5928 H         1 UNK         0.2931 
    111 H111       21.9713  -35.0969  -41.0549 H         1 UNK         0.0412 
    112 H112       20.8399  -33.5679  -37.6174 H         1 UNK         0.3472 
    113 H113       22.0471  -32.8670  -38.6666 H         1 UNK         0.3472 
    114 H114       20.9085  -34.3684  -43.0110 H         1 UNK         0.0970 
    115 H115       19.6210  -34.8136  -41.9390 H         1 UNK         0.0970 
    116 H116       20.1162  -32.7351  -44.6713 H         1 UNK         0.0612 
    117 H117       18.6022  -33.4904  -44.2250 H         1 UNK         0.0612 
@<TRIPOS>BOND
     1    1    2 1    
     2    1   62 1    
     3    1   63 1    
     4    1   64 1    
     5    2    3 2    
     6    2    4 am   BACKBONE|DICT|INTERRES
     7    4    5 1    
     8    4   65 1    
     9    5    6 1    
    10    5   25 1    
    11    5   66 1    
    12    6    7 1    
    13    6   67 1    
    14    6   68 1    
    15    7    8 1    
    16    8    9 1    
    17    8   69 1    
    18    8   70 1    
    19    9   10 ar   
    20    9   14 ar   
    21   10   11 ar   
    22   10   71 1    
    23   11   12 ar   
    24   11   61 1    
    25   12   13 ar   
    26   12   72 1    
    27   13   14 ar   
    28   13   15 1    
    29   14   73 1    
    30   15   16 1    
    31   15   74 1    
    32   15   75 1    
    33   16   17 1    
    34   17   18 1    
    35   17   76 1    
    36   17   77 1    
    37   18   19 1    
    38   18   27 1    
    39   18   78 1    
    40   19   20 am   BACKBONE|DICT|INTERRES
    41   19   79 1    
    42   20   21 2    
    43   20   22 1    
    44   22   23 1    
    45   22   24 1    
    46   22   80 1    
    47   23   81 1    
    48   23   82 1    
    49   23   83 1    
    50   24   25 am   BACKBONE|DICT|INTERRES
    51   24   84 1    
    52   25   26 2    
    53   27   28 2    
    54   27   29 am   BACKBONE|DICT|INTERRES
    55   29   30 1    
    56   29   85 1    
    57   30   31 1    
    58   30   32 1    
    59   30   86 1    
    60   31   87 1    
    61   31   88 1    
    62   31   89 1    
    63   32   33 2    
    64   32   34 am   BACKBONE|DICT|INTERRES
    65   34   35 1    
    66   34   90 1    
    67   35   36 1    
    68   35   37 1    
    69   35   91 1    
    70   36   92 1    
    71   36   93 1    
    72   36   94 1    
    73   37   38 2    
    74   37   39 am   BACKBONE|DICT|INTERRES
    75   39   40 1    
    76   39   95 1    
    77   40   41 1    
    78   40   42 1    
    79   40   96 1    
    80   41   97 1    
    81   41   98 1    
    82   41   99 1    
    83   42   43 2    
    84   42   44 am   BACKBONE|DICT|INTERRES
    85   44   45 1    
    86   44  100 1    
    87   45   46 1    
    88   45   47 1    
    89   45  101 1    
    90   46  102 1    
    91   46  103 1    
    92   46  104 1    
    93   47   48 2    
    94   47   49 am   BACKBONE|DICT|INTERRES
    95   49   50 1    
    96   49  105 1    
    97   50   51 1    
    98   50   52 1    
    99   50  106 1    
   100   51  107 1    
   101   51  108 1    
   102   51  109 1    
   103   52   53 2    
   104   52   54 am   BACKBONE|DICT|INTERRES
   105   54   55 1    
   106   54  110 1    
   107   55   56 1    
   108   55   59 1    
   109   55  111 1    
   110   56   57 am   BACKBONE|DICT|INTERRES
   111   56   58 2    
   112   57  112 1    
   113   57  113 1    
   114   59   60 1    
   115   59  114 1    
   116   59  115 1    
   117   60   61 1    
   118   61  116 1    
   119   61  117 1    
@<TRIPOS>SUBSTRUCTURE
     1 UNK         1 GROUP             0       ****    0 ROOT    
