@<TRIPOS>MOLECULE
3R8
117   119    1
SMALL
USER_CHARGES


@<TRIPOS>ATOM
      1 CA         16.7648  -25.3371  -42.3857 C.3       0 UNK        -0.2013 
      2 C          16.1926  -24.1224  -43.1129 C.2       0 UNK         0.4866 
      3 O          15.4292  -23.3816  -42.4964 O.2       0 UNK        -0.5176 
      4 N          16.4980  -23.8415  -44.3912 N.am      1 UNK        -0.4884 
      5 CA         17.3846  -24.5059  -45.3631 C.3       1 UNK         0.0853 
      6 C6         16.6595  -25.5374  -46.2827 C.3       10 UNK        -0.0849 
      7 S7         16.0010  -27.0232  -45.4515 S.3       10 UNK        -0.2776 
      8 C8         16.9020  -28.4103  -46.2419 C.3       10 UNK         0.0316 
      9 C9         17.3730  -29.5071  -45.2809 C.ar      10 UNK        -0.0863 
     10 C10        18.3085  -30.4446  -45.7349 C.ar      10 UNK        -0.1009 
     11 C11        18.7632  -31.4683  -44.8970 C.ar      10 UNK        -0.0712 
     12 C12        18.2889  -31.5476  -43.5849 C.ar      10 UNK        -0.0894 
     13 C13        17.3524  -30.6252  -43.1160 C.ar      10 UNK        -0.0745 
     14 C14        16.8872  -29.6231  -43.9713 C.ar      10 UNK        -0.0972 
     15 C15        16.8301  -30.7103  -41.6879 C.3       10 UNK         0.0209 
     16 S16        18.0241  -30.0661  -40.4702 S.3       10 UNK        -0.2568 
     17 C17        18.3687  -28.3909  -41.1049 C.3       10 UNK        -0.0983 
     18 CA         19.7923  -28.2908  -41.7223 C.3       3 UNK         0.0876 
     19 N          19.8130  -27.4830  -42.9530 N.am      3 UNK        -0.4424 
     20 C          20.8966  -27.0777  -43.6343 C.2       2 UNK         0.4918 
     21 O          22.0500  -27.1672  -43.2187 O.2       2 UNK        -0.4875 
     22 CA         20.6851  -26.4958  -45.0416 C.3       2 UNK         0.0481 
     23 CB         21.0788  -27.5425  -46.0966 C.3       2 UNK        -0.1831 
     24 N          19.3254  -26.0280  -45.3198 N.am      2 UNK        -0.4498 
     25 C          18.7765  -24.9125  -44.8220 C.2       1 UNK         0.5027 
     26 O          19.3400  -24.1931  -43.9947 O.2       1 UNK        -0.4969 
     27 C          20.8197  -27.8833  -40.6458 C.2       3 UNK         0.5005 
     28 O          21.5916  -28.7293  -40.1913 O.2       3 UNK        -0.5279 
     29 N          20.8186  -26.5956  -40.2749 N.am      4 UNK        -0.4463 
     30 CA         21.6801  -26.0405  -39.2279 C.3       4 UNK         0.0283 
     31 CB         21.1319  -24.6715  -38.7941 C.3       4 UNK        -0.1875 
     32 C          23.1561  -25.9176  -39.6419 C.2       4 UNK         0.4949 
     33 O          24.0308  -26.0250  -38.7826 O.2       4 UNK        -0.5039 
     34 N          23.4093  -25.6842  -40.9357 N.am      5 UNK        -0.4663 
     35 CA         24.7526  -25.5252  -41.4958 C.3       5 UNK         0.0242 
     36 CB         24.6742  -24.6656  -42.7686 C.3       5 UNK        -0.1982 
     37 C          25.4081  -26.8796  -41.7984 C.2       5 UNK         0.5017 
     38 O          26.5916  -27.0620  -41.5128 O.2       5 UNK        -0.5012 
     39 N          24.6233  -27.7996  -42.3718 N.am      6 UNK        -0.4439 
     40 CA         25.0554  -29.1288  -42.8016 C.3       6 UNK         0.0297 
     41 CB         24.1746  -29.5647  -43.9849 C.3       6 UNK        -0.2006 
     42 C          25.0181  -30.1814  -41.6795 C.2       6 UNK         0.4892 
     43 O          25.4397  -31.3108  -41.9267 O.2       6 UNK        -0.5089 
     44 N          24.4918  -29.8210  -40.4972 N.am      7 UNK        -0.4243 
     45 CA         24.2693  -30.6759  -39.3214 C.3       7 UNK         0.0196 
     46 CB         25.6095  -31.1306  -38.7054 C.3       7 UNK        -0.2007 
     47 C          23.3245  -31.8459  -39.6523 C.2       7 UNK         0.5020 
     48 O          23.6931  -33.0135  -39.5113 O.2       7 UNK        -0.5147 
     49 N          22.1397  -31.4888  -40.1681 N.am      8 UNK        -0.4734 
     50 CA         21.0935  -32.3687  -40.7112 C.3       8 UNK         0.0238 
     51 CB         20.4663  -33.2338  -39.5987 C.3       8 UNK        -0.1912 
     52 C          21.5409  -33.2012  -41.9310 C.2       8 UNK         0.5038 
     53 O          20.8997  -34.2025  -42.2530 O.2       8 UNK        -0.5046 
     54 N          22.6186  -32.7581  -42.5908 N.am      9 UNK        -0.4200 
     55 CA         23.2685  -33.3839  -43.7518 C.3       9 UNK         0.0839 
     56 C          24.0017  -34.7190  -43.4234 C.2       9 UNK         0.5513 
     57 N          24.3098  -35.0105  -42.1642 N.am      9 UNK        -0.7519 
     58 O          24.3208  -35.4929  -44.3226 O.2       9 UNK        -0.4960 
     59 C59        22.3575  -33.4782  -45.0115 C.3       10 UNK        -0.0876 
     60 S60        21.4571  -31.9250  -45.3774 S.3       10 UNK        -0.2414 
     61 C61        19.7357  -32.5164  -45.4133 C.3       10 UNK         0.0169 
     62 H62        17.6652  -25.0560  -41.8406 H         1 UNK         0.0903 
     63 H63        16.0413  -25.7165  -41.6644 H         1 UNK         0.0903 
     64 H64        17.0077  -26.1548  -43.0548 H         1 UNK         0.0903 
     65 H65        16.0766  -23.0009  -44.7615 H         1 UNK         0.3096 
     66 H66        17.6475  -23.6873  -46.0359 H         1 UNK         0.1121 
     67 H67        17.2926  -25.8194  -47.1254 H         1 UNK         0.0849 
     68 H68        15.8049  -25.0424  -46.7469 H         1 UNK         0.0849 
     69 H69        16.2462  -28.8612  -46.9880 H         1 UNK         0.0865 
     70 H70        17.7651  -28.0327  -46.7897 H         1 UNK         0.0865 
     71 H71        18.6804  -30.3868  -46.7491 H         1 UNK         0.1346 
     72 H72        18.6377  -32.3356  -42.9315 H         1 UNK         0.1412 
     73 H73        16.1448  -28.9332  -43.5977 H         1 UNK         0.1426 
     74 H74        15.8914  -30.1632  -41.5876 H         1 UNK         0.0716 
     75 H75        16.6032  -31.7491  -41.4440 H         1 UNK         0.0716 
     76 H76        18.2172  -27.6753  -40.2940 H         1 UNK         0.0695 
     77 H77        17.6038  -28.1348  -41.8348 H         1 UNK         0.0695 
     78 H78        20.0910  -29.2844  -42.0636 H         1 UNK         0.0983 
     79 H79        18.9245  -27.3736  -43.4160 H         1 UNK         0.3095 
     80 H80        21.3617  -25.6446  -45.1432 H         1 UNK         0.0454 
     81 H81        21.0039  -27.1406  -47.1070 H         1 UNK         0.0851 
     82 H82        20.4521  -28.4331  -46.0387 H         1 UNK         0.0851 
     83 H83        22.1109  -27.8674  -45.9580 H         1 UNK         0.0851 
     84 H84        18.7931  -26.5651  -45.9870 H         1 UNK         0.2976 
     85 H85        20.1709  -25.9634  -40.7227 H         1 UNK         0.3116 
     86 H86        21.6375  -26.7096  -38.3655 H         1 UNK         0.0646 
     87 H87        20.1132  -24.7526  -38.4148 H         1 UNK         0.0847 
     88 H88        21.7391  -24.2443  -37.9946 H         1 UNK         0.0847 
     89 H89        21.1294  -23.9561  -39.6175 H         1 UNK         0.0847 
     90 H90        22.6366  -25.6795  -41.5882 H         1 UNK         0.3040 
     91 H91        25.3836  -25.0029  -40.7724 H         1 UNK         0.1015 
     92 H92        24.0450  -25.1249  -43.5324 H         1 UNK         0.0786 
     93 H93        25.6642  -24.5227  -43.2040 H         1 UNK         0.0786 
     94 H94        24.2702  -23.6762  -42.5531 H         1 UNK         0.0786 
     95 H95        23.6597  -27.5464  -42.5916 H         1 UNK         0.3172 
     96 H96        26.0868  -29.0660  -43.1549 H         1 UNK         0.0595 
     97 H97        23.1408  -29.7363  -43.6813 H         1 UNK         0.0839 
     98 H98        24.5458  -30.4872  -44.4305 H         1 UNK         0.0839 
     99 H99        24.1697  -28.8128  -44.7739 H         1 UNK         0.0839 
    100 H100       24.1217  -28.8826  -40.4262 H         1 UNK         0.2998 
    101 H101       23.7560  -30.0603  -38.5807 H         1 UNK         0.0822 
    102 H102       25.4429  -31.6907  -37.7846 H         1 UNK         0.0787 
    103 H103       26.1708  -31.7776  -39.3803 H         1 UNK         0.0787 
    104 H104       26.2405  -30.2773  -38.4574 H         1 UNK         0.0787 
    105 H105       21.9435  -30.4879  -40.2232 H         1 UNK         0.3055 
    106 H106       20.3159  -31.7065  -41.0898 H         1 UNK         0.1106 
    107 H107       19.5967  -33.7782  -39.9689 H         1 UNK         0.0828 
    108 H108       21.1708  -33.9706  -39.2123 H         1 UNK         0.0828 
    109 H109       20.1280  -32.6196  -38.7643 H         1 UNK         0.0828 
    110 H110       23.1063  -31.9615  -42.2086 H         1 UNK         0.2931 
    111 H111       24.0773  -32.7020  -44.0101 H         1 UNK         0.0412 
    112 H112       24.7928  -35.8708  -41.9591 H         1 UNK         0.3472 
    113 H113       24.0776  -34.3695  -41.4171 H         1 UNK         0.3472 
    114 H114       21.6580  -34.3076  -44.9018 H         1 UNK         0.0970 
    115 H115       22.9610  -33.7216  -45.8876 H         1 UNK         0.0970 
    116 H116       19.6320  -33.4222  -44.8146 H         1 UNK         0.0612 
    117 H117       19.4767  -32.7966  -46.4353 H         1 UNK         0.0612 
@<TRIPOS>BOND
     1    1    2 1    
     2    1   62 1    
     3    1   63 1    
     4    1   64 1    
     5    2    3 2    
     6    2    4 am   BACKBONE|DICT|INTERRES
     7    4    5 1    
     8    4   65 1    
     9    5    6 1    
    10    5   25 1    
    11    5   66 1    
    12    6    7 1    
    13    6   67 1    
    14    6   68 1    
    15    7    8 1    
    16    8    9 1    
    17    8   69 1    
    18    8   70 1    
    19    9   10 ar   
    20    9   14 ar   
    21   10   11 ar   
    22   10   71 1    
    23   11   12 ar   
    24   11   61 1    
    25   12   13 ar   
    26   12   72 1    
    27   13   14 ar   
    28   13   15 1    
    29   14   73 1    
    30   15   16 1    
    31   15   74 1    
    32   15   75 1    
    33   16   17 1    
    34   17   18 1    
    35   17   76 1    
    36   17   77 1    
    37   18   19 1    
    38   18   27 1    
    39   18   78 1    
    40   19   20 am   BACKBONE|DICT|INTERRES
    41   19   79 1    
    42   20   21 2    
    43   20   22 1    
    44   22   23 1    
    45   22   24 1    
    46   22   80 1    
    47   23   81 1    
    48   23   82 1    
    49   23   83 1    
    50   24   25 am   BACKBONE|DICT|INTERRES
    51   24   84 1    
    52   25   26 2    
    53   27   28 2    
    54   27   29 am   BACKBONE|DICT|INTERRES
    55   29   30 1    
    56   29   85 1    
    57   30   31 1    
    58   30   32 1    
    59   30   86 1    
    60   31   87 1    
    61   31   88 1    
    62   31   89 1    
    63   32   33 2    
    64   32   34 am   BACKBONE|DICT|INTERRES
    65   34   35 1    
    66   34   90 1    
    67   35   36 1    
    68   35   37 1    
    69   35   91 1    
    70   36   92 1    
    71   36   93 1    
    72   36   94 1    
    73   37   38 2    
    74   37   39 am   BACKBONE|DICT|INTERRES
    75   39   40 1    
    76   39   95 1    
    77   40   41 1    
    78   40   42 1    
    79   40   96 1    
    80   41   97 1    
    81   41   98 1    
    82   41   99 1    
    83   42   43 2    
    84   42   44 am   BACKBONE|DICT|INTERRES
    85   44   45 1    
    86   44  100 1    
    87   45   46 1    
    88   45   47 1    
    89   45  101 1    
    90   46  102 1    
    91   46  103 1    
    92   46  104 1    
    93   47   48 2    
    94   47   49 am   BACKBONE|DICT|INTERRES
    95   49   50 1    
    96   49  105 1    
    97   50   51 1    
    98   50   52 1    
    99   50  106 1    
   100   51  107 1    
   101   51  108 1    
   102   51  109 1    
   103   52   53 2    
   104   52   54 am   BACKBONE|DICT|INTERRES
   105   54   55 1    
   106   54  110 1    
   107   55   56 1    
   108   55   59 1    
   109   55  111 1    
   110   56   57 am   BACKBONE|DICT|INTERRES
   111   56   58 2    
   112   57  112 1    
   113   57  113 1    
   114   59   60 1    
   115   59  114 1    
   116   59  115 1    
   117   60   61 1    
   118   61  116 1    
   119   61  117 1    
@<TRIPOS>SUBSTRUCTURE
     1 UNK         1 GROUP             0       ****    0 ROOT    
