@<TRIPOS>MOLECULE
3R8
117   119    1
SMALL
USER_CHARGES


@<TRIPOS>ATOM
      1 CA         15.7193  -23.6728  -40.3552 C.3       0 UNK        -0.2013 
      2 C          15.7388  -24.5075  -41.6271 C.2       0 UNK         0.4866 
      3 O          14.9999  -24.2104  -42.5667 O.2       0 UNK        -0.5176 
      4 N          16.5708  -25.5551  -41.6611 N.am      1 UNK        -0.4884 
      5 CA         16.7856  -26.4204  -42.8248 C.3       1 UNK         0.0853 
      6 C6         17.3986  -27.7851  -42.4176 C.3       10 UNK        -0.0849 
      7 S7         18.9213  -27.6706  -41.4094 S.3       10 UNK        -0.2776 
      8 C8         19.1993  -29.4190  -40.9675 C.3       10 UNK         0.0316 
      9 C9         19.3107  -30.2938  -42.2061 C.ar      10 UNK        -0.0863 
     10 C10        18.2974  -31.1979  -42.5337 C.ar      10 UNK        -0.1009 
     11 C11        18.3732  -31.9505  -43.7101 C.ar      10 UNK        -0.0712 
     12 C12        19.4425  -31.7487  -44.5883 C.ar      10 UNK        -0.0894 
     13 C13        20.4652  -30.8515  -44.2655 C.ar      10 UNK        -0.0745 
     14 C14        20.4137  -30.1630  -43.0505 C.ar      10 UNK        -0.0972 
     15 C15        21.6121  -30.6176  -45.2375 C.3       10 UNK         0.0209 
     16 S16        21.3395  -29.1258  -46.2509 S.3       10 UNK        -0.2568 
     17 C17        21.9304  -27.8119  -45.1330 C.3       10 UNK        -0.0983 
     18 CA         21.7012  -26.3761  -45.6712 C.3       3 UNK         0.0876 
     19 N          20.2906  -25.9906  -45.6324 N.am      3 UNK        -0.4424 
     20 C          19.4339  -26.0141  -46.6557 C.2       2 UNK         0.4918 
     21 O          19.7304  -26.4137  -47.7832 O.2       2 UNK        -0.4875 
     22 CA         18.0081  -25.4921  -46.3743 C.3       2 UNK         0.0481 
     23 CB         17.0592  -25.6958  -47.5708 C.3       2 UNK        -0.1831 
     24 N          17.3976  -26.0939  -45.1826 N.am      2 UNK        -0.4498 
     25 C          17.6110  -25.7038  -43.9181 C.2       1 UNK         0.5027 
     26 O          18.4221  -24.8262  -43.6099 O.2       1 UNK        -0.4969 
     27 C          22.4856  -25.3666  -44.8140 C.2       3 UNK         0.5005 
     28 O          21.8917  -24.6467  -44.0055 O.2       3 UNK        -0.5279 
     29 N          23.8128  -25.3658  -44.9763 N.am      4 UNK        -0.4463 
     30 CA         24.7621  -24.6722  -44.1078 C.3       4 UNK         0.0283 
     31 CB         25.7130  -23.8270  -44.9709 C.3       4 UNK        -0.1875 
     32 C          25.5526  -25.7233  -43.3180 C.2       4 UNK         0.4949 
     33 O          25.7946  -26.8155  -43.8383 O.2       4 UNK        -0.5039 
     34 N          25.9477  -25.3705  -42.0874 N.am      5 UNK        -0.4663 
     35 CA         26.7670  -26.1256  -41.1218 C.3       5 UNK         0.0242 
     36 CB         28.1779  -26.3931  -41.6823 C.3       5 UNK        -0.1982 
     37 C          26.1433  -27.4257  -40.5730 C.2       5 UNK         0.5017 
     38 O          26.2910  -27.6975  -39.3808 O.2       5 UNK        -0.5012 
     39 N          25.4796  -28.2069  -41.4324 N.am      6 UNK        -0.4439 
     40 CA         24.8018  -29.4628  -41.1098 C.3       6 UNK         0.0297 
     41 CB         24.3287  -30.1224  -42.4136 C.3       6 UNK        -0.2006 
     42 C          23.6173  -29.2473  -40.1533 C.2       6 UNK         0.4892 
     43 O          22.7263  -28.4537  -40.4607 O.2       6 UNK        -0.5089 
     44 N          23.6307  -29.9653  -39.0238 N.am      7 UNK        -0.4243 
     45 CA         22.5988  -29.9004  -37.9844 C.3       7 UNK         0.0196 
     46 CB         23.2561  -30.1667  -36.6195 C.3       7 UNK        -0.2007 
     47 C          21.4384  -30.8845  -38.2167 C.2       7 UNK         0.5020 
     48 O          20.3972  -30.7409  -37.5756 O.2       7 UNK        -0.5147 
     49 N          21.6241  -31.8648  -39.1071 N.am      8 UNK        -0.4734 
     50 CA         20.6543  -32.9028  -39.4487 C.3       8 UNK         0.0238 
     51 CB         20.7005  -34.0265  -38.3943 C.3       8 UNK        -0.1912 
     52 C          20.9671  -33.4379  -40.8516 C.2       8 UNK         0.5038 
     53 O          22.0269  -33.1234  -41.4011 O.2       8 UNK        -0.5046 
     54 N          20.0433  -34.2418  -41.3926 N.am      9 UNK        -0.4200 
     55 CA         20.1018  -34.7971  -42.7555 C.3       9 UNK         0.0839 
     56 C          21.2140  -35.8585  -43.0019 C.2       9 UNK         0.5513 
     57 N          21.8656  -36.3935  -41.9764 N.am      9 UNK        -0.7519 
     58 O          21.4866  -36.2049  -44.1484 O.2       9 UNK        -0.4960 
     59 C59        18.7233  -35.3282  -43.2486 C.3       10 UNK        -0.0876 
     60 S60        17.2677  -34.3177  -42.7925 S.3       10 UNK        -0.2414 
     61 C61        17.2975  -32.9782  -44.0273 C.3       10 UNK         0.0169 
     62 H62        15.9997  -22.6437  -40.5781 H         1 UNK         0.0903 
     63 H63        14.7184  -23.6680  -39.9243 H         1 UNK         0.0903 
     64 H64        16.4097  -24.0572  -39.6046 H         1 UNK         0.0903 
     65 H65        17.1874  -25.7352  -40.8807 H         1 UNK         0.3096 
     66 H66        15.8033  -26.6250  -43.2576 H         1 UNK         0.1121 
     67 H67        17.6048  -28.3875  -43.3046 H         1 UNK         0.0849 
     68 H68        16.6617  -28.3505  -41.8449 H         1 UNK         0.0849 
     69 H69        20.1219  -29.4906  -40.3921 H         1 UNK         0.0865 
     70 H70        18.3972  -29.7630  -40.3127 H         1 UNK         0.0865 
     71 H71        17.4496  -31.3229  -41.8741 H         1 UNK         0.1346 
     72 H72        19.4875  -32.3013  -45.5167 H         1 UNK         0.1412 
     73 H73        21.2070  -29.4862  -42.7698 H         1 UNK         0.1426 
     74 H74        22.5586  -30.5427  -44.7035 H         1 UNK         0.0716 
     75 H75        21.7136  -31.4747  -45.9049 H         1 UNK         0.0716 
     76 H76        22.9906  -28.0042  -44.9562 H         1 UNK         0.0695 
     77 H77        21.4365  -27.9035  -44.1681 H         1 UNK         0.0695 
     78 H78        22.0777  -26.3005  -46.6939 H         1 UNK         0.0983 
     79 H79        19.9922  -25.5646  -44.7590 H         1 UNK         0.3095 
     80 H80        18.0959  -24.4157  -46.2126 H         1 UNK         0.0454 
     81 H81        16.0732  -25.2753  -47.3730 H         1 UNK         0.0851 
     82 H82        17.4431  -25.2019  -48.4645 H         1 UNK         0.0851 
     83 H83        16.9330  -26.7522  -47.8111 H         1 UNK         0.0851 
     84 H84        16.7533  -26.8527  -45.3541 H         1 UNK         0.2976 
     85 H85        24.2269  -26.0396  -45.6071 H         1 UNK         0.3116 
     86 H86        24.2438  -24.0143  -43.4068 H         1 UNK         0.0646 
     87 H87        25.1656  -23.0820  -45.5485 H         1 UNK         0.0847 
     88 H88        26.2810  -24.4418  -45.6705 H         1 UNK         0.0847 
     89 H89        26.4323  -23.2908  -44.3504 H         1 UNK         0.0847 
     90 H90        25.6578  -24.4586  -41.7593 H         1 UNK         0.3040 
     91 H91        26.8832  -25.4636  -40.2616 H         1 UNK         0.1015 
     92 H92        28.8125  -26.8642  -40.9304 H         1 UNK         0.0786 
     93 H93        28.6672  -25.4668  -41.9836 H         1 UNK         0.0786 
     94 H94        28.1555  -27.0571  -42.5471 H         1 UNK         0.0786 
     95 H95        25.4367  -27.8861  -42.3970 H         1 UNK         0.3172 
     96 H96        25.5300  -30.1241  -40.6356 H         1 UNK         0.0595 
     97 H97        23.6630  -29.4607  -42.9672 H         1 UNK         0.0839 
     98 H98        23.7837  -31.0467  -42.2155 H         1 UNK         0.0839 
     99 H99        25.1687  -30.3717  -43.0622 H         1 UNK         0.0839 
    100 H100       24.4091  -30.5853  -38.8494 H         1 UNK         0.2998 
    101 H101       22.1720  -28.8950  -37.9636 H         1 UNK         0.0822 
    102 H102       24.0441  -29.4425  -36.4110 H         1 UNK         0.0787 
    103 H103       22.5262  -30.0895  -35.8123 H         1 UNK         0.0787 
    104 H104       23.6934  -31.1647  -36.5685 H         1 UNK         0.0787 
    105 H105       22.4706  -31.8885  -39.6621 H         1 UNK         0.3055 
    106 H106       19.6549  -32.4620  -39.4760 H         1 UNK         0.1106 
    107 H107       20.4645  -33.6481  -37.3996 H         1 UNK         0.0828 
    108 H108       19.9764  -34.8114  -38.6154 H         1 UNK         0.0828 
    109 H109       21.6855  -34.4926  -38.3478 H         1 UNK         0.0828 
    110 H110       19.2028  -34.4512  -40.8750 H         1 UNK         0.2931 
    111 H111       20.3726  -33.9643  -43.4030 H         1 UNK         0.0412 
    112 H112       22.5845  -37.0786  -42.1497 H         1 UNK         0.3472 
    113 H113       21.6541  -36.1095  -41.0337 H         1 UNK         0.3472 
    114 H114       18.5450  -36.3252  -42.8409 H         1 UNK         0.0970 
    115 H115       18.7358  -35.4532  -44.3330 H         1 UNK         0.0970 
    116 H116       16.3260  -32.4822  -44.0309 H         1 UNK         0.0612 
    117 H117       17.4323  -33.4023  -45.0234 H         1 UNK         0.0612 
@<TRIPOS>BOND
     1    1    2 1    
     2    1   62 1    
     3    1   63 1    
     4    1   64 1    
     5    2    3 2    
     6    2    4 am   BACKBONE|DICT|INTERRES
     7    4    5 1    
     8    4   65 1    
     9    5    6 1    
    10    5   25 1    
    11    5   66 1    
    12    6    7 1    
    13    6   67 1    
    14    6   68 1    
    15    7    8 1    
    16    8    9 1    
    17    8   69 1    
    18    8   70 1    
    19    9   10 ar   
    20    9   14 ar   
    21   10   11 ar   
    22   10   71 1    
    23   11   12 ar   
    24   11   61 1    
    25   12   13 ar   
    26   12   72 1    
    27   13   14 ar   
    28   13   15 1    
    29   14   73 1    
    30   15   16 1    
    31   15   74 1    
    32   15   75 1    
    33   16   17 1    
    34   17   18 1    
    35   17   76 1    
    36   17   77 1    
    37   18   19 1    
    38   18   27 1    
    39   18   78 1    
    40   19   20 am   BACKBONE|DICT|INTERRES
    41   19   79 1    
    42   20   21 2    
    43   20   22 1    
    44   22   23 1    
    45   22   24 1    
    46   22   80 1    
    47   23   81 1    
    48   23   82 1    
    49   23   83 1    
    50   24   25 am   BACKBONE|DICT|INTERRES
    51   24   84 1    
    52   25   26 2    
    53   27   28 2    
    54   27   29 am   BACKBONE|DICT|INTERRES
    55   29   30 1    
    56   29   85 1    
    57   30   31 1    
    58   30   32 1    
    59   30   86 1    
    60   31   87 1    
    61   31   88 1    
    62   31   89 1    
    63   32   33 2    
    64   32   34 am   BACKBONE|DICT|INTERRES
    65   34   35 1    
    66   34   90 1    
    67   35   36 1    
    68   35   37 1    
    69   35   91 1    
    70   36   92 1    
    71   36   93 1    
    72   36   94 1    
    73   37   38 2    
    74   37   39 am   BACKBONE|DICT|INTERRES
    75   39   40 1    
    76   39   95 1    
    77   40   41 1    
    78   40   42 1    
    79   40   96 1    
    80   41   97 1    
    81   41   98 1    
    82   41   99 1    
    83   42   43 2    
    84   42   44 am   BACKBONE|DICT|INTERRES
    85   44   45 1    
    86   44  100 1    
    87   45   46 1    
    88   45   47 1    
    89   45  101 1    
    90   46  102 1    
    91   46  103 1    
    92   46  104 1    
    93   47   48 2    
    94   47   49 am   BACKBONE|DICT|INTERRES
    95   49   50 1    
    96   49  105 1    
    97   50   51 1    
    98   50   52 1    
    99   50  106 1    
   100   51  107 1    
   101   51  108 1    
   102   51  109 1    
   103   52   53 2    
   104   52   54 am   BACKBONE|DICT|INTERRES
   105   54   55 1    
   106   54  110 1    
   107   55   56 1    
   108   55   59 1    
   109   55  111 1    
   110   56   57 am   BACKBONE|DICT|INTERRES
   111   56   58 2    
   112   57  112 1    
   113   57  113 1    
   114   59   60 1    
   115   59  114 1    
   116   59  115 1    
   117   60   61 1    
   118   61  116 1    
   119   61  117 1    
@<TRIPOS>SUBSTRUCTURE
     1 UNK         1 GROUP             0       ****    0 ROOT    
