@<TRIPOS>MOLECULE
3R8
117   119    1
SMALL
USER_CHARGES


@<TRIPOS>ATOM
      1 CA         13.6277  -27.4192  -43.0461 C.3       0 UNK        -0.2013 
      2 C          14.2949  -26.5043  -44.0624 C.2       0 UNK         0.4866 
      3 O          13.6023  -25.8463  -44.8396 O.2       0 UNK        -0.5176 
      4 N          15.6307  -26.4620  -44.0556 N.am      1 UNK        -0.4884 
      5 CA         16.4662  -25.6088  -44.9079 C.3       1 UNK         0.0853 
      6 C6         17.2430  -26.4046  -46.0047 C.3       10 UNK        -0.0849 
      7 S7         16.2321  -27.6317  -46.9125 S.3       10 UNK        -0.2776 
      8 C8         17.3395  -29.0884  -47.0235 C.3       10 UNK         0.0316 
      9 C9         17.9873  -29.5120  -45.7044 C.ar      10 UNK        -0.0863 
     10 C10        19.3280  -29.9149  -45.6941 C.ar      10 UNK        -0.1009 
     11 C11        19.9563  -30.2715  -44.4971 C.ar      10 UNK        -0.0712 
     12 C12        19.2362  -30.2217  -43.3032 C.ar      10 UNK        -0.0894 
     13 C13        17.9099  -29.7912  -43.2924 C.ar      10 UNK        -0.0745 
     14 C14        17.2777  -29.4756  -44.4981 C.ar      10 UNK        -0.0972 
     15 C15        17.1857  -29.6032  -41.9711 C.3       10 UNK         0.0209 
     16 S16        17.3787  -27.8903  -41.3752 S.3       10 UNK        -0.2568 
     17 C17        19.0832  -27.8771  -40.7107 C.3       10 UNK        -0.0983 
     18 CA         20.1424  -27.2726  -41.6719 C.3       3 UNK         0.0876 
     19 N          19.7728  -25.9359  -42.1602 N.am      3 UNK        -0.4424 
     20 C          20.4366  -25.2402  -43.0956 C.2       2 UNK         0.4918 
     21 O          21.5280  -25.5819  -43.5518 O.2       2 UNK        -0.4875 
     22 CA         19.7251  -23.9928  -43.6549 C.3       2 UNK         0.0481 
     23 CB         20.6600  -23.1138  -44.5060 C.3       2 UNK        -0.1831 
     24 N          18.5870  -24.4189  -44.4728 N.am      2 UNK        -0.4498 
     25 C          17.4109  -24.8221  -43.9724 C.2       1 UNK         0.5027 
     26 O          17.1006  -24.6444  -42.7901 O.2       1 UNK        -0.4969 
     27 C          21.5475  -27.3441  -41.0367 C.2       3 UNK         0.5005 
     28 O          22.1840  -28.3962  -41.0968 O.2       3 UNK        -0.5279 
     29 N          22.0152  -26.2183  -40.4775 N.am      4 UNK        -0.4463 
     30 CA         23.3396  -26.0371  -39.8765 C.3       4 UNK         0.0283 
     31 CB         23.3395  -24.7274  -39.0698 C.3       4 UNK        -0.1875 
     32 C          24.5141  -26.0561  -40.8774 C.2       4 UNK         0.4949 
     33 O          25.6641  -26.0575  -40.4378 O.2       4 UNK        -0.5039 
     34 N          24.2340  -26.0732  -42.1904 N.am      5 UNK        -0.4663 
     35 CA         25.2357  -26.1992  -43.2577 C.3       5 UNK         0.0242 
     36 CB         24.5759  -25.8696  -44.6065 C.3       5 UNK        -0.1982 
     37 C          25.9186  -27.5818  -43.3179 C.2       5 UNK         0.5017 
     38 O          26.9506  -27.7117  -43.9777 O.2       5 UNK        -0.5012 
     39 N          25.3438  -28.5787  -42.6375 N.am      6 UNK        -0.4439 
     40 CA         25.8794  -29.9235  -42.4520 C.3       6 UNK         0.0297 
     41 CB         25.2843  -30.8582  -43.5236 C.3       6 UNK        -0.2006 
     42 C          25.5355  -30.3806  -41.0260 C.2       6 UNK         0.4892 
     43 O          24.9820  -29.6009  -40.2460 O.2       6 UNK        -0.5089 
     44 N          25.8186  -31.6504  -40.7060 N.am      7 UNK        -0.4243 
     45 CA         25.4267  -32.3083  -39.4517 C.3       7 UNK         0.0196 
     46 CB         26.3335  -33.5325  -39.2253 C.3       7 UNK        -0.2007 
     47 C          23.9260  -32.6728  -39.4492 C.2       7 UNK         0.5020 
     48 O          23.5712  -33.8477  -39.3351 O.2       7 UNK        -0.5147 
     49 N          23.0740  -31.6584  -39.6619 N.am      8 UNK        -0.4734 
     50 CA         21.6130  -31.7070  -39.8231 C.3       8 UNK         0.0238 
     51 CB         20.9389  -32.1034  -38.4933 C.3       8 UNK        -0.1912 
     52 C          21.1267  -32.5809  -40.9996 C.2       8 UNK         0.5038 
     53 O          19.9388  -32.9011  -41.0547 O.2       8 UNK        -0.5046 
     54 N          22.0421  -32.9544  -41.9075 N.am      9 UNK        -0.4200 
     55 CA         21.8514  -33.9472  -42.9778 C.3       9 UNK         0.0839 
     56 C          21.5048  -35.3757  -42.4489 C.2       9 UNK         0.5513 
     57 N          21.8934  -35.7314  -41.2283 N.am      9 UNK        -0.7519 
     58 O          20.9111  -36.1863  -43.1557 O.2       9 UNK        -0.4960 
     59 C59        20.9120  -33.4349  -44.1104 C.3       10 UNK        -0.0876 
     60 S60        21.7602  -32.2669  -45.2294 S.3       10 UNK        -0.2414 
     61 C61        21.4301  -30.6449  -44.4753 C.3       10 UNK         0.0169 
     62 H62        14.3520  -27.8850  -42.3783 H         1 UNK         0.0903 
     63 H63        12.9232  -26.8534  -42.4371 H         1 UNK         0.0903 
     64 H64        13.0793  -28.2099  -43.5573 H         1 UNK         0.0903 
     65 H65        16.1398  -26.9563  -43.3335 H         1 UNK         0.3096 
     66 H66        15.8433  -24.8622  -45.4051 H         1 UNK         0.1121 
     67 H67        18.1040  -26.9095  -45.5650 H         1 UNK         0.0849 
     68 H68        17.6513  -25.7170  -46.7472 H         1 UNK         0.0849 
     69 H69        16.7701  -29.9310  -47.4175 H         1 UNK         0.0865 
     70 H70        18.1087  -28.8666  -47.7650 H         1 UNK         0.0865 
     71 H71        19.8935  -29.9395  -46.6158 H         1 UNK         0.1346 
     72 H72        19.7240  -30.4642  -42.3707 H         1 UNK         0.1412 
     73 H73        16.2459  -29.1537  -44.4922 H         1 UNK         0.1426 
     74 H74        17.5515  -30.3071  -41.2216 H         1 UNK         0.0716 
     75 H75        16.1237  -29.8178  -42.0987 H         1 UNK         0.0716 
     76 H76        19.3578  -28.8954  -40.4296 H         1 UNK         0.0695 
     77 H77        19.0605  -27.3093  -39.7786 H         1 UNK         0.0695 
     78 H78        20.1936  -27.8984  -42.5620 H         1 UNK         0.0983 
     79 H79        18.8563  -25.6021  -41.8847 H         1 UNK         0.3095 
     80 H80        19.3758  -23.3924  -42.8123 H         1 UNK         0.0454 
     81 H81        20.1490  -22.2181  -44.8589 H         1 UNK         0.0851 
     82 H82        21.0411  -23.6476  -45.3775 H         1 UNK         0.0851 
     83 H83        21.5222  -22.7860  -43.9237 H         1 UNK         0.0851 
     84 H84        18.7864  -24.5993  -45.4462 H         1 UNK         0.2976 
     85 H85        21.4154  -25.4060  -40.4961 H         1 UNK         0.3116 
     86 H86        23.5043  -26.8652  -39.1836 H         1 UNK         0.0646 
     87 H87        23.1741  -23.8595  -39.7093 H         1 UNK         0.0847 
     88 H88        24.2939  -24.5793  -38.5624 H         1 UNK         0.0847 
     89 H89        22.5669  -24.7328  -38.3008 H         1 UNK         0.0847 
     90 H90        23.2639  -26.0376  -42.4866 H         1 UNK         0.3040 
     91 H91        26.0207  -25.4629  -43.0715 H         1 UNK         0.1015 
     92 H92        23.7848  -26.5800  -44.8508 H         1 UNK         0.0786 
     93 H93        25.3043  -25.9002  -45.4180 H         1 UNK         0.0786 
     94 H94        24.1386  -24.8708  -44.6020 H         1 UNK         0.0786 
     95 H95        24.5420  -28.3648  -42.0535 H         1 UNK         0.3172 
     96 H96        26.9674  -29.9065  -42.5413 H         1 UNK         0.0595 
     97 H97        24.2088  -30.9803  -43.3981 H         1 UNK         0.0839 
     98 H98        25.7344  -31.8505  -43.4871 H         1 UNK         0.0839 
     99 H99        25.4577  -30.4697  -44.5274 H         1 UNK         0.0839 
    100 H100       26.2694  -32.2350  -41.3953 H         1 UNK         0.2998 
    101 H101       25.5908  -31.6158  -38.6230 H         1 UNK         0.0822 
    102 H102       27.3840  -33.2448  -39.1777 H         1 UNK         0.0787 
    103 H103       26.0926  -34.0279  -38.2837 H         1 UNK         0.0787 
    104 H104       26.2228  -34.2713  -40.0202 H         1 UNK         0.0787 
    105 H105       23.4935  -30.7382  -39.7857 H         1 UNK         0.3055 
    106 H106       21.3002  -30.6898  -40.0617 H         1 UNK         0.1106 
    107 H107       19.8543  -32.0075  -38.5575 H         1 UNK         0.0828 
    108 H108       21.1578  -33.1366  -38.2219 H         1 UNK         0.0828 
    109 H109       21.2693  -31.4637  -37.6750 H         1 UNK         0.0828 
    110 H110       22.9919  -32.6518  -41.7581 H         1 UNK         0.2931 
    111 H111       22.8401  -34.0828  -43.4179 H         1 UNK         0.0412 
    112 H112       21.6793  -36.6576  -40.8938 H         1 UNK         0.3472 
    113 H113       22.4016  -35.0857  -40.6352 H         1 UNK         0.3472 
    114 H114       20.5798  -34.2571  -44.7457 H         1 UNK         0.0970 
    115 H115       19.9990  -32.9943  -43.7098 H         1 UNK         0.0970 
    116 H116       21.8176  -30.6313  -43.4561 H         1 UNK         0.0612 
    117 H117       21.9955  -29.8873  -45.0199 H         1 UNK         0.0612 
@<TRIPOS>BOND
     1    1    2 1    
     2    1   62 1    
     3    1   63 1    
     4    1   64 1    
     5    2    3 2    
     6    2    4 am   BACKBONE|DICT|INTERRES
     7    4    5 1    
     8    4   65 1    
     9    5    6 1    
    10    5   25 1    
    11    5   66 1    
    12    6    7 1    
    13    6   67 1    
    14    6   68 1    
    15    7    8 1    
    16    8    9 1    
    17    8   69 1    
    18    8   70 1    
    19    9   10 ar   
    20    9   14 ar   
    21   10   11 ar   
    22   10   71 1    
    23   11   12 ar   
    24   11   61 1    
    25   12   13 ar   
    26   12   72 1    
    27   13   14 ar   
    28   13   15 1    
    29   14   73 1    
    30   15   16 1    
    31   15   74 1    
    32   15   75 1    
    33   16   17 1    
    34   17   18 1    
    35   17   76 1    
    36   17   77 1    
    37   18   19 1    
    38   18   27 1    
    39   18   78 1    
    40   19   20 am   BACKBONE|DICT|INTERRES
    41   19   79 1    
    42   20   21 2    
    43   20   22 1    
    44   22   23 1    
    45   22   24 1    
    46   22   80 1    
    47   23   81 1    
    48   23   82 1    
    49   23   83 1    
    50   24   25 am   BACKBONE|DICT|INTERRES
    51   24   84 1    
    52   25   26 2    
    53   27   28 2    
    54   27   29 am   BACKBONE|DICT|INTERRES
    55   29   30 1    
    56   29   85 1    
    57   30   31 1    
    58   30   32 1    
    59   30   86 1    
    60   31   87 1    
    61   31   88 1    
    62   31   89 1    
    63   32   33 2    
    64   32   34 am   BACKBONE|DICT|INTERRES
    65   34   35 1    
    66   34   90 1    
    67   35   36 1    
    68   35   37 1    
    69   35   91 1    
    70   36   92 1    
    71   36   93 1    
    72   36   94 1    
    73   37   38 2    
    74   37   39 am   BACKBONE|DICT|INTERRES
    75   39   40 1    
    76   39   95 1    
    77   40   41 1    
    78   40   42 1    
    79   40   96 1    
    80   41   97 1    
    81   41   98 1    
    82   41   99 1    
    83   42   43 2    
    84   42   44 am   BACKBONE|DICT|INTERRES
    85   44   45 1    
    86   44  100 1    
    87   45   46 1    
    88   45   47 1    
    89   45  101 1    
    90   46  102 1    
    91   46  103 1    
    92   46  104 1    
    93   47   48 2    
    94   47   49 am   BACKBONE|DICT|INTERRES
    95   49   50 1    
    96   49  105 1    
    97   50   51 1    
    98   50   52 1    
    99   50  106 1    
   100   51  107 1    
   101   51  108 1    
   102   51  109 1    
   103   52   53 2    
   104   52   54 am   BACKBONE|DICT|INTERRES
   105   54   55 1    
   106   54  110 1    
   107   55   56 1    
   108   55   59 1    
   109   55  111 1    
   110   56   57 am   BACKBONE|DICT|INTERRES
   111   56   58 2    
   112   57  112 1    
   113   57  113 1    
   114   59   60 1    
   115   59  114 1    
   116   59  115 1    
   117   60   61 1    
   118   61  116 1    
   119   61  117 1    
@<TRIPOS>SUBSTRUCTURE
     1 UNK         1 GROUP             0       ****    0 ROOT    
