@<TRIPOS>MOLECULE
3R8
117   119    1
SMALL
USER_CHARGES


@<TRIPOS>ATOM
      1 CA         17.5361  -24.8436  -42.4629 C.3       0 UNK        -0.2013 
      2 C          17.7441  -23.8231  -43.5791 C.2       0 UNK         0.4866 
      3 O          17.6035  -22.6282  -43.3249 O.2       0 UNK        -0.5176 
      4 N          18.0531  -24.2142  -44.8250 N.am      1 UNK        -0.4884 
      5 CA         18.3234  -25.5647  -45.3394 C.3       1 UNK         0.0853 
      6 C6         17.1438  -26.5572  -45.1285 C.3       10 UNK        -0.0849 
      7 S7         17.0161  -27.7915  -46.4636 S.3       10 UNK        -0.2776 
      8 C8         15.7227  -28.8790  -45.7942 C.3       10 UNK         0.0316 
      9 C9         16.2962  -29.9792  -44.9115 C.ar      10 UNK        -0.0863 
     10 C10        16.6508  -31.2068  -45.4797 C.ar      10 UNK        -0.1009 
     11 C11        17.0800  -32.2681  -44.6775 C.ar      10 UNK        -0.0712 
     12 C12        17.1753  -32.0823  -43.2943 C.ar      10 UNK        -0.0894 
     13 C13        16.8435  -30.8531  -42.7139 C.ar      10 UNK        -0.0745 
     14 C14        16.4055  -29.8034  -43.5276 C.ar      10 UNK        -0.0972 
     15 C15        16.8841  -30.6972  -41.2003 C.3       10 UNK         0.0209 
     16 S16        18.5855  -30.5854  -40.5657 S.3       10 UNK        -0.2568 
     17 C17        18.8282  -28.7911  -40.3481 C.3       10 UNK        -0.0983 
     18 CA         20.2015  -28.3379  -40.8969 C.3       3 UNK         0.0876 
     19 N          20.2267  -28.3569  -42.3620 N.am      3 UNK        -0.4424 
     20 C          21.3278  -28.2031  -43.1087 C.2       2 UNK         0.4918 
     21 O          22.4621  -28.1194  -42.6432 O.2       2 UNK        -0.4875 
     22 CA         21.1307  -28.1217  -44.6312 C.3       2 UNK         0.0481 
     23 CB         21.1227  -29.5280  -45.2453 C.3       2 UNK        -0.1831 
     24 N          19.9031  -27.4205  -45.0127 N.am      2 UNK        -0.4498 
     25 C          19.6993  -26.1026  -44.8804 C.2       1 UNK         0.5027 
     26 O          20.5502  -25.3233  -44.4468 O.2       1 UNK        -0.4969 
     27 C          20.5873  -26.9472  -40.3539 C.2       3 UNK         0.5005 
     28 O          20.2739  -25.9343  -40.9817 O.2       3 UNK        -0.5279 
     29 N          21.2800  -26.9259  -39.2063 N.am      4 UNK        -0.4463 
     30 CA         21.8425  -25.7650  -38.4962 C.3       4 UNK         0.0283 
     31 CB         20.7610  -24.7319  -38.1220 C.3       4 UNK        -0.1875 
     32 C          23.0291  -25.0983  -39.2180 C.2       4 UNK         0.4949 
     33 O          24.0038  -24.7398  -38.5569 O.2       4 UNK        -0.5039 
     34 N          22.9522  -24.9688  -40.5488 N.am      5 UNK        -0.4663 
     35 CA         24.0447  -24.5217  -41.4183 C.3       5 UNK         0.0242 
     36 CB         23.4868  -24.2415  -42.8223 C.3       5 UNK        -0.1982 
     37 C          25.1946  -25.5429  -41.4924 C.2       5 UNK         0.5017 
     38 O          26.3538  -25.1469  -41.6189 O.2       5 UNK        -0.5012 
     39 N          24.8483  -26.8295  -41.3966 N.am      6 UNK        -0.4439 
     40 CA         25.7414  -27.9782  -41.3340 C.3       6 UNK         0.0297 
     41 CB         26.0022  -28.4971  -42.7613 C.3       6 UNK        -0.2006 
     42 C          25.0855  -29.0477  -40.4470 C.2       6 UNK         0.4892 
     43 O          23.9715  -28.8477  -39.9488 O.2       6 UNK        -0.5089 
     44 N          25.7749  -30.1829  -40.2763 N.am      7 UNK        -0.4243 
     45 CA         25.3073  -31.3606  -39.5367 C.3       7 UNK         0.0196 
     46 CB         26.5271  -32.2129  -39.1376 C.3       7 UNK        -0.2007 
     47 C          24.2506  -32.1644  -40.3262 C.2       7 UNK         0.5020 
     48 O          24.4521  -33.3490  -40.6002 O.2       7 UNK        -0.5147 
     49 N          23.1477  -31.4889  -40.6750 N.am      8 UNK        -0.4734 
     50 CA         22.0115  -31.9502  -41.4803 C.3       8 UNK         0.0238 
     51 CB         21.2913  -33.1313  -40.7900 C.3       8 UNK        -0.1912 
     52 C          22.3788  -32.2441  -42.9479 C.2       8 UNK         0.5038 
     53 O          23.4855  -31.9374  -43.3968 O.2       8 UNK        -0.5046 
     54 N          21.4088  -32.7978  -43.6825 N.am      9 UNK        -0.4200 
     55 CA         21.5182  -33.2048  -45.0912 C.3       9 UNK         0.0839 
     56 C          22.3666  -34.4861  -45.3497 C.2       9 UNK         0.5513 
     57 N          22.8236  -35.2054  -44.3316 N.am      9 UNK        -0.7519 
     58 O          22.6252  -34.8263  -46.5014 O.2       9 UNK        -0.4960 
     59 C59        20.1169  -33.2839  -45.7551 C.3       10 UNK        -0.0876 
     60 S60        18.9523  -34.3582  -44.8446 S.3       10 UNK        -0.2414 
     61 C61        17.3466  -33.6334  -45.3054 C.3       10 UNK         0.0169 
     62 H62        16.5109  -25.2120  -42.4714 H         1 UNK         0.0903 
     63 H63        18.2136  -25.6899  -42.5410 H         1 UNK         0.0903 
     64 H64        17.7189  -24.3815  -41.4928 H         1 UNK         0.0903 
     65 H65        18.1989  -23.4846  -45.5092 H         1 UNK         0.3096 
     66 H66        18.4349  -25.4124  -46.4147 H         1 UNK         0.1121 
     67 H67        16.1979  -26.0127  -45.1149 H         1 UNK         0.0849 
     68 H68        17.2109  -27.0642  -44.1660 H         1 UNK         0.0849 
     69 H69        14.9849  -28.2922  -45.2446 H         1 UNK         0.0865 
     70 H70        15.1805  -29.3257  -46.6293 H         1 UNK         0.0865 
     71 H71        16.5501  -31.3479  -46.5474 H         1 UNK         0.1346 
     72 H72        17.4834  -32.9049  -42.6634 H         1 UNK         0.1412 
     73 H73        16.1106  -28.8651  -43.0785 H         1 UNK         0.1426 
     74 H74        16.4062  -31.5662  -40.7456 H         1 UNK         0.0716 
     75 H75        16.2998  -29.8351  -40.8753 H         1 UNK         0.0716 
     76 H76        18.7474  -28.5891  -39.2780 H         1 UNK         0.0695 
     77 H77        18.0205  -28.2330  -40.8254 H         1 UNK         0.0695 
     78 H78        20.9655  -29.0343  -40.5461 H         1 UNK         0.0983 
     79 H79        19.3331  -28.4142  -42.8238 H         1 UNK         0.3095 
     80 H80        21.9780  -27.5735  -45.0488 H         1 UNK         0.0454 
     81 H81        21.0084  -29.4918  -46.3287 H         1 UNK         0.0851 
     82 H82        20.3162  -30.1406  -44.8403 H         1 UNK         0.0851 
     83 H83        22.0633  -30.0391  -45.0384 H         1 UNK         0.0851 
     84 H84        19.1591  -27.9775  -45.4148 H         1 UNK         0.2976 
     85 H85        21.5319  -27.8175  -38.8001 H         1 UNK         0.3116 
     86 H86        22.2386  -26.1671  -37.5622 H         1 UNK         0.0646 
     87 H87        20.3415  -24.2381  -38.9988 H         1 UNK         0.0847 
     88 H88        19.9414  -25.1954  -37.5731 H         1 UNK         0.0847 
     89 H89        21.1776  -23.9512  -37.4844 H         1 UNK         0.0847 
     90 H90        22.0848  -25.2574  -40.9948 H         1 UNK         0.3040 
     91 H91        24.4489  -23.5926  -41.0107 H         1 UNK         0.1015 
     92 H92        24.2685  -23.8720  -43.4873 H         1 UNK         0.0786 
     93 H93        22.6992  -23.4882  -42.7957 H         1 UNK         0.0786 
     94 H94        23.0705  -25.1425  -43.2759 H         1 UNK         0.0786 
     95 H95        23.8676  -27.0708  -41.2952 H         1 UNK         0.3172 
     96 H96        26.6842  -27.6850  -40.8678 H         1 UNK         0.0595 
     97 H97        25.0869  -28.8683  -43.2254 H         1 UNK         0.0839 
     98 H98        26.7247  -29.3135  -42.7656 H         1 UNK         0.0839 
     99 H99        26.4045  -27.7118  -43.4013 H         1 UNK         0.0839 
    100 H100       26.6665  -30.2769  -40.7408 H         1 UNK         0.2998 
    101 H101       24.8268  -31.0225  -38.6157 H         1 UNK         0.0822 
    102 H102       26.2228  -33.0782  -38.5470 H         1 UNK         0.0787 
    103 H103       27.0628  -32.5860  -40.0115 H         1 UNK         0.0787 
    104 H104       27.2298  -31.6412  -38.5309 H         1 UNK         0.0787 
    105 H105       23.1493  -30.4987  -40.4425 H         1 UNK         0.3055 
    106 H106       21.3168  -31.1130  -41.5197 H         1 UNK         0.1106 
    107 H107       21.0966  -32.9125  -39.7400 H         1 UNK         0.0828 
    108 H108       20.3236  -33.3366  -41.2488 H         1 UNK         0.0828 
    109 H109       21.8769  -34.0499  -40.8354 H         1 UNK         0.0828 
    110 H110       20.5289  -33.0265  -43.2438 H         1 UNK         0.2931 
    111 H111       22.0591  -32.4095  -45.6068 H         1 UNK         0.0412 
    112 H112       23.3754  -36.0284  -44.5165 H         1 UNK         0.3472 
    113 H113       22.6331  -34.9276  -43.3826 H         1 UNK         0.3472 
    114 H114       20.1872  -33.6292  -46.7883 H         1 UNK         0.0970 
    115 H115       19.6926  -32.2811  -45.8138 H         1 UNK         0.0970 
    116 H116       17.2875  -33.5820  -46.3937 H         1 UNK         0.0612 
    117 H117       16.5575  -34.3163  -44.9885 H         1 UNK         0.0612 
@<TRIPOS>BOND
     1    1    2 1    
     2    1   62 1    
     3    1   63 1    
     4    1   64 1    
     5    2    3 2    
     6    2    4 am   BACKBONE|DICT|INTERRES
     7    4    5 1    
     8    4   65 1    
     9    5    6 1    
    10    5   25 1    
    11    5   66 1    
    12    6    7 1    
    13    6   67 1    
    14    6   68 1    
    15    7    8 1    
    16    8    9 1    
    17    8   69 1    
    18    8   70 1    
    19    9   10 ar   
    20    9   14 ar   
    21   10   11 ar   
    22   10   71 1    
    23   11   12 ar   
    24   11   61 1    
    25   12   13 ar   
    26   12   72 1    
    27   13   14 ar   
    28   13   15 1    
    29   14   73 1    
    30   15   16 1    
    31   15   74 1    
    32   15   75 1    
    33   16   17 1    
    34   17   18 1    
    35   17   76 1    
    36   17   77 1    
    37   18   19 1    
    38   18   27 1    
    39   18   78 1    
    40   19   20 am   BACKBONE|DICT|INTERRES
    41   19   79 1    
    42   20   21 2    
    43   20   22 1    
    44   22   23 1    
    45   22   24 1    
    46   22   80 1    
    47   23   81 1    
    48   23   82 1    
    49   23   83 1    
    50   24   25 am   BACKBONE|DICT|INTERRES
    51   24   84 1    
    52   25   26 2    
    53   27   28 2    
    54   27   29 am   BACKBONE|DICT|INTERRES
    55   29   30 1    
    56   29   85 1    
    57   30   31 1    
    58   30   32 1    
    59   30   86 1    
    60   31   87 1    
    61   31   88 1    
    62   31   89 1    
    63   32   33 2    
    64   32   34 am   BACKBONE|DICT|INTERRES
    65   34   35 1    
    66   34   90 1    
    67   35   36 1    
    68   35   37 1    
    69   35   91 1    
    70   36   92 1    
    71   36   93 1    
    72   36   94 1    
    73   37   38 2    
    74   37   39 am   BACKBONE|DICT|INTERRES
    75   39   40 1    
    76   39   95 1    
    77   40   41 1    
    78   40   42 1    
    79   40   96 1    
    80   41   97 1    
    81   41   98 1    
    82   41   99 1    
    83   42   43 2    
    84   42   44 am   BACKBONE|DICT|INTERRES
    85   44   45 1    
    86   44  100 1    
    87   45   46 1    
    88   45   47 1    
    89   45  101 1    
    90   46  102 1    
    91   46  103 1    
    92   46  104 1    
    93   47   48 2    
    94   47   49 am   BACKBONE|DICT|INTERRES
    95   49   50 1    
    96   49  105 1    
    97   50   51 1    
    98   50   52 1    
    99   50  106 1    
   100   51  107 1    
   101   51  108 1    
   102   51  109 1    
   103   52   53 2    
   104   52   54 am   BACKBONE|DICT|INTERRES
   105   54   55 1    
   106   54  110 1    
   107   55   56 1    
   108   55   59 1    
   109   55  111 1    
   110   56   57 am   BACKBONE|DICT|INTERRES
   111   56   58 2    
   112   57  112 1    
   113   57  113 1    
   114   59   60 1    
   115   59  114 1    
   116   59  115 1    
   117   60   61 1    
   118   61  116 1    
   119   61  117 1    
@<TRIPOS>SUBSTRUCTURE
     1 UNK         1 GROUP             0       ****    0 ROOT    
