@<TRIPOS>MOLECULE
3R8
117   119    1
SMALL
USER_CHARGES


@<TRIPOS>ATOM
      1 CA         18.5115  -22.5534  -47.8826 C.3       0 UNK        -0.2013 
      2 C          18.8838  -24.0281  -47.9225 C.2       0 UNK         0.4866 
      3 O          19.0458  -24.5900  -49.0060 O.2       0 UNK        -0.5176 
      4 N          19.0235  -24.6568  -46.7518 N.am      1 UNK        -0.4884 
      5 CA         19.4238  -26.0517  -46.5719 C.3       1 UNK         0.0853 
      6 C6         18.2805  -27.0493  -46.9024 C.3       10 UNK        -0.0849 
      7 S7         18.9019  -28.7025  -47.3773 S.3       10 UNK        -0.2776 
      8 C8         17.4768  -29.7700  -46.9957 C.3       10 UNK         0.0316 
      9 C9         17.3145  -29.9954  -45.4993 C.ar      10 UNK        -0.0863 
     10 C10        18.0202  -31.0174  -44.8559 C.ar      10 UNK        -0.1009 
     11 C11        17.8516  -31.2410  -43.4852 C.ar      10 UNK        -0.0712 
     12 C12        16.9605  -30.4399  -42.7647 C.ar      10 UNK        -0.0894 
     13 C13        16.3071  -29.3686  -43.3809 C.ar      10 UNK        -0.0745 
     14 C14        16.4567  -29.1804  -44.7563 C.ar      10 UNK        -0.0972 
     15 C15        15.4667  -28.3870  -42.5723 C.3       10 UNK         0.0209 
     16 S16        16.2216  -26.7181  -42.5509 S.3       10 UNK        -0.2568 
     17 C17        17.2727  -26.6850  -41.0501 C.3       10 UNK        -0.0983 
     18 CA         18.2419  -27.8844  -40.8996 C.3       3 UNK         0.0876 
     19 N          19.1346  -28.0558  -42.0590 N.am      3 UNK        -0.4424 
     20 C          20.3203  -27.4663  -42.2721 C.2       2 UNK         0.4918 
     21 O          20.8597  -26.6843  -41.4905 O.2       2 UNK        -0.4875 
     22 CA         21.0506  -27.8472  -43.5695 C.3       2 UNK         0.0481 
     23 CB         21.3396  -29.3546  -43.6226 C.3       2 UNK        -0.1831 
     24 N          20.3571  -27.4524  -44.7953 N.am      2 UNK        -0.4498 
     25 C          19.9982  -26.2120  -45.1486 C.2       1 UNK         0.5027 
     26 O          20.1336  -25.2185  -44.4280 O.2       1 UNK        -0.4969 
     27 C          18.9736  -27.9357  -39.5390 C.2       3 UNK         0.5005 
     28 O          18.7961  -27.0541  -38.6965 O.2       3 UNK        -0.5279 
     29 N          19.7960  -28.9831  -39.3765 N.am      4 UNK        -0.4463 
     30 CA         20.6057  -29.3353  -38.2053 C.3       4 UNK         0.0283 
     31 CB         19.7250  -29.5259  -36.9519 C.3       4 UNK        -0.1875 
     32 C          21.8118  -28.4138  -37.9305 C.2       4 UNK         0.4949 
     33 O          22.4854  -28.6217  -36.9200 O.2       4 UNK        -0.5039 
     34 N          22.0870  -27.4275  -38.7975 N.am      5 UNK        -0.4663 
     35 CA         23.2023  -26.4927  -38.6231 C.3       5 UNK         0.0242 
     36 CB         22.9336  -25.1980  -39.4078 C.3       5 UNK        -0.1982 
     37 C          24.5540  -27.1028  -39.0258 C.2       5 UNK         0.5017 
     38 O          25.5182  -26.9758  -38.2699 O.2       5 UNK        -0.5012 
     39 N          24.6028  -27.7357  -40.2040 N.am      6 UNK        -0.4439 
     40 CA         25.7876  -28.3072  -40.8451 C.3       6 UNK         0.0297 
     41 CB         26.8182  -27.2021  -41.1728 C.3       6 UNK        -0.2006 
     42 C          25.3506  -29.0200  -42.1331 C.2       6 UNK         0.4892 
     43 O          24.1970  -28.8813  -42.5419 O.2       6 UNK        -0.5089 
     44 N          26.2960  -29.7242  -42.7705 N.am      7 UNK        -0.4243 
     45 CA         26.1605  -30.4418  -44.0429 C.3       7 UNK         0.0196 
     46 CB         25.7735  -29.4890  -45.2004 C.3       7 UNK        -0.2007 
     47 C          25.2625  -31.6848  -43.9094 C.2       7 UNK         0.5020 
     48 O          25.6635  -32.6310  -43.2311 O.2       7 UNK        -0.5147 
     49 N          24.1019  -31.6894  -44.5817 N.am      8 UNK        -0.4734 
     50 CA         23.1993  -32.8414  -44.7273 C.3       8 UNK         0.0238 
     51 CB         22.0775  -32.4893  -45.7201 C.3       8 UNK        -0.1912 
     52 C          22.6017  -33.3914  -43.4185 C.2       8 UNK         0.5038 
     53 O          22.1810  -34.5492  -43.4000 O.2       8 UNK        -0.5046 
     54 N          22.5779  -32.5780  -42.3599 N.am      9 UNK        -0.4200 
     55 CA         22.1426  -32.9541  -41.0128 C.3       9 UNK         0.0839 
     56 C          22.7530  -32.0001  -39.9571 C.2       9 UNK         0.5513 
     57 N          22.8736  -32.4477  -38.7150 N.am      9 UNK        -0.7519 
     58 O          23.0962  -30.8560  -40.2430 O.2       9 UNK        -0.4960 
     59 C59        20.5998  -33.1053  -40.8808 C.3       10 UNK        -0.0876 
     60 S60        19.6533  -31.6392  -41.4193 S.3       10 UNK        -0.2414 
     61 C61        18.6460  -32.3289  -42.7738 C.3       10 UNK         0.0169 
     62 H62        18.3960  -22.1894  -46.8618 H         1 UNK         0.0903 
     63 H63        19.2832  -21.9580  -48.3697 H         1 UNK         0.0903 
     64 H64        17.5714  -22.3896  -48.4089 H         1 UNK         0.0903 
     65 H65        18.9532  -24.1459  -45.8789 H         1 UNK         0.3096 
     66 H66        20.2568  -26.2318  -47.2559 H         1 UNK         0.1121 
     67 H67        17.5847  -27.1110  -46.0676 H         1 UNK         0.0849 
     68 H68        17.6920  -26.6877  -47.7468 H         1 UNK         0.0849 
     69 H69        17.6140  -30.7301  -47.4956 H         1 UNK         0.0865 
     70 H70        16.5699  -29.3369  -47.4209 H         1 UNK         0.0865 
     71 H71        18.7009  -31.6366  -45.4243 H         1 UNK         0.1346 
     72 H72        16.8196  -30.6287  -41.7096 H         1 UNK         0.1412 
     73 H73        15.9185  -28.3771  -45.2404 H         1 UNK         0.1426 
     74 H74        15.3055  -28.7391  -41.5525 H         1 UNK         0.0716 
     75 H75        14.4783  -28.3154  -43.0283 H         1 UNK         0.0716 
     76 H76        16.6035  -26.6272  -40.1896 H         1 UNK         0.0695 
     77 H77        17.8382  -25.7515  -41.0574 H         1 UNK         0.0695 
     78 H78        17.6217  -28.7728  -40.8536 H         1 UNK         0.0983 
     79 H79        18.7832  -28.6747  -42.7770 H         1 UNK         0.3095 
     80 H80        22.0109  -27.3276  -43.5597 H         1 UNK         0.0454 
     81 H81        22.0869  -29.5756  -44.3828 H         1 UNK         0.0851 
     82 H82        20.4478  -29.9372  -43.8463 H         1 UNK         0.0851 
     83 H83        21.7326  -29.7144  -42.6710 H         1 UNK         0.0851 
     84 H84        20.1624  -28.1914  -45.4590 H         1 UNK         0.2976 
     85 H85        19.8788  -29.6298  -40.1521 H         1 UNK         0.3116 
     86 H86        21.0289  -30.3107  -38.4368 H         1 UNK         0.0646 
     87 H87        20.3001  -29.9583  -36.1323 H         1 UNK         0.0847 
     88 H88        18.8920  -30.2004  -37.1495 H         1 UNK         0.0847 
     89 H89        19.3167  -28.5808  -36.5933 H         1 UNK         0.0847 
     90 H90        21.4992  -27.2986  -39.6147 H         1 UNK         0.3040 
     91 H91        23.2642  -26.2252  -37.5655 H         1 UNK         0.1015 
     92 H92        21.9796  -24.7525  -39.1251 H         1 UNK         0.0786 
     93 H93        22.9173  -25.3689  -40.4846 H         1 UNK         0.0786 
     94 H94        23.7098  -24.4575  -39.2105 H         1 UNK         0.0786 
     95 H95        23.7560  -27.8535  -40.7496 H         1 UNK         0.3172 
     96 H96        26.2280  -29.0453  -40.1722 H         1 UNK         0.0595 
     97 H97        26.3877  -26.4338  -41.8164 H         1 UNK         0.0839 
     98 H98        27.6897  -27.6061  -41.6887 H         1 UNK         0.0839 
     99 H99        27.1917  -26.7120  -40.2743 H         1 UNK         0.0839 
    100 H100       27.2030  -29.8005  -42.3313 H         1 UNK         0.2998 
    101 H101       27.1557  -30.8257  -44.2735 H         1 UNK         0.0822 
    102 H102       26.4964  -28.6784  -45.2933 H         1 UNK         0.0787 
    103 H103       25.7647  -30.0164  -46.1553 H         1 UNK         0.0787 
    104 H104       24.7915  -29.0351  -45.0657 H         1 UNK         0.0787 
    105 H105       23.8615  -30.8576  -45.1006 H         1 UNK         0.3055 
    106 H106       23.7887  -33.6528  -45.1602 H         1 UNK         0.1106 
    107 H107       22.4791  -32.1708  -46.6821 H         1 UNK         0.0828 
    108 H108       21.4415  -33.3552  -45.9100 H         1 UNK         0.0828 
    109 H109       21.4327  -31.6963  -45.3434 H         1 UNK         0.0828 
    110 H110       22.9728  -31.6492  -42.4327 H         1 UNK         0.2931 
    111 H111       22.5843  -33.9321  -40.8098 H         1 UNK         0.0412 
    112 H112       22.5973  -33.3847  -38.4657 H         1 UNK         0.3472 
    113 H113       23.2681  -31.8397  -38.0147 H         1 UNK         0.3472 
    114 H114       20.2740  -33.9729  -41.4560 H         1 UNK         0.0970 
    115 H115       20.3243  -33.3302  -39.8490 H         1 UNK         0.0970 
    116 H116       19.3031  -32.8464  -43.4749 H         1 UNK         0.0612 
    117 H117       17.9590  -33.0749  -42.3721 H         1 UNK         0.0612 
@<TRIPOS>BOND
     1    1    2 1    
     2    1   62 1    
     3    1   63 1    
     4    1   64 1    
     5    2    3 2    
     6    2    4 am   BACKBONE|DICT|INTERRES
     7    4    5 1    
     8    4   65 1    
     9    5    6 1    
    10    5   25 1    
    11    5   66 1    
    12    6    7 1    
    13    6   67 1    
    14    6   68 1    
    15    7    8 1    
    16    8    9 1    
    17    8   69 1    
    18    8   70 1    
    19    9   10 ar   
    20    9   14 ar   
    21   10   11 ar   
    22   10   71 1    
    23   11   12 ar   
    24   11   61 1    
    25   12   13 ar   
    26   12   72 1    
    27   13   14 ar   
    28   13   15 1    
    29   14   73 1    
    30   15   16 1    
    31   15   74 1    
    32   15   75 1    
    33   16   17 1    
    34   17   18 1    
    35   17   76 1    
    36   17   77 1    
    37   18   19 1    
    38   18   27 1    
    39   18   78 1    
    40   19   20 am   BACKBONE|DICT|INTERRES
    41   19   79 1    
    42   20   21 2    
    43   20   22 1    
    44   22   23 1    
    45   22   24 1    
    46   22   80 1    
    47   23   81 1    
    48   23   82 1    
    49   23   83 1    
    50   24   25 am   BACKBONE|DICT|INTERRES
    51   24   84 1    
    52   25   26 2    
    53   27   28 2    
    54   27   29 am   BACKBONE|DICT|INTERRES
    55   29   30 1    
    56   29   85 1    
    57   30   31 1    
    58   30   32 1    
    59   30   86 1    
    60   31   87 1    
    61   31   88 1    
    62   31   89 1    
    63   32   33 2    
    64   32   34 am   BACKBONE|DICT|INTERRES
    65   34   35 1    
    66   34   90 1    
    67   35   36 1    
    68   35   37 1    
    69   35   91 1    
    70   36   92 1    
    71   36   93 1    
    72   36   94 1    
    73   37   38 2    
    74   37   39 am   BACKBONE|DICT|INTERRES
    75   39   40 1    
    76   39   95 1    
    77   40   41 1    
    78   40   42 1    
    79   40   96 1    
    80   41   97 1    
    81   41   98 1    
    82   41   99 1    
    83   42   43 2    
    84   42   44 am   BACKBONE|DICT|INTERRES
    85   44   45 1    
    86   44  100 1    
    87   45   46 1    
    88   45   47 1    
    89   45  101 1    
    90   46  102 1    
    91   46  103 1    
    92   46  104 1    
    93   47   48 2    
    94   47   49 am   BACKBONE|DICT|INTERRES
    95   49   50 1    
    96   49  105 1    
    97   50   51 1    
    98   50   52 1    
    99   50  106 1    
   100   51  107 1    
   101   51  108 1    
   102   51  109 1    
   103   52   53 2    
   104   52   54 am   BACKBONE|DICT|INTERRES
   105   54   55 1    
   106   54  110 1    
   107   55   56 1    
   108   55   59 1    
   109   55  111 1    
   110   56   57 am   BACKBONE|DICT|INTERRES
   111   56   58 2    
   112   57  112 1    
   113   57  113 1    
   114   59   60 1    
   115   59  114 1    
   116   59  115 1    
   117   60   61 1    
   118   61  116 1    
   119   61  117 1    
@<TRIPOS>SUBSTRUCTURE
     1 UNK         1 GROUP             0       ****    0 ROOT    
