@<TRIPOS>MOLECULE
3R8
117   119    1
SMALL
USER_CHARGES


@<TRIPOS>ATOM
      1 CA         15.5126  -26.3118  -45.8091 C.3       0 UNK        -0.2013 
      2 C          14.9204  -26.2150  -44.4062 C.2       0 UNK         0.4866 
      3 O          14.1180  -25.3187  -44.1525 O.2       0 UNK        -0.5176 
      4 N          15.2767  -27.0939  -43.4612 N.am      1 UNK        -0.4884 
      5 CA         16.2365  -28.1941  -43.5787 C.3       1 UNK         0.0853 
      6 C6         15.5466  -29.5835  -43.5347 C.3       10 UNK        -0.0849 
      7 S7         14.8165  -30.0027  -45.1515 S.3       10 UNK        -0.2776 
      8 C8         16.0931  -31.1002  -45.8583 C.3       10 UNK         0.0316 
      9 C9         17.4778  -30.4606  -45.8728 C.ar      10 UNK        -0.0863 
     10 C10        18.4865  -30.9465  -45.0330 C.ar      10 UNK        -0.1009 
     11 C11        19.7591  -30.3691  -45.0476 C.ar      10 UNK        -0.0712 
     12 C12        20.0193  -29.3014  -45.9072 C.ar      10 UNK        -0.0894 
     13 C13        19.0190  -28.7927  -46.7407 C.ar      10 UNK        -0.0745 
     14 C14        17.7519  -29.3861  -46.7266 C.ar      10 UNK        -0.0972 
     15 C15        19.3120  -27.6303  -47.6813 C.3       10 UNK         0.0209 
     16 S16        19.4364  -26.0341  -46.8064 S.3       10 UNK        -0.2568 
     17 C17        21.1969  -26.0096  -46.3143 C.3       10 UNK        -0.0983 
     18 CA         21.4342  -25.6336  -44.8275 C.3       3 UNK         0.0876 
     19 N          20.5294  -26.3115  -43.8895 N.am      3 UNK        -0.4424 
     20 C          20.4174  -26.0199  -42.5825 C.2       2 UNK         0.4918 
     21 O          21.1469  -25.2121  -42.0056 O.2       2 UNK        -0.4875 
     22 CA         19.2915  -26.7097  -41.7924 C.3       2 UNK         0.0481 
     23 CB         18.8169  -25.8785  -40.5833 C.3       2 UNK        -0.1831 
     24 N          18.1611  -27.0236  -42.6659 N.am      2 UNK        -0.4498 
     25 C          17.2833  -28.0146  -42.4714 C.2       1 UNK         0.5027 
     26 O          17.2625  -28.7367  -41.4732 O.2       1 UNK        -0.4969 
     27 C          22.9045  -25.8644  -44.4255 C.2       3 UNK         0.5005 
     28 O          23.3873  -26.9964  -44.5131 O.2       3 UNK        -0.5279 
     29 N          23.5530  -24.8046  -43.9157 N.am      4 UNK        -0.4463 
     30 CA         24.9061  -24.7755  -43.3375 C.3       4 UNK         0.0283 
     31 CB         25.9638  -25.0313  -44.4323 C.3       4 UNK        -0.1875 
     32 C          25.1032  -25.7096  -42.1213 C.2       4 UNK         0.4949 
     33 O          26.2470  -25.9659  -41.7433 O.2       4 UNK        -0.5039 
     34 N          23.9974  -26.2123  -41.5458 N.am      5 UNK        -0.4663 
     35 CA         23.9157  -27.2559  -40.5163 C.3       5 UNK         0.0242 
     36 CB         24.3350  -26.6891  -39.1442 C.3       5 UNK        -0.1982 
     37 C          24.6785  -28.5456  -40.8924 C.2       5 UNK         0.5017 
     38 O          25.3070  -29.1534  -40.0232 O.2       5 UNK        -0.5012 
     39 N          24.6296  -28.9278  -42.1791 N.am      6 UNK        -0.4439 
     40 CA         25.3241  -30.0808  -42.7621 C.3       6 UNK         0.0297 
     41 CB         25.0580  -30.1132  -44.2757 C.3       6 UNK        -0.2006 
     42 C          24.9287  -31.4079  -42.0879 C.2       6 UNK         0.4892 
     43 O          23.8311  -31.9141  -42.3249 O.2       6 UNK        -0.5089 
     44 N          25.8156  -31.9085  -41.2135 N.am      7 UNK        -0.4243 
     45 CA         25.6159  -33.0506  -40.3078 C.3       7 UNK         0.0196 
     46 CB         25.5214  -34.3710  -41.1023 C.3       7 UNK        -0.2007 
     47 C          24.4307  -32.8494  -39.3369 C.2       7 UNK         0.5020 
     48 O          23.7734  -33.8203  -38.9622 O.2       7 UNK        -0.5147 
     49 N          24.1648  -31.5827  -38.9795 N.am      8 UNK        -0.4734 
     50 CA         23.0485  -31.0618  -38.1772 C.3       8 UNK         0.0238 
     51 CB         23.0311  -31.6838  -36.7651 C.3       8 UNK        -0.1912 
     52 C          21.6636  -31.1407  -38.8544 C.2       8 UNK         0.5038 
     53 O          20.6989  -30.6508  -38.2657 O.2       8 UNK        -0.5046 
     54 N          21.5821  -31.7123  -40.0647 N.am      9 UNK        -0.4200 
     55 CA         20.3626  -31.9219  -40.8608 C.3       9 UNK         0.0839 
     56 C          19.2575  -32.7070  -40.0894 C.2       9 UNK         0.5513 
     57 N          17.9979  -32.2884  -40.1297 N.am      9 UNK        -0.7519 
     58 O          19.5349  -33.7433  -39.4897 O.2       9 UNK        -0.4960 
     59 C59        19.8712  -30.6228  -41.5602 C.3       10 UNK        -0.0876 
     60 S60        21.1209  -29.9000  -42.6734 S.3       10 UNK        -0.2414 
     61 C61        20.8760  -30.9098  -44.1688 C.3       10 UNK         0.0169 
     62 H62        15.0628  -25.5678  -46.4662 H         1 UNK         0.0903 
     63 H63        16.5860  -26.1298  -45.7907 H         1 UNK         0.0903 
     64 H64        15.3265  -27.2912  -46.2473 H         1 UNK         0.0903 
     65 H65        14.8841  -26.9822  -42.5361 H         1 UNK         0.3096 
     66 H66        16.8003  -28.1251  -44.5075 H         1 UNK         0.1121 
     67 H67        14.7656  -29.6059  -42.7727 H         1 UNK         0.0849 
     68 H68        16.2481  -30.3739  -43.2610 H         1 UNK         0.0849 
     69 H69        16.1054  -32.0360  -45.2972 H         1 UNK         0.0865 
     70 H70        15.8084  -31.3635  -46.8780 H         1 UNK         0.0865 
     71 H71        18.2854  -31.7804  -44.3745 H         1 UNK         0.1346 
     72 H72        21.0130  -28.8810  -45.9209 H         1 UNK         0.1412 
     73 H73        16.9725  -29.0105  -47.3758 H         1 UNK         0.1426 
     74 H74        18.5203  -27.5457  -48.4273 H         1 UNK         0.0716 
     75 H75        20.2274  -27.8250  -48.2420 H         1 UNK         0.0716 
     76 H76        21.7006  -25.2826  -46.9539 H         1 UNK         0.0695 
     77 H77        21.6613  -26.9630  -46.5603 H         1 UNK         0.0695 
     78 H78        21.2188  -24.5663  -44.7378 H         1 UNK         0.0983 
     79 H79        19.9570  -27.0423  -44.2846 H         1 UNK         0.3095 
     80 H80        19.7165  -27.6382  -41.4132 H         1 UNK         0.0454 
     81 H81        18.4026  -24.9192  -40.8950 H         1 UNK         0.0851 
     82 H82        19.6401  -25.6735  -39.8977 H         1 UNK         0.0851 
     83 H83        18.0521  -26.4046  -40.0123 H         1 UNK         0.0851 
     84 H84        18.0597  -26.4327  -43.4798 H         1 UNK         0.2976 
     85 H85        23.0408  -23.9359  -43.8368 H         1 UNK         0.3116 
     86 H86        25.0544  -23.7615  -42.9634 H         1 UNK         0.0646 
     87 H87        25.9222  -26.0561  -44.8028 H         1 UNK         0.0847 
     88 H88        26.9724  -24.8661  -44.0514 H         1 UNK         0.0847 
     89 H89        25.8281  -24.3615  -45.2812 H         1 UNK         0.0847 
     90 H90        23.1047  -25.8897  -41.9048 H         1 UNK         0.3040 
     91 H91        22.8642  -27.5407  -40.4499 H         1 UNK         0.1015 
     92 H92        25.3921  -26.4217  -39.1251 H         1 UNK         0.0786 
     93 H93        24.1685  -27.4176  -38.3498 H         1 UNK         0.0786 
     94 H94        23.7591  -25.7990  -38.8908 H         1 UNK         0.0786 
     95 H95        24.0898  -28.3616  -42.8242 H         1 UNK         0.3172 
     96 H96        26.3950  -29.9243  -42.6183 H         1 UNK         0.0595 
     97 H97        25.5394  -30.9741  -44.7413 H         1 UNK         0.0839 
     98 H98        25.4440  -29.2187  -44.7651 H         1 UNK         0.0839 
     99 H99        23.9924  -30.1750  -44.4942 H         1 UNK         0.0839 
    100 H100       26.6701  -31.3876  -41.0675 H         1 UNK         0.2998 
    101 H101       26.5083  -33.1053  -39.6826 H         1 UNK         0.0822 
    102 H102       25.5150  -35.2317  -40.4323 H         1 UNK         0.0787 
    103 H103       24.6112  -34.4198  -41.7010 H         1 UNK         0.0787 
    104 H104       26.3714  -34.4919  -41.7738 H         1 UNK         0.0787 
    105 H105       24.7585  -30.8561  -39.3760 H         1 UNK         0.3055 
    106 H106       23.2515  -29.9961  -38.0586 H         1 UNK         0.1106 
    107 H107       22.3075  -31.1774  -36.1251 H         1 UNK         0.0828 
    108 H108       22.7555  -32.7384  -36.7872 H         1 UNK         0.0828 
    109 H109       24.0039  -31.5992  -36.2809 H         1 UNK         0.0828 
    110 H110       22.4329  -32.0596  -40.4871 H         1 UNK         0.2931 
    111 H111       20.6669  -32.6103  -41.6492 H         1 UNK         0.0412 
    112 H112       17.7459  -31.4280  -40.5913 H         1 UNK         0.3472 
    113 H113       17.2929  -32.8189  -39.6421 H         1 UNK         0.3472 
    114 H114       19.6022  -29.8800  -40.8086 H         1 UNK         0.0970 
    115 H115       18.9707  -30.8076  -42.1462 H         1 UNK         0.0970 
    116 H116       20.6855  -31.9481  -43.8961 H         1 UNK         0.0612 
    117 H117       21.8057  -30.9203  -44.7376 H         1 UNK         0.0612 
@<TRIPOS>BOND
     1    1    2 1    
     2    1   62 1    
     3    1   63 1    
     4    1   64 1    
     5    2    3 2    
     6    2    4 am   BACKBONE|DICT|INTERRES
     7    4    5 1    
     8    4   65 1    
     9    5    6 1    
    10    5   25 1    
    11    5   66 1    
    12    6    7 1    
    13    6   67 1    
    14    6   68 1    
    15    7    8 1    
    16    8    9 1    
    17    8   69 1    
    18    8   70 1    
    19    9   10 ar   
    20    9   14 ar   
    21   10   11 ar   
    22   10   71 1    
    23   11   12 ar   
    24   11   61 1    
    25   12   13 ar   
    26   12   72 1    
    27   13   14 ar   
    28   13   15 1    
    29   14   73 1    
    30   15   16 1    
    31   15   74 1    
    32   15   75 1    
    33   16   17 1    
    34   17   18 1    
    35   17   76 1    
    36   17   77 1    
    37   18   19 1    
    38   18   27 1    
    39   18   78 1    
    40   19   20 am   BACKBONE|DICT|INTERRES
    41   19   79 1    
    42   20   21 2    
    43   20   22 1    
    44   22   23 1    
    45   22   24 1    
    46   22   80 1    
    47   23   81 1    
    48   23   82 1    
    49   23   83 1    
    50   24   25 am   BACKBONE|DICT|INTERRES
    51   24   84 1    
    52   25   26 2    
    53   27   28 2    
    54   27   29 am   BACKBONE|DICT|INTERRES
    55   29   30 1    
    56   29   85 1    
    57   30   31 1    
    58   30   32 1    
    59   30   86 1    
    60   31   87 1    
    61   31   88 1    
    62   31   89 1    
    63   32   33 2    
    64   32   34 am   BACKBONE|DICT|INTERRES
    65   34   35 1    
    66   34   90 1    
    67   35   36 1    
    68   35   37 1    
    69   35   91 1    
    70   36   92 1    
    71   36   93 1    
    72   36   94 1    
    73   37   38 2    
    74   37   39 am   BACKBONE|DICT|INTERRES
    75   39   40 1    
    76   39   95 1    
    77   40   41 1    
    78   40   42 1    
    79   40   96 1    
    80   41   97 1    
    81   41   98 1    
    82   41   99 1    
    83   42   43 2    
    84   42   44 am   BACKBONE|DICT|INTERRES
    85   44   45 1    
    86   44  100 1    
    87   45   46 1    
    88   45   47 1    
    89   45  101 1    
    90   46  102 1    
    91   46  103 1    
    92   46  104 1    
    93   47   48 2    
    94   47   49 am   BACKBONE|DICT|INTERRES
    95   49   50 1    
    96   49  105 1    
    97   50   51 1    
    98   50   52 1    
    99   50  106 1    
   100   51  107 1    
   101   51  108 1    
   102   51  109 1    
   103   52   53 2    
   104   52   54 am   BACKBONE|DICT|INTERRES
   105   54   55 1    
   106   54  110 1    
   107   55   56 1    
   108   55   59 1    
   109   55  111 1    
   110   56   57 am   BACKBONE|DICT|INTERRES
   111   56   58 2    
   112   57  112 1    
   113   57  113 1    
   114   59   60 1    
   115   59  114 1    
   116   59  115 1    
   117   60   61 1    
   118   61  116 1    
   119   61  117 1    
@<TRIPOS>SUBSTRUCTURE
     1 UNK         1 GROUP             0       ****    0 ROOT    
