@<TRIPOS>MOLECULE
3R8
117   119    1
SMALL
USER_CHARGES


@<TRIPOS>ATOM
      1 CA         17.4509  -29.3855  -42.0339 C.3       0 UNK        -0.2013 
      2 C          16.9363  -28.0755  -42.6050 C.2       0 UNK         0.4866 
      3 O          16.4791  -27.2123  -41.8545 O.2       0 UNK        -0.5176 
      4 N          17.0099  -27.9126  -43.9317 N.am      1 UNK        -0.4884 
      5 CA         16.5050  -26.7519  -44.6796 C.3       1 UNK         0.0853 
      6 C6         16.1669  -27.1026  -46.1547 C.3       10 UNK        -0.0849 
      7 S7         15.0043  -28.5050  -46.3180 S.3       10 UNK        -0.2776 
      8 C8         16.0131  -29.7537  -47.1858 C.3       10 UNK         0.0316 
      9 C9         17.1075  -30.3211  -46.2930 C.ar      10 UNK        -0.0863 
     10 C10        16.8288  -31.3780  -45.4194 C.ar      10 UNK        -0.1009 
     11 C11        17.8243  -31.8807  -44.5751 C.ar      10 UNK        -0.0712 
     12 C12        19.1036  -31.3195  -44.6130 C.ar      10 UNK        -0.0894 
     13 C13        19.3885  -30.2561  -45.4713 C.ar      10 UNK        -0.0745 
     14 C14        18.3942  -29.7753  -46.3252 C.ar      10 UNK        -0.0972 
     15 C15        20.7492  -29.5848  -45.4282 C.3       10 UNK         0.0209 
     16 S16        20.8330  -28.4849  -43.9841 S.3       10 UNK        -0.2568 
     17 C17        21.8903  -27.1307  -44.6037 C.3       10 UNK        -0.0983 
     18 CA         21.8608  -25.8599  -43.7111 C.3       3 UNK         0.0876 
     19 N          20.4853  -25.4267  -43.4540 N.am      3 UNK        -0.4424 
     20 C          20.0771  -24.1825  -43.1818 C.2       2 UNK         0.4918 
     21 O          20.8514  -23.2274  -43.0971 O.2       2 UNK        -0.4875 
     22 CA         18.5706  -23.9700  -42.9198 C.3       2 UNK         0.0481 
     23 CB         18.0627  -22.6362  -43.5060 C.3       2 UNK        -0.1831 
     24 N          17.7091  -25.0904  -43.3299 N.am      2 UNK        -0.4498 
     25 C          17.4698  -25.5471  -44.5689 C.2       1 UNK         0.5027 
     26 O          17.9921  -25.0770  -45.5811 O.2       1 UNK        -0.4969 
     27 C          22.6602  -26.0029  -42.3951 C.2       3 UNK         0.5005 
     28 O          23.1526  -27.0855  -42.0787 O.2       3 UNK        -0.5279 
     29 N          22.7843  -24.9009  -41.6417 N.am      4 UNK        -0.4463 
     30 CA         23.4258  -24.8313  -40.3208 C.3       4 UNK         0.0283 
     31 CB         23.2657  -23.4086  -39.7611 C.3       4 UNK        -0.1875 
     32 C          24.9076  -25.2581  -40.2867 C.2       4 UNK         0.4949 
     33 O          25.3946  -25.6543  -39.2279 O.2       4 UNK        -0.5039 
     34 N          25.5936  -25.1759  -41.4342 N.am      5 UNK        -0.4663 
     35 CA         26.9708  -25.6391  -41.6191 C.3       5 UNK         0.0242 
     36 CB         27.5980  -24.8592  -42.7872 C.3       5 UNK        -0.1982 
     37 C          27.0833  -27.1575  -41.8656 C.2       5 UNK         0.5017 
     38 O          28.1953  -27.6836  -41.7979 O.2       5 UNK        -0.5012 
     39 N          25.9645  -27.8296  -42.1702 N.am      6 UNK        -0.4439 
     40 CA         25.8889  -29.2654  -42.4421 C.3       6 UNK         0.0297 
     41 CB         24.9560  -29.4855  -43.6492 C.3       6 UNK        -0.2006 
     42 C          25.3823  -30.0271  -41.2052 C.2       6 UNK         0.4892 
     43 O          25.1050  -29.4263  -40.1647 O.2       6 UNK        -0.5089 
     44 N          25.2574  -31.3535  -41.3512 N.am      7 UNK        -0.4243 
     45 CA         24.7263  -32.2640  -40.3305 C.3       7 UNK         0.0196 
     46 CB         25.0813  -33.7094  -40.7185 C.3       7 UNK        -0.2007 
     47 C          23.2080  -32.1326  -40.0991 C.2       7 UNK         0.5020 
     48 O          22.7154  -32.6478  -39.0951 O.2       7 UNK        -0.5147 
     49 N          22.4910  -31.4851  -41.0332 N.am      8 UNK        -0.4734 
     50 CA         21.0463  -31.2037  -41.0097 C.3       8 UNK         0.0238 
     51 CB         20.7282  -30.1463  -39.9317 C.3       8 UNK        -0.1912 
     52 C          20.1703  -32.4697  -40.8874 C.2       8 UNK         0.5038 
     53 O          19.1205  -32.4337  -40.2439 O.2       8 UNK        -0.5046 
     54 N          20.6385  -33.5662  -41.5004 N.am      9 UNK        -0.4200 
     55 CA         20.0745  -34.9268  -41.4337 C.3       9 UNK         0.0839 
     56 C          20.1745  -35.6013  -40.0300 C.2       9 UNK         0.5513 
     57 N          20.9526  -35.0806  -39.0875 N.am      9 UNK        -0.7519 
     58 O          19.5615  -36.6403  -39.7972 O.2       9 UNK        -0.4960 
     59 C59        18.6512  -35.0541  -42.0556 C.3       10 UNK        -0.0876 
     60 S60        18.5631  -34.4394  -43.7743 S.3       10 UNK        -0.2414 
     61 C61        17.5069  -32.9712  -43.5629 C.3       10 UNK         0.0169 
     62 H62        18.4581  -29.5955  -42.3900 H         1 UNK         0.0903 
     63 H63        17.4774  -29.3483  -40.9454 H         1 UNK         0.0903 
     64 H64        16.7968  -30.2056  -42.3269 H         1 UNK         0.0903 
     65 H65        17.3943  -28.6575  -44.4998 H         1 UNK         0.3096 
     66 H66        15.5698  -26.4349  -44.2116 H         1 UNK         0.1121 
     67 H67        15.7042  -26.2419  -46.6416 H         1 UNK         0.0849 
     68 H68        17.0734  -27.3041  -46.7249 H         1 UNK         0.0849 
     69 H69        15.3606  -30.5615  -47.5207 H         1 UNK         0.0865 
     70 H70        16.4398  -29.3182  -48.0909 H         1 UNK         0.0865 
     71 H71        15.8301  -31.7917  -45.3817 H         1 UNK         0.1346 
     72 H72        19.8704  -31.6918  -43.9495 H         1 UNK         0.1412 
     73 H73        18.6179  -28.9552  -46.9936 H         1 UNK         0.1426 
     74 H74        20.9233  -29.0226  -46.3467 H         1 UNK         0.0716 
     75 H75        21.5418  -30.3318  -45.3642 H         1 UNK         0.0716 
     76 H76        22.9094  -27.4964  -44.7376 H         1 UNK         0.0695 
     77 H77        21.5407  -26.8617  -45.6017 H         1 UNK         0.0695 
     78 H78        22.3608  -25.0707  -44.2773 H         1 UNK         0.0983 
     79 H79        19.7951  -26.1631  -43.4746 H         1 UNK         0.3095 
     80 H80        18.4687  -23.9070  -41.8356 H         1 UNK         0.0454 
     81 H81        18.6002  -21.7894  -43.0775 H         1 UNK         0.0851 
     82 H82        18.1979  -22.5895  -44.5869 H         1 UNK         0.0851 
     83 H83        17.0047  -22.4852  -43.2925 H         1 UNK         0.0851 
     84 H84        17.2596  -25.6021  -42.5732 H         1 UNK         0.2976 
     85 H85        22.3295  -24.0573  -41.9774 H         1 UNK         0.3116 
     86 H86        22.8843  -25.5171  -39.6659 H         1 UNK         0.0646 
     87 H87        23.7021  -23.3287  -38.7644 H         1 UNK         0.0847 
     88 H88        22.2152  -23.1301  -39.6750 H         1 UNK         0.0847 
     89 H89        23.7594  -22.6691  -40.3929 H         1 UNK         0.0847 
     90 H90        25.1147  -24.8261  -42.2512 H         1 UNK         0.3040 
     91 H91        27.5430  -25.4168  -40.7152 H         1 UNK         0.1015 
     92 H92        27.5839  -23.7851  -42.6007 H         1 UNK         0.0786 
     93 H93        27.0738  -25.0456  -43.7255 H         1 UNK         0.0786 
     94 H94        28.6403  -25.1459  -42.9343 H         1 UNK         0.0786 
     95 H95        25.0664  -27.3579  -42.0941 H         1 UNK         0.3172 
     96 H96        26.8777  -29.6525  -42.6963 H         1 UNK         0.0595 
     97 H97        25.2387  -28.8520  -44.4901 H         1 UNK         0.0839 
     98 H98        23.9167  -29.2664  -43.4021 H         1 UNK         0.0839 
     99 H99        24.9952  -30.5159  -44.0032 H         1 UNK         0.0839 
    100 H100       25.5263  -31.7718  -42.2304 H         1 UNK         0.2998 
    101 H101       25.2162  -32.0339  -39.3818 H         1 UNK         0.0822 
    102 H102       26.1598  -33.8440  -40.8049 H         1 UNK         0.0787 
    103 H103       24.7299  -34.4149  -39.9639 H         1 UNK         0.0787 
    104 H104       24.6285  -33.9970  -41.6682 H         1 UNK         0.0787 
    105 H105       22.9967  -31.1094  -41.8226 H         1 UNK         0.3055 
    106 H106       20.8018  -30.7618  -41.9757 H         1 UNK         0.1106 
    107 H107       21.3275  -29.2466  -40.0743 H         1 UNK         0.0828 
    108 H108       19.6816  -29.8446  -39.9696 H         1 UNK         0.0828 
    109 H109       20.9209  -30.5235  -38.9269 H         1 UNK         0.0828 
    110 H110       21.5190  -33.4904  -41.9872 H         1 UNK         0.2931 
    111 H111       20.7387  -35.5244  -42.0591 H         1 UNK         0.0412 
    112 H112       21.0103  -35.5413  -38.1932 H         1 UNK         0.3472 
    113 H113       21.4701  -34.2218  -39.2412 H         1 UNK         0.3472 
    114 H114       17.9127  -34.5498  -41.4307 H         1 UNK         0.0970 
    115 H115       18.3454  -36.1015  -42.0796 H         1 UNK         0.0970 
    116 H116       17.6440  -32.5523  -42.5663 H         1 UNK         0.0612 
    117 H117       16.4620  -33.2779  -43.6278 H         1 UNK         0.0612 
@<TRIPOS>BOND
     1    1    2 1    
     2    1   62 1    
     3    1   63 1    
     4    1   64 1    
     5    2    3 2    
     6    2    4 am   BACKBONE|DICT|INTERRES
     7    4    5 1    
     8    4   65 1    
     9    5    6 1    
    10    5   25 1    
    11    5   66 1    
    12    6    7 1    
    13    6   67 1    
    14    6   68 1    
    15    7    8 1    
    16    8    9 1    
    17    8   69 1    
    18    8   70 1    
    19    9   10 ar   
    20    9   14 ar   
    21   10   11 ar   
    22   10   71 1    
    23   11   12 ar   
    24   11   61 1    
    25   12   13 ar   
    26   12   72 1    
    27   13   14 ar   
    28   13   15 1    
    29   14   73 1    
    30   15   16 1    
    31   15   74 1    
    32   15   75 1    
    33   16   17 1    
    34   17   18 1    
    35   17   76 1    
    36   17   77 1    
    37   18   19 1    
    38   18   27 1    
    39   18   78 1    
    40   19   20 am   BACKBONE|DICT|INTERRES
    41   19   79 1    
    42   20   21 2    
    43   20   22 1    
    44   22   23 1    
    45   22   24 1    
    46   22   80 1    
    47   23   81 1    
    48   23   82 1    
    49   23   83 1    
    50   24   25 am   BACKBONE|DICT|INTERRES
    51   24   84 1    
    52   25   26 2    
    53   27   28 2    
    54   27   29 am   BACKBONE|DICT|INTERRES
    55   29   30 1    
    56   29   85 1    
    57   30   31 1    
    58   30   32 1    
    59   30   86 1    
    60   31   87 1    
    61   31   88 1    
    62   31   89 1    
    63   32   33 2    
    64   32   34 am   BACKBONE|DICT|INTERRES
    65   34   35 1    
    66   34   90 1    
    67   35   36 1    
    68   35   37 1    
    69   35   91 1    
    70   36   92 1    
    71   36   93 1    
    72   36   94 1    
    73   37   38 2    
    74   37   39 am   BACKBONE|DICT|INTERRES
    75   39   40 1    
    76   39   95 1    
    77   40   41 1    
    78   40   42 1    
    79   40   96 1    
    80   41   97 1    
    81   41   98 1    
    82   41   99 1    
    83   42   43 2    
    84   42   44 am   BACKBONE|DICT|INTERRES
    85   44   45 1    
    86   44  100 1    
    87   45   46 1    
    88   45   47 1    
    89   45  101 1    
    90   46  102 1    
    91   46  103 1    
    92   46  104 1    
    93   47   48 2    
    94   47   49 am   BACKBONE|DICT|INTERRES
    95   49   50 1    
    96   49  105 1    
    97   50   51 1    
    98   50   52 1    
    99   50  106 1    
   100   51  107 1    
   101   51  108 1    
   102   51  109 1    
   103   52   53 2    
   104   52   54 am   BACKBONE|DICT|INTERRES
   105   54   55 1    
   106   54  110 1    
   107   55   56 1    
   108   55   59 1    
   109   55  111 1    
   110   56   57 am   BACKBONE|DICT|INTERRES
   111   56   58 2    
   112   57  112 1    
   113   57  113 1    
   114   59   60 1    
   115   59  114 1    
   116   59  115 1    
   117   60   61 1    
   118   61  116 1    
   119   61  117 1    
@<TRIPOS>SUBSTRUCTURE
     1 UNK         1 GROUP             0       ****    0 ROOT    
