@<TRIPOS>MOLECULE
3R8
117   119    1
SMALL
USER_CHARGES


@<TRIPOS>ATOM
      1 CA         14.8460  -28.3538  -40.4523 C.3       0 UNK        -0.2013 
      2 C          15.6711  -27.3024  -41.1781 C.2       0 UNK         0.4866 
      3 O          16.0159  -26.2803  -40.5835 O.2       0 UNK        -0.5176 
      4 N          15.9723  -27.5317  -42.4612 N.am      1 UNK        -0.4884 
      5 CA         16.7506  -26.6222  -43.3075 C.3       1 UNK         0.0853 
      6 C6         16.4468  -26.7786  -44.8256 C.3       10 UNK        -0.0849 
      7 S7         14.6782  -27.0624  -45.2055 S.3       10 UNK        -0.2776 
      8 C8         14.6956  -28.6328  -46.1435 C.3       10 UNK         0.0316 
      9 C9         15.5806  -29.7105  -45.5237 C.ar      10 UNK        -0.0863 
     10 C10        15.2722  -30.2591  -44.2735 C.ar      10 UNK        -0.1009 
     11 C11        16.1028  -31.2292  -43.7005 C.ar      10 UNK        -0.0712 
     12 C12        17.2197  -31.6779  -44.4088 C.ar      10 UNK        -0.0894 
     13 C13        17.5517  -31.1236  -45.6457 C.ar      10 UNK        -0.0745 
     14 C14        16.7241  -30.1465  -46.2038 C.ar      10 UNK        -0.0972 
     15 C15        18.8141  -31.5821  -46.3588 C.3       10 UNK         0.0209 
     16 S16        20.2958  -30.7838  -45.6629 S.3       10 UNK        -0.2568 
     17 C17        20.3849  -29.2544  -46.6533 C.3       10 UNK        -0.0983 
     18 CA         21.3155  -28.1491  -46.0893 C.3       3 UNK         0.0876 
     19 N          20.8058  -27.5512  -44.8516 N.am      3 UNK        -0.4424 
     20 C          21.1356  -26.3246  -44.4231 C.2       2 UNK         0.4918 
     21 O          21.8575  -25.5541  -45.0588 O.2       2 UNK        -0.4875 
     22 CA         20.5208  -25.8677  -43.0865 C.3       2 UNK         0.0481 
     23 CB         21.0664  -24.5084  -42.6117 C.3       2 UNK        -0.1831 
     24 N          19.0613  -25.7955  -43.1777 N.am      2 UNK        -0.4498 
     25 C          18.2496  -26.8516  -43.0488 C.2       1 UNK         0.5027 
     26 O          18.6565  -27.9879  -42.8001 O.2       1 UNK        -0.4969 
     27 C          22.7892  -28.5923  -45.9514 C.2       3 UNK         0.5005 
     28 O          23.5349  -28.5154  -46.9302 O.2       3 UNK        -0.5279 
     29 N          23.1893  -29.0043  -44.7414 N.am      4 UNK        -0.4463 
     30 CA         24.5641  -29.2863  -44.3458 C.3       4 UNK         0.0283 
     31 CB         24.6197  -30.6821  -43.7045 C.3       4 UNK        -0.1875 
     32 C          25.0156  -28.2220  -43.3379 C.2       4 UNK         0.4949 
     33 O          24.2150  -27.7698  -42.5150 O.2       4 UNK        -0.5039 
     34 N          26.3026  -27.8597  -43.3949 N.am      5 UNK        -0.4663 
     35 CA         26.9404  -26.9527  -42.4387 C.3       5 UNK         0.0242 
     36 CB         28.3059  -26.5089  -42.9874 C.3       5 UNK        -0.1982 
     37 C          27.1008  -27.6400  -41.0739 C.2       5 UNK         0.5017 
     38 O          27.5535  -28.7865  -41.0303 O.2       5 UNK        -0.5012 
     39 N          26.7116  -26.9413  -39.9978 N.am      6 UNK        -0.4439 
     40 CA         26.7124  -27.3488  -38.5814 C.3       6 UNK         0.0297 
     41 CB         28.1379  -27.6574  -38.0829 C.3       6 UNK        -0.2006 
     42 C          25.7450  -28.4978  -38.2293 C.2       6 UNK         0.4892 
     43 O          25.0846  -28.4279  -37.1928 O.2       6 UNK        -0.5089 
     44 N          25.6642  -29.5193  -39.0896 N.am      7 UNK        -0.4243 
     45 CA         24.7873  -30.6853  -38.9610 C.3       7 UNK         0.0196 
     46 CB         25.3279  -31.8097  -39.8598 C.3       7 UNK        -0.2007 
     47 C          23.3093  -30.3978  -39.2854 C.2       7 UNK         0.5020 
     48 O          22.4691  -31.2550  -39.0094 O.2       7 UNK        -0.5147 
     49 N          23.0147  -29.2289  -39.8745 N.am      8 UNK        -0.4734 
     50 CA         21.6972  -28.7516  -40.3084 C.3       8 UNK         0.0238 
     51 CB         20.7680  -28.4811  -39.1039 C.3       8 UNK        -0.1912 
     52 C          21.0893  -29.6800  -41.3729 C.2       8 UNK         0.5038 
     53 O          21.4784  -29.5761  -42.5359 O.2       8 UNK        -0.5046 
     54 N          20.1863  -30.5783  -40.9584 N.am      9 UNK        -0.4200 
     55 CA         19.6501  -31.6598  -41.7972 C.3       9 UNK         0.0839 
     56 C          20.6888  -32.7683  -42.1409 C.2       9 UNK         0.5513 
     57 N          21.8021  -32.8859  -41.4255 N.am      9 UNK        -0.7519 
     58 O          20.4691  -33.5459  -43.0655 O.2       9 UNK        -0.4960 
     59 C59        18.3738  -32.2967  -41.1821 C.3       10 UNK        -0.0876 
     60 S60        16.9638  -31.1422  -41.0579 S.3       10 UNK        -0.2414 
     61 C61        15.8061  -31.7875  -42.3154 C.3       10 UNK         0.0169 
     62 H62        13.9614  -27.8976  -40.0090 H         1 UNK         0.0903 
     63 H63        14.5155  -29.1454  -41.1238 H         1 UNK         0.0903 
     64 H64        15.4333  -28.8058  -39.6536 H         1 UNK         0.0903 
     65 H65        15.7296  -28.4114  -42.8939 H         1 UNK         0.3096 
     66 H66        16.5013  -25.5979  -43.0202 H         1 UNK         0.1121 
     67 H67        16.7567  -25.8745  -45.3526 H         1 UNK         0.0849 
     68 H68        17.0472  -27.5748  -45.2661 H         1 UNK         0.0849 
     69 H69        13.6746  -29.0095  -46.2187 H         1 UNK         0.0865 
     70 H70        15.0123  -28.4191  -47.1656 H         1 UNK         0.0865 
     71 H71        14.3927  -29.9180  -43.7444 H         1 UNK         0.1346 
     72 H72        17.8572  -32.4402  -43.9856 H         1 UNK         0.1412 
     73 H73        16.9784  -29.7178  -47.1636 H         1 UNK         0.1426 
     74 H74        18.7522  -31.3881  -47.4308 H         1 UNK         0.0716 
     75 H75        18.9178  -32.6628  -46.2505 H         1 UNK         0.0716 
     76 H76        20.7058  -29.5273  -47.6602 H         1 UNK         0.0695 
     77 H77        19.3768  -28.8523  -46.7632 H         1 UNK         0.0695 
     78 H78        21.3196  -27.3553  -46.8401 H         1 UNK         0.0983 
     79 H79        20.2270  -28.1387  -44.2589 H         1 UNK         0.3095 
     80 H80        20.7962  -26.6073  -42.3360 H         1 UNK         0.0454 
     81 H81        22.1523  -24.5397  -42.5113 H         1 UNK         0.0851 
     82 H82        20.6610  -24.2371  -41.6369 H         1 UNK         0.0851 
     83 H83        20.8260  -23.7066  -43.3108 H         1 UNK         0.0851 
     84 H84        18.6696  -24.8977  -43.4254 H         1 UNK         0.2976 
     85 H85        22.5085  -29.0390  -43.9825 H         1 UNK         0.3116 
     86 H86        25.2287  -29.2672  -45.2118 H         1 UNK         0.0646 
     87 H87        25.6345  -30.9295  -43.3907 H         1 UNK         0.0847 
     88 H88        24.2979  -31.4521  -44.4057 H         1 UNK         0.0847 
     89 H89        23.9775  -30.7467  -42.8248 H         1 UNK         0.0847 
     90 H90        26.9087  -28.3060  -44.0685 H         1 UNK         0.3040 
     91 H91        26.3072  -26.0693  -42.3278 H         1 UNK         0.1015 
     92 H92        28.9801  -27.3550  -43.1281 H         1 UNK         0.0786 
     93 H93        28.7942  -25.8144  -42.3022 H         1 UNK         0.0786 
     94 H94        28.2025  -25.9986  -43.9452 H         1 UNK         0.0786 
     95 H95        26.3286  -26.0200  -40.1630 H         1 UNK         0.3172 
     96 H96        26.3617  -26.4742  -38.0308 H         1 UNK         0.0595 
     97 H97        28.1395  -27.8541  -37.0099 H         1 UNK         0.0839 
     98 H98        28.5629  -28.5349  -38.5709 H         1 UNK         0.0839 
     99 H99        28.8103  -26.8176  -38.2583 H         1 UNK         0.0839 
    100 H100       26.2785  -29.4860  -39.9004 H         1 UNK         0.2998 
    101 H101       24.8254  -31.0285  -37.9249 H         1 UNK         0.0822 
    102 H102       24.7134  -32.7077  -39.7804 H         1 UNK         0.0787 
    103 H103       25.3423  -31.5147  -40.9088 H         1 UNK         0.0787 
    104 H104       26.3432  -32.0885  -39.5772 H         1 UNK         0.0787 
    105 H105       23.7897  -28.6335  -40.1337 H         1 UNK         0.3055 
    106 H106       21.8791  -27.7972  -40.8013 H         1 UNK         0.1106 
    107 H107       21.1855  -27.7090  -38.4576 H         1 UNK         0.0828 
    108 H108       19.7918  -28.1258  -39.4382 H         1 UNK         0.0828 
    109 H109       20.6050  -29.3670  -38.4901 H         1 UNK         0.0828 
    110 H110       19.9493  -30.6097  -39.9789 H         1 UNK         0.2931 
    111 H111       19.3728  -31.2012  -42.7466 H         1 UNK         0.0412 
    112 H112       21.9712  -32.2775  -40.6314 H         1 UNK         0.3472 
    113 H113       22.4604  -33.6123  -41.6563 H         1 UNK         0.3472 
    114 H114       18.5910  -32.6733  -40.1811 H         1 UNK         0.0970 
    115 H115       18.0613  -33.1709  -41.7554 H         1 UNK         0.0970 
    116 H116       14.7920  -31.5208  -42.0146 H         1 UNK         0.0612 
    117 H117       15.8341  -32.8776  -42.3357 H         1 UNK         0.0612 
@<TRIPOS>BOND
     1    1    2 1    
     2    1   62 1    
     3    1   63 1    
     4    1   64 1    
     5    2    3 2    
     6    2    4 am   BACKBONE|DICT|INTERRES
     7    4    5 1    
     8    4   65 1    
     9    5    6 1    
    10    5   25 1    
    11    5   66 1    
    12    6    7 1    
    13    6   67 1    
    14    6   68 1    
    15    7    8 1    
    16    8    9 1    
    17    8   69 1    
    18    8   70 1    
    19    9   10 ar   
    20    9   14 ar   
    21   10   11 ar   
    22   10   71 1    
    23   11   12 ar   
    24   11   61 1    
    25   12   13 ar   
    26   12   72 1    
    27   13   14 ar   
    28   13   15 1    
    29   14   73 1    
    30   15   16 1    
    31   15   74 1    
    32   15   75 1    
    33   16   17 1    
    34   17   18 1    
    35   17   76 1    
    36   17   77 1    
    37   18   19 1    
    38   18   27 1    
    39   18   78 1    
    40   19   20 am   BACKBONE|DICT|INTERRES
    41   19   79 1    
    42   20   21 2    
    43   20   22 1    
    44   22   23 1    
    45   22   24 1    
    46   22   80 1    
    47   23   81 1    
    48   23   82 1    
    49   23   83 1    
    50   24   25 am   BACKBONE|DICT|INTERRES
    51   24   84 1    
    52   25   26 2    
    53   27   28 2    
    54   27   29 am   BACKBONE|DICT|INTERRES
    55   29   30 1    
    56   29   85 1    
    57   30   31 1    
    58   30   32 1    
    59   30   86 1    
    60   31   87 1    
    61   31   88 1    
    62   31   89 1    
    63   32   33 2    
    64   32   34 am   BACKBONE|DICT|INTERRES
    65   34   35 1    
    66   34   90 1    
    67   35   36 1    
    68   35   37 1    
    69   35   91 1    
    70   36   92 1    
    71   36   93 1    
    72   36   94 1    
    73   37   38 2    
    74   37   39 am   BACKBONE|DICT|INTERRES
    75   39   40 1    
    76   39   95 1    
    77   40   41 1    
    78   40   42 1    
    79   40   96 1    
    80   41   97 1    
    81   41   98 1    
    82   41   99 1    
    83   42   43 2    
    84   42   44 am   BACKBONE|DICT|INTERRES
    85   44   45 1    
    86   44  100 1    
    87   45   46 1    
    88   45   47 1    
    89   45  101 1    
    90   46  102 1    
    91   46  103 1    
    92   46  104 1    
    93   47   48 2    
    94   47   49 am   BACKBONE|DICT|INTERRES
    95   49   50 1    
    96   49  105 1    
    97   50   51 1    
    98   50   52 1    
    99   50  106 1    
   100   51  107 1    
   101   51  108 1    
   102   51  109 1    
   103   52   53 2    
   104   52   54 am   BACKBONE|DICT|INTERRES
   105   54   55 1    
   106   54  110 1    
   107   55   56 1    
   108   55   59 1    
   109   55  111 1    
   110   56   57 am   BACKBONE|DICT|INTERRES
   111   56   58 2    
   112   57  112 1    
   113   57  113 1    
   114   59   60 1    
   115   59  114 1    
   116   59  115 1    
   117   60   61 1    
   118   61  116 1    
   119   61  117 1    
@<TRIPOS>SUBSTRUCTURE
     1 UNK         1 GROUP             0       ****    0 ROOT    
