@<TRIPOS>MOLECULE
3R8
117   119    1
SMALL
USER_CHARGES


@<TRIPOS>ATOM
      1 CA         17.7302  -27.5938  -38.4336 C.3       0 UNK        -0.2013 
      2 C          17.3060  -27.1682  -39.8318 C.2       0 UNK         0.4866 
      3 O          16.5855  -26.1799  -39.9780 O.2       0 UNK        -0.5176 
      4 N          17.7369  -27.9123  -40.8577 N.am      1 UNK        -0.4884 
      5 CA         17.4891  -27.6113  -42.2710 C.3       1 UNK         0.0853 
      6 C6         17.6427  -28.8790  -43.1519 C.3       10 UNK        -0.0849 
      7 S7         16.6571  -28.7626  -44.6864 S.3       10 UNK        -0.2776 
      8 C8         16.7241  -30.4706  -45.3125 C.3       10 UNK         0.0316 
      9 C9         18.1460  -30.9082  -45.6315 C.ar      10 UNK        -0.0863 
     10 C10        18.7356  -31.9522  -44.9149 C.ar      10 UNK        -0.1009 
     11 C11        20.0415  -32.3589  -45.1991 C.ar      10 UNK        -0.0712 
     12 C12        20.7683  -31.7023  -46.1956 C.ar      10 UNK        -0.0894 
     13 C13        20.1896  -30.6551  -46.9198 C.ar      10 UNK        -0.0745 
     14 C14        18.8721  -30.2743  -46.6444 C.ar      10 UNK        -0.0972 
     15 C15        20.9923  -29.9353  -47.9959 C.3       10 UNK         0.0209 
     16 S16        21.1386  -28.1451  -47.6854 S.3       10 UNK        -0.2568 
     17 C17        21.9797  -28.1129  -46.0663 C.3       10 UNK        -0.0983 
     18 CA         21.9175  -26.7079  -45.4182 C.3       3 UNK         0.0876 
     19 N          20.5368  -26.2783  -45.1731 N.am      3 UNK        -0.4424 
     20 C          20.1358  -25.0102  -45.0127 C.2       2 UNK         0.4918 
     21 O          20.8840  -24.0404  -45.1487 O.2       2 UNK        -0.4875 
     22 CA         18.6687  -24.7706  -44.6115 C.3       2 UNK         0.0481 
     23 CB         17.8410  -24.3740  -45.8441 C.3       2 UNK        -0.1831 
     24 N          18.0196  -25.9043  -43.9440 N.am      2 UNK        -0.4498 
     25 C          18.3746  -26.4441  -42.7687 C.2       1 UNK         0.5027 
     26 O          19.3504  -26.0710  -42.1120 O.2       1 UNK        -0.4969 
     27 C          22.7162  -26.6327  -44.0999 C.2       3 UNK         0.5005 
     28 O          23.0499  -27.6659  -43.5141 O.2       3 UNK        -0.5279 
     29 N          22.9734  -25.3976  -43.6445 N.am      4 UNK        -0.4463 
     30 CA         23.5209  -25.0244  -42.3346 C.3       4 UNK         0.0283 
     31 CB         23.5955  -23.4918  -42.2463 C.3       4 UNK        -0.1875 
     32 C          24.8797  -25.6468  -41.9665 C.2       4 UNK         0.4949 
     33 O          25.2093  -25.7039  -40.7821 O.2       4 UNK        -0.5039 
     34 N          25.6332  -26.1177  -42.9694 N.am      5 UNK        -0.4663 
     35 CA         26.8677  -26.8883  -42.7982 C.3       5 UNK         0.0242 
     36 CB         27.5532  -27.0477  -44.1649 C.3       5 UNK        -0.1982 
     37 C          26.6441  -28.2663  -42.1438 C.2       5 UNK         0.5017 
     38 O          27.5754  -28.7896  -41.5307 O.2       5 UNK        -0.5012 
     39 N          25.4304  -28.8188  -42.2800 N.am      6 UNK        -0.4439 
     40 CA         24.9958  -30.0634  -41.6477 C.3       6 UNK         0.0297 
     41 CB         24.5500  -31.0606  -42.7286 C.3       6 UNK        -0.2006 
     42 C          23.8675  -29.7830  -40.6449 C.2       6 UNK         0.4892 
     43 O          23.9862  -30.1810  -39.4856 O.2       6 UNK        -0.5089 
     44 N          22.8196  -29.0788  -41.1022 N.am      7 UNK        -0.4243 
     45 CA         21.6251  -28.6131  -40.3862 C.3       7 UNK         0.0196 
     46 CB         21.9916  -27.5573  -39.3235 C.3       7 UNK        -0.2007 
     47 C          20.7573  -29.7285  -39.7784 C.2       7 UNK         0.5020 
     48 O          19.6193  -29.9202  -40.2092 O.2       7 UNK        -0.5147 
     49 N          21.2950  -30.4198  -38.7670 N.am      8 UNK        -0.4734 
     50 CA         20.6052  -31.3771  -37.8946 C.3       8 UNK         0.0238 
     51 CB         21.5471  -31.7630  -36.7423 C.3       8 UNK        -0.1912 
     52 C          20.0717  -32.6362  -38.5983 C.2       8 UNK         0.5038 
     53 O          19.2173  -33.3196  -38.0323 O.2       8 UNK        -0.5046 
     54 N          20.5707  -32.9173  -39.8070 N.am      9 UNK        -0.4200 
     55 CA         20.0685  -33.9700  -40.6977 C.3       9 UNK         0.0839 
     56 C          18.6560  -33.6921  -41.2973 C.2       9 UNK         0.5513 
     57 N          18.1250  -32.4757  -41.2202 N.am      9 UNK        -0.7519 
     58 O          18.0301  -34.6033  -41.8321 O.2       9 UNK        -0.4960 
     59 C59        21.1166  -34.3278  -41.7825 C.3       10 UNK        -0.0876 
     60 S60        21.4775  -32.9431  -42.9197 S.3       10 UNK        -0.2414 
     61 C61        20.6535  -33.5186  -44.4343 C.3       10 UNK         0.0169 
     62 H62        16.8866  -27.5279  -37.7470 H         1 UNK         0.0903 
     63 H63        18.0954  -28.6201  -38.4145 H         1 UNK         0.0903 
     64 H64        18.5211  -26.9405  -38.0665 H         1 UNK         0.0903 
     65 H65        18.3652  -28.6931  -40.6728 H         1 UNK         0.3096 
     66 H66        16.4516  -27.2744  -42.3383 H         1 UNK         0.1121 
     67 H67        18.6894  -29.0804  -43.3912 H         1 UNK         0.0849 
     68 H68        17.2886  -29.7562  -42.6075 H         1 UNK         0.0849 
     69 H69        16.1185  -30.5405  -46.2172 H         1 UNK         0.0865 
     70 H70        16.2616  -31.1375  -44.5831 H         1 UNK         0.0865 
     71 H71        18.1795  -32.4539  -44.1348 H         1 UNK         0.1346 
     72 H72        21.7841  -32.0089  -46.4048 H         1 UNK         0.1412 
     73 H73        18.4201  -29.4647  -47.2015 H         1 UNK         0.1426 
     74 H74        20.5071  -30.0876  -48.9608 H         1 UNK         0.0716 
     75 H75        21.9944  -30.3579  -48.0843 H         1 UNK         0.0716 
     76 H76        23.0152  -28.4238  -46.2170 H         1 UNK         0.0695 
     77 H77        21.5269  -28.8533  -45.4045 H         1 UNK         0.0695 
     78 H78        22.3821  -26.0066  -46.1154 H         1 UNK         0.0983 
     79 H79        19.8595  -27.0147  -45.0454 H         1 UNK         0.3095 
     80 H80        18.6597  -23.9329  -43.9113 H         1 UNK         0.0454 
     81 H81        17.7871  -25.1846  -46.5721 H         1 UNK         0.0851 
     82 H82        18.2797  -23.5120  -46.3491 H         1 UNK         0.0851 
     83 H83        16.8225  -24.0998  -45.5689 H         1 UNK         0.0851 
     84 H84        17.2321  -26.3154  -44.4281 H         1 UNK         0.2976 
     85 H85        22.5926  -24.6334  -44.1934 H         1 UNK         0.3116 
     86 H86        22.8009  -25.3679  -41.5911 H         1 UNK         0.0646 
     87 H87        24.2698  -23.0775  -42.9969 H         1 UNK         0.0847 
     88 H88        23.9601  -23.1723  -41.2688 H         1 UNK         0.0847 
     89 H89        22.6147  -23.0368  -42.3867 H         1 UNK         0.0847 
     90 H90        25.2844  -26.0144  -43.9112 H         1 UNK         0.3040 
     91 H91        27.5314  -26.3208  -42.1418 H         1 UNK         0.1015 
     92 H92        27.7887  -26.0794  -44.6070 H         1 UNK         0.0786 
     93 H93        26.9274  -27.5974  -44.8692 H         1 UNK         0.0786 
     94 H94        28.4925  -27.5945  -44.0684 H         1 UNK         0.0786 
     95 H95        24.7169  -28.2940  -42.7799 H         1 UNK         0.3172 
     96 H96        25.8193  -30.5193  -41.0942 H         1 UNK         0.0595 
     97 H97        23.7090  -30.6853  -43.3135 H         1 UNK         0.0839 
     98 H98        24.2444  -32.0056  -42.2785 H         1 UNK         0.0839 
     99 H99        25.3629  -31.2821  -43.4201 H         1 UNK         0.0839 
    100 H100       22.8512  -28.7802  -42.0752 H         1 UNK         0.2998 
    101 H101       21.0109  -28.1152  -41.1386 H         1 UNK         0.0822 
    102 H102       22.5300  -26.7205  -39.7646 H         1 UNK         0.0787 
    103 H103       21.0951  -27.1525  -38.8523 H         1 UNK         0.0787 
    104 H104       22.6198  -27.9670  -38.5321 H         1 UNK         0.0787 
    105 H105       22.2822  -30.2582  -38.5848 H         1 UNK         0.3055 
    106 H106       19.7374  -30.8657  -37.4725 H         1 UNK         0.1106 
    107 H107       21.0611  -32.4536  -36.0514 H         1 UNK         0.0828 
    108 H108       21.8468  -30.8886  -36.1644 H         1 UNK         0.0828 
    109 H109       22.4518  -32.2500  -37.1087 H         1 UNK         0.0828 
    110 H110       21.2483  -32.2839  -40.2044 H         1 UNK         0.2931 
    111 H111       19.9490  -34.8630  -40.0809 H         1 UNK         0.0412 
    112 H112       18.6459  -31.7115  -40.8078 H         1 UNK         0.3472 
    113 H113       17.2023  -32.3172  -41.5900 H         1 UNK         0.3472 
    114 H114       22.0526  -34.6174  -41.3024 H         1 UNK         0.0970 
    115 H115       20.8010  -35.2101  -42.3418 H         1 UNK         0.0970 
    116 H116       21.3753  -34.0512  -45.0552 H         1 UNK         0.0612 
    117 H117       19.8682  -34.2363  -44.1928 H         1 UNK         0.0612 
@<TRIPOS>BOND
     1    1    2 1    
     2    1   62 1    
     3    1   63 1    
     4    1   64 1    
     5    2    3 2    
     6    2    4 am   BACKBONE|DICT|INTERRES
     7    4    5 1    
     8    4   65 1    
     9    5    6 1    
    10    5   25 1    
    11    5   66 1    
    12    6    7 1    
    13    6   67 1    
    14    6   68 1    
    15    7    8 1    
    16    8    9 1    
    17    8   69 1    
    18    8   70 1    
    19    9   10 ar   
    20    9   14 ar   
    21   10   11 ar   
    22   10   71 1    
    23   11   12 ar   
    24   11   61 1    
    25   12   13 ar   
    26   12   72 1    
    27   13   14 ar   
    28   13   15 1    
    29   14   73 1    
    30   15   16 1    
    31   15   74 1    
    32   15   75 1    
    33   16   17 1    
    34   17   18 1    
    35   17   76 1    
    36   17   77 1    
    37   18   19 1    
    38   18   27 1    
    39   18   78 1    
    40   19   20 am   BACKBONE|DICT|INTERRES
    41   19   79 1    
    42   20   21 2    
    43   20   22 1    
    44   22   23 1    
    45   22   24 1    
    46   22   80 1    
    47   23   81 1    
    48   23   82 1    
    49   23   83 1    
    50   24   25 am   BACKBONE|DICT|INTERRES
    51   24   84 1    
    52   25   26 2    
    53   27   28 2    
    54   27   29 am   BACKBONE|DICT|INTERRES
    55   29   30 1    
    56   29   85 1    
    57   30   31 1    
    58   30   32 1    
    59   30   86 1    
    60   31   87 1    
    61   31   88 1    
    62   31   89 1    
    63   32   33 2    
    64   32   34 am   BACKBONE|DICT|INTERRES
    65   34   35 1    
    66   34   90 1    
    67   35   36 1    
    68   35   37 1    
    69   35   91 1    
    70   36   92 1    
    71   36   93 1    
    72   36   94 1    
    73   37   38 2    
    74   37   39 am   BACKBONE|DICT|INTERRES
    75   39   40 1    
    76   39   95 1    
    77   40   41 1    
    78   40   42 1    
    79   40   96 1    
    80   41   97 1    
    81   41   98 1    
    82   41   99 1    
    83   42   43 2    
    84   42   44 am   BACKBONE|DICT|INTERRES
    85   44   45 1    
    86   44  100 1    
    87   45   46 1    
    88   45   47 1    
    89   45  101 1    
    90   46  102 1    
    91   46  103 1    
    92   46  104 1    
    93   47   48 2    
    94   47   49 am   BACKBONE|DICT|INTERRES
    95   49   50 1    
    96   49  105 1    
    97   50   51 1    
    98   50   52 1    
    99   50  106 1    
   100   51  107 1    
   101   51  108 1    
   102   51  109 1    
   103   52   53 2    
   104   52   54 am   BACKBONE|DICT|INTERRES
   105   54   55 1    
   106   54  110 1    
   107   55   56 1    
   108   55   59 1    
   109   55  111 1    
   110   56   57 am   BACKBONE|DICT|INTERRES
   111   56   58 2    
   112   57  112 1    
   113   57  113 1    
   114   59   60 1    
   115   59  114 1    
   116   59  115 1    
   117   60   61 1    
   118   61  116 1    
   119   61  117 1    
@<TRIPOS>SUBSTRUCTURE
     1 UNK         1 GROUP             0       ****    0 ROOT    
