@<TRIPOS>MOLECULE
3R8
117   119    1
SMALL
USER_CHARGES


@<TRIPOS>ATOM
      1 CA         17.4432  -24.1853  -49.2318 C.3       0 UNK        -0.2013 
      2 C          18.6216  -24.0418  -48.2803 C.2       0 UNK         0.4866 
      3 O          18.9908  -22.9213  -47.9263 O.2       0 UNK        -0.5176 
      4 N          19.2207  -25.1662  -47.8707 N.am      1 UNK        -0.4884 
      5 CA         20.3129  -25.2280  -46.8946 C.3       1 UNK         0.0853 
      6 C6         21.1005  -26.5606  -47.0242 C.3       10 UNK        -0.0849 
      7 S7         20.1051  -28.0752  -46.7654 S.3       10 UNK        -0.2776 
      8 C8         20.6932  -28.5900  -45.1180 C.3       10 UNK         0.0316 
      9 C9         19.6876  -29.4414  -44.3524 C.ar      10 UNK        -0.0863 
     10 C10        20.1127  -30.5851  -43.6669 C.ar      10 UNK        -0.1009 
     11 C11        19.2253  -31.2952  -42.8520 C.ar      10 UNK        -0.0712 
     12 C12        17.9099  -30.8475  -42.7128 C.ar      10 UNK        -0.0894 
     13 C13        17.4786  -29.6951  -43.3737 C.ar      10 UNK        -0.0745 
     14 C14        18.3575  -29.0238  -44.2291 C.ar      10 UNK        -0.0972 
     15 C15        16.0928  -29.1339  -43.0879 C.3       10 UNK         0.0209 
     16 S16        15.9723  -28.5198  -41.3692 S.3       10 UNK        -0.2568 
     17 C17        16.7293  -26.8578  -41.4558 C.3       10 UNK        -0.0983 
     18 CA         18.2773  -26.8604  -41.5055 C.3       3 UNK         0.0876 
     19 N          18.8146  -25.5882  -41.9835 N.am      3 UNK        -0.4424 
     20 C          20.0745  -25.3998  -42.3942 C.2       2 UNK         0.4918 
     21 O          20.9931  -26.2104  -42.2352 O.2       2 UNK        -0.4875 
     22 CA         20.3379  -24.1089  -43.1862 C.3       2 UNK         0.0481 
     23 CB         21.4780  -23.2911  -42.5578 C.3       2 UNK        -0.1831 
     24 N          20.6485  -24.4091  -44.5901 N.am      2 UNK        -0.4498 
     25 C          19.7902  -24.9661  -45.4612 C.2       1 UNK         0.5027 
     26 O          18.6293  -25.2704  -45.1706 O.2       1 UNK        -0.4969 
     27 C          18.9603  -27.3635  -40.2223 C.2       3 UNK         0.5005 
     28 O          18.9004  -26.6906  -39.1912 O.2       3 UNK        -0.5279 
     29 N          19.6312  -28.5203  -40.3513 N.am      4 UNK        -0.4463 
     30 CA         20.4647  -29.2044  -39.3557 C.3       4 UNK         0.0283 
     31 CB         19.6135  -29.6691  -38.1558 C.3       4 UNK        -0.1875 
     32 C          21.7163  -28.4117  -38.9189 C.2       4 UNK         0.4949 
     33 O          22.3203  -28.7620  -37.9038 O.2       4 UNK        -0.5039 
     34 N          22.0906  -27.3718  -39.6775 N.am      5 UNK        -0.4663 
     35 CA         23.2264  -26.4932  -39.3930 C.3       5 UNK         0.0242 
     36 CB         22.7181  -25.0602  -39.1655 C.3       5 UNK        -0.1982 
     37 C          24.2611  -26.5331  -40.5234 C.2       5 UNK         0.5017 
     38 O          25.4551  -26.6262  -40.2371 O.2       5 UNK        -0.5012 
     39 N          23.7994  -26.4726  -41.7815 N.am      6 UNK        -0.4439 
     40 CA         24.6558  -26.5277  -42.9713 C.3       6 UNK         0.0297 
     41 CB         23.8907  -25.9720  -44.1809 C.3       6 UNK        -0.2006 
     42 C          25.1828  -27.9402  -43.2748 C.2       6 UNK         0.4892 
     43 O          26.2506  -28.0662  -43.8756 O.2       6 UNK        -0.5089 
     44 N          24.4361  -28.9679  -42.8584 N.am      7 UNK        -0.4243 
     45 CA         24.7811  -30.3776  -42.9889 C.3       7 UNK         0.0196 
     46 CB         24.4598  -30.8777  -44.4101 C.3       7 UNK        -0.2007 
     47 C          23.9915  -31.1635  -41.9399 C.2       7 UNK         0.5020 
     48 O          22.9271  -30.7104  -41.5113 O.2       7 UNK        -0.5147 
     49 N          24.5183  -32.3329  -41.5662 N.am      8 UNK        -0.4734 
     50 CA         23.8423  -33.3059  -40.7091 C.3       8 UNK         0.0238 
     51 CB         24.8946  -34.0492  -39.8691 C.3       8 UNK        -0.1912 
     52 C          23.0453  -34.2973  -41.5705 C.2       8 UNK         0.5038 
     53 O          23.4271  -34.5569  -42.7151 O.2       8 UNK        -0.5046 
     54 N          21.9775  -34.8483  -40.9883 N.am      9 UNK        -0.4200 
     55 CA         21.1039  -35.8625  -41.5912 C.3       9 UNK         0.0839 
     56 C          21.0879  -37.1314  -40.7022 C.2       9 UNK         0.5513 
     57 N          20.9458  -38.3056  -41.3003 N.am      9 UNK        -0.7519 
     58 O          21.1689  -37.0598  -39.4770 O.2       9 UNK        -0.4960 
     59 C59        19.6647  -35.3212  -41.7941 C.3       10 UNK        -0.0876 
     60 S60        19.5605  -34.0250  -43.0753 S.3       10 UNK        -0.2414 
     61 C61        19.6925  -32.5137  -42.0735 C.3       10 UNK         0.0169 
     62 H62        16.5467  -23.7557  -48.7855 H         1 UNK         0.0903 
     63 H63        17.6465  -23.6584  -50.1637 H         1 UNK         0.0903 
     64 H64        17.2364  -25.2285  -49.4704 H         1 UNK         0.0903 
     65 H65        18.8544  -26.0636  -48.1568 H         1 UNK         0.3096 
     66 H66        21.0057  -24.4174  -47.1338 H         1 UNK         0.1121 
     67 H67        21.9644  -26.5632  -46.3609 H         1 UNK         0.0849 
     68 H68        21.5241  -26.6230  -48.0280 H         1 UNK         0.0849 
     69 H69        21.6445  -29.1114  -45.2319 H         1 UNK         0.0865 
     70 H70        20.8943  -27.7072  -44.5117 H         1 UNK         0.0865 
     71 H71        21.1415  -30.9105  -43.7375 H         1 UNK         0.1346 
     72 H72        17.2309  -31.3701  -42.0525 H         1 UNK         0.1412 
     73 H73        18.0345  -28.1177  -44.7255 H         1 UNK         0.1426 
     74 H74        15.3536  -29.9229  -43.2333 H         1 UNK         0.0716 
     75 H75        15.8343  -28.3366  -43.7866 H         1 UNK         0.0716 
     76 H76        16.3795  -26.2734  -40.6029 H         1 UNK         0.0695 
     77 H77        16.3272  -26.3623  -42.3411 H         1 UNK         0.0695 
     78 H78        18.5677  -27.5505  -42.2832 H         1 UNK         0.0983 
     79 H79        18.1390  -24.8574  -42.1511 H         1 UNK         0.3095 
     80 H80        19.4384  -23.4897  -43.1714 H         1 UNK         0.0454 
     81 H81        22.4041  -23.8601  -42.4840 H         1 UNK         0.0851 
     82 H82        21.2132  -22.9750  -41.5482 H         1 UNK         0.0851 
     83 H83        21.6836  -22.3872  -43.1311 H         1 UNK         0.0851 
     84 H84        21.5836  -24.1874  -44.8982 H         1 UNK         0.2976 
     85 H85        19.6109  -28.9721  -41.2566 H         1 UNK         0.3116 
     86 H86        20.8408  -30.0997  -39.8526 H         1 UNK         0.0646 
     87 H87        19.2573  -28.8268  -37.5621 H         1 UNK         0.0847 
     88 H88        20.1907  -30.3126  -37.4909 H         1 UNK         0.0847 
     89 H89        18.7453  -30.2410  -38.4830 H         1 UNK         0.0847 
     90 H90        21.5398  -27.1538  -40.5001 H         1 UNK         0.3040 
     91 H91        23.7392  -26.8129  -38.4830 H         1 UNK         0.1015 
     92 H92        22.1667  -24.6838  -40.0261 H         1 UNK         0.0786 
     93 H93        23.5459  -24.3745  -38.9788 H         1 UNK         0.0786 
     94 H94        22.0553  -25.0121  -38.3012 H         1 UNK         0.0786 
     95 H95        22.7982  -26.3854  -41.9403 H         1 UNK         0.3172 
     96 H96        25.5253  -25.8883  -42.8034 H         1 UNK         0.0595 
     97 H97        24.4485  -26.1220  -45.1066 H         1 UNK         0.0839 
     98 H98        23.7224  -24.9009  -44.0830 H         1 UNK         0.0839 
     99 H99        22.9252  -26.4616  -44.2934 H         1 UNK         0.0839 
    100 H100       23.5916  -28.7948  -42.3276 H         1 UNK         0.2998 
    101 H101       25.8472  -30.5027  -42.7865 H         1 UNK         0.0822 
    102 H102       24.6984  -31.9368  -44.5164 H         1 UNK         0.0787 
    103 H103       23.4035  -30.7574  -44.6500 H         1 UNK         0.0787 
    104 H104       25.0367  -30.3401  -45.1627 H         1 UNK         0.0787 
    105 H105       25.3622  -32.6532  -42.0201 H         1 UNK         0.3055 
    106 H106       23.1556  -32.7883  -40.0345 H         1 UNK         0.1106 
    107 H107       24.4239  -34.7684  -39.1974 H         1 UNK         0.0828 
    108 H108       25.5974  -34.6008  -40.4951 H         1 UNK         0.0828 
    109 H109       25.4677  -33.3582  -39.2506 H         1 UNK         0.0828 
    110 H110       21.7830  -34.6462  -40.0178 H         1 UNK         0.2931 
    111 H111       21.4967  -36.1574  -42.5666 H         1 UNK         0.0412 
    112 H112       20.8692  -38.3743  -42.3037 H         1 UNK         0.3472 
    113 H113       20.9199  -39.1427  -40.7383 H         1 UNK         0.3472 
    114 H114       19.2488  -34.9546  -40.8539 H         1 UNK         0.0970 
    115 H115       19.0019  -36.1277  -42.1141 H         1 UNK         0.0970 
    116 H116       20.7255  -32.3760  -41.7538 H         1 UNK         0.0612 
    117 H117       19.1003  -32.6194  -41.1633 H         1 UNK         0.0612 
@<TRIPOS>BOND
     1    1    2 1    
     2    1   62 1    
     3    1   63 1    
     4    1   64 1    
     5    2    3 2    
     6    2    4 am   BACKBONE|DICT|INTERRES
     7    4    5 1    
     8    4   65 1    
     9    5    6 1    
    10    5   25 1    
    11    5   66 1    
    12    6    7 1    
    13    6   67 1    
    14    6   68 1    
    15    7    8 1    
    16    8    9 1    
    17    8   69 1    
    18    8   70 1    
    19    9   10 ar   
    20    9   14 ar   
    21   10   11 ar   
    22   10   71 1    
    23   11   12 ar   
    24   11   61 1    
    25   12   13 ar   
    26   12   72 1    
    27   13   14 ar   
    28   13   15 1    
    29   14   73 1    
    30   15   16 1    
    31   15   74 1    
    32   15   75 1    
    33   16   17 1    
    34   17   18 1    
    35   17   76 1    
    36   17   77 1    
    37   18   19 1    
    38   18   27 1    
    39   18   78 1    
    40   19   20 am   BACKBONE|DICT|INTERRES
    41   19   79 1    
    42   20   21 2    
    43   20   22 1    
    44   22   23 1    
    45   22   24 1    
    46   22   80 1    
    47   23   81 1    
    48   23   82 1    
    49   23   83 1    
    50   24   25 am   BACKBONE|DICT|INTERRES
    51   24   84 1    
    52   25   26 2    
    53   27   28 2    
    54   27   29 am   BACKBONE|DICT|INTERRES
    55   29   30 1    
    56   29   85 1    
    57   30   31 1    
    58   30   32 1    
    59   30   86 1    
    60   31   87 1    
    61   31   88 1    
    62   31   89 1    
    63   32   33 2    
    64   32   34 am   BACKBONE|DICT|INTERRES
    65   34   35 1    
    66   34   90 1    
    67   35   36 1    
    68   35   37 1    
    69   35   91 1    
    70   36   92 1    
    71   36   93 1    
    72   36   94 1    
    73   37   38 2    
    74   37   39 am   BACKBONE|DICT|INTERRES
    75   39   40 1    
    76   39   95 1    
    77   40   41 1    
    78   40   42 1    
    79   40   96 1    
    80   41   97 1    
    81   41   98 1    
    82   41   99 1    
    83   42   43 2    
    84   42   44 am   BACKBONE|DICT|INTERRES
    85   44   45 1    
    86   44  100 1    
    87   45   46 1    
    88   45   47 1    
    89   45  101 1    
    90   46  102 1    
    91   46  103 1    
    92   46  104 1    
    93   47   48 2    
    94   47   49 am   BACKBONE|DICT|INTERRES
    95   49   50 1    
    96   49  105 1    
    97   50   51 1    
    98   50   52 1    
    99   50  106 1    
   100   51  107 1    
   101   51  108 1    
   102   51  109 1    
   103   52   53 2    
   104   52   54 am   BACKBONE|DICT|INTERRES
   105   54   55 1    
   106   54  110 1    
   107   55   56 1    
   108   55   59 1    
   109   55  111 1    
   110   56   57 am   BACKBONE|DICT|INTERRES
   111   56   58 2    
   112   57  112 1    
   113   57  113 1    
   114   59   60 1    
   115   59  114 1    
   116   59  115 1    
   117   60   61 1    
   118   61  116 1    
   119   61  117 1    
@<TRIPOS>SUBSTRUCTURE
     1 UNK         1 GROUP             0       ****    0 ROOT    
