@<TRIPOS>MOLECULE
3R8
117   119    1
SMALL
USER_CHARGES


@<TRIPOS>ATOM
      1 CA         13.9599  -23.6181  -45.6214 C.3       0 UNK        -0.2013 
      2 C          15.2728  -24.3853  -45.6517 C.2       0 UNK         0.4866 
      3 O          15.8024  -24.6558  -46.7308 O.2       0 UNK        -0.5176 
      4 N          15.8111  -24.7366  -44.4770 N.am      1 UNK        -0.4884 
      5 CA         17.0629  -25.4829  -44.3048 C.3       1 UNK         0.0853 
      6 C6         17.1131  -26.2224  -42.9395 C.3       10 UNK        -0.0849 
      7 S7         15.7595  -27.4247  -42.6877 S.3       10 UNK        -0.2776 
      8 C8         16.1265  -28.7423  -43.8963 C.3       10 UNK         0.0316 
      9 C9         17.4643  -29.4256  -43.6448 C.ar      10 UNK        -0.0863 
     10 C10        17.5496  -30.5314  -42.7942 C.ar      10 UNK        -0.1009 
     11 C11        18.7753  -31.1721  -42.5921 C.ar      10 UNK        -0.0712 
     12 C12        19.9165  -30.7013  -43.2482 C.ar      10 UNK        -0.0894 
     13 C13        19.8572  -29.5791  -44.0785 C.ar      10 UNK        -0.0745 
     14 C14        18.6177  -28.9584  -44.2804 C.ar      10 UNK        -0.0972 
     15 C15        21.1544  -29.0386  -44.6854 C.3       10 UNK         0.0209 
     16 S16        20.9181  -27.9877  -46.1570 S.3       10 UNK        -0.2568 
     17 C17        22.4842  -27.0505  -46.2138 C.3       10 UNK        -0.0983 
     18 CA         22.4105  -25.6257  -45.5925 C.3       3 UNK         0.0876 
     19 N          21.1613  -24.9353  -45.9344 N.am      3 UNK        -0.4424 
     20 C          20.9629  -23.6115  -45.9150 C.2       2 UNK         0.4918 
     21 O          21.8521  -22.7896  -45.6940 O.2       2 UNK        -0.4875 
     22 CA         19.5205  -23.1205  -46.1501 C.3       2 UNK         0.0481 
     23 CB         19.3181  -22.7488  -47.6272 C.3       2 UNK        -0.1831 
     24 N          18.4685  -24.0635  -45.7419 N.am      2 UNK        -0.4498 
     25 C          18.2888  -24.5648  -44.5109 C.2       1 UNK         0.5027 
     26 O          19.0433  -24.3240  -43.5673 O.2       1 UNK        -0.4969 
     27 C          22.7291  -25.6201  -44.0767 C.2       3 UNK         0.5005 
     28 O          23.8491  -25.9818  -43.7139 O.2       3 UNK        -0.5279 
     29 N          21.7778  -25.1921  -43.2270 N.am      4 UNK        -0.4463 
     30 CA         21.9001  -24.9859  -41.7776 C.3       4 UNK         0.0283 
     31 CB         22.8465  -23.8040  -41.4780 C.3       4 UNK        -0.1875 
     32 C          22.2833  -26.2680  -41.0180 C.2       4 UNK         0.4949 
     33 O          23.2684  -26.2816  -40.2773 O.2       4 UNK        -0.5039 
     34 N          21.5075  -27.3365  -41.2495 N.am      5 UNK        -0.4663 
     35 CA         21.6262  -28.6999  -40.7054 C.3       5 UNK         0.0242 
     36 CB         21.5276  -28.7127  -39.1675 C.3       5 UNK        -0.1982 
     37 C          22.8635  -29.4823  -41.1828 C.2       5 UNK         0.5017 
     38 O          22.7460  -30.6755  -41.4611 O.2       5 UNK        -0.5012 
     39 N          24.0252  -28.8172  -41.2555 N.am      6 UNK        -0.4439 
     40 CA         25.3201  -29.2961  -41.7650 C.3       6 UNK         0.0297 
     41 CB         25.2318  -29.4964  -43.2931 C.3       6 UNK        -0.2006 
     42 C          25.8789  -30.5519  -41.0584 C.2       6 UNK         0.4892 
     43 O          26.7606  -31.2114  -41.6108 O.2       6 UNK        -0.5089 
     44 N          25.3337  -30.8778  -39.8748 N.am      7 UNK        -0.4243 
     45 CA         25.4956  -32.1316  -39.1250 C.3       7 UNK         0.0196 
     46 CB         26.9411  -32.2823  -38.6047 C.3       7 UNK        -0.2007 
     47 C          25.0075  -33.3806  -39.8961 C.2       7 UNK         0.5020 
     48 O          25.4243  -34.4937  -39.5722 O.2       7 UNK        -0.5147 
     49 N          24.1377  -33.1870  -40.8984 N.am      8 UNK        -0.4734 
     50 CA         23.6256  -34.2440  -41.7736 C.3       8 UNK         0.0238 
     51 CB         23.4114  -33.6578  -43.1793 C.3       8 UNK        -0.1912 
     52 C          22.3217  -34.8690  -41.2539 C.2       8 UNK         0.5038 
     53 O          21.9855  -35.9783  -41.6711 O.2       8 UNK        -0.5046 
     54 N          21.6014  -34.1476  -40.3859 N.am      9 UNK        -0.4200 
     55 CA         20.3195  -34.5638  -39.8002 C.3       9 UNK         0.0839 
     56 C          20.4602  -35.7844  -38.8504 C.2       9 UNK         0.5513 
     57 N          19.4672  -36.6625  -38.8172 N.am      9 UNK        -0.7519 
     58 O          21.4348  -35.9153  -38.1126 O.2       9 UNK        -0.4960 
     59 C59        19.6089  -33.3891  -39.0746 C.3       10 UNK        -0.0876 
     60 S60        19.4881  -31.8283  -40.0194 S.3       10 UNK        -0.2414 
     61 C61        18.8820  -32.3607  -41.6513 C.3       10 UNK         0.0169 
     62 H62        13.1916  -24.1692  -46.1629 H         1 UNK         0.0903 
     63 H63        13.6062  -23.4548  -44.6035 H         1 UNK         0.0903 
     64 H64        14.0827  -22.6462  -46.0984 H         1 UNK         0.0903 
     65 H65        15.3393  -24.4815  -43.6205 H         1 UNK         0.3096 
     66 H66        17.1171  -26.2358  -45.0924 H         1 UNK         0.1121 
     67 H67        18.0645  -26.7383  -42.8047 H         1 UNK         0.0849 
     68 H68        17.0611  -25.4996  -42.1228 H         1 UNK         0.0849 
     69 H69        15.3268  -29.4832  -43.8509 H         1 UNK         0.0865 
     70 H70        16.0895  -28.3366  -44.9080 H         1 UNK         0.0865 
     71 H71        16.6639  -30.8908  -42.2881 H         1 UNK         0.1346 
     72 H72        20.8633  -31.1943  -43.0801 H         1 UNK         0.1412 
     73 H73        18.5409  -28.0955  -44.9231 H         1 UNK         0.1426 
     74 H74        21.8132  -29.8656  -44.9551 H         1 UNK         0.0716 
     75 H75        21.6751  -28.4659  -43.9183 H         1 UNK         0.0716 
     76 H76        22.7436  -26.9534  -47.2690 H         1 UNK         0.0695 
     77 H77        23.2905  -27.6449  -45.7791 H         1 UNK         0.0695 
     78 H78        23.2217  -25.0489  -46.0429 H         1 UNK         0.0983 
     79 H79        20.3812  -25.5387  -46.1518 H         1 UNK         0.3095 
     80 H80        19.3884  -22.2164  -45.5526 H         1 UNK         0.0454 
     81 H81        20.0652  -22.0244  -47.9548 H         1 UNK         0.0851 
     82 H82        18.3393  -22.2985  -47.7934 H         1 UNK         0.0851 
     83 H83        19.4016  -23.6203  -48.2778 H         1 UNK         0.0851 
     84 H84        17.7542  -24.2795  -46.4315 H         1 UNK         0.2976 
     85 H85        20.8786  -24.9152  -43.6114 H         1 UNK         0.3116 
     86 H86        20.9071  -24.7055  -41.4228 H         1 UNK         0.0646 
     87 H87        23.8716  -24.0169  -41.7829 H         1 UNK         0.0847 
     88 H88        22.5248  -22.8989  -41.9931 H         1 UNK         0.0847 
     89 H89        22.8655  -23.5801  -40.4107 H         1 UNK         0.0847 
     90 H90        20.7488  -27.2097  -41.9047 H         1 UNK         0.3040 
     91 H91        20.7573  -29.2396  -41.0820 H         1 UNK         0.1015 
     92 H92        21.5189  -29.7357  -38.7886 H         1 UNK         0.0786 
     93 H93        20.6081  -28.2366  -38.8274 H         1 UNK         0.0786 
     94 H94        22.3660  -28.2011  -38.6943 H         1 UNK         0.0786 
     95 H95        23.9981  -27.8443  -40.9534 H         1 UNK         0.3172 
     96 H96        26.0355  -28.4953  -41.5733 H         1 UNK         0.0595 
     97 H97        24.5710  -30.3241  -43.5537 H         1 UNK         0.0839 
     98 H98        26.2110  -29.7144  -43.7209 H         1 UNK         0.0839 
     99 H99        24.8580  -28.6006  -43.7889 H         1 UNK         0.0839 
    100 H100       24.6234  -30.2525  -39.5214 H         1 UNK         0.2998 
    101 H101       24.8418  -32.0478  -38.2557 H         1 UNK         0.0822 
    102 H102       27.0245  -33.1256  -37.9181 H         1 UNK         0.0787 
    103 H103       27.2627  -31.3930  -38.0626 H         1 UNK         0.0787 
    104 H104       27.6484  -32.4553  -39.4162 H         1 UNK         0.0787 
    105 H105       23.8121  -32.2430  -41.0946 H         1 UNK         0.3055 
    106 H106       24.3645  -35.0452  -41.8487 H         1 UNK         0.1106 
    107 H107       24.3377  -33.2478  -43.5825 H         1 UNK         0.0828 
    108 H108       23.0662  -34.4241  -43.8746 H         1 UNK         0.0828 
    109 H109       22.6671  -32.8610  -43.1761 H         1 UNK         0.0828 
    110 H110       21.9521  -33.2454  -40.1021 H         1 UNK         0.2931 
    111 H111       19.6834  -34.8785  -40.6294 H         1 UNK         0.0412 
    112 H112       19.5322  -37.4527  -38.1941 H         1 UNK         0.3472 
    113 H113       18.6582  -36.5593  -39.4106 H         1 UNK         0.3472 
    114 H114       18.5976  -33.6846  -38.7892 H         1 UNK         0.0970 
    115 H115       20.1250  -33.1575  -38.1407 H         1 UNK         0.0970 
    116 H116       19.5632  -33.0924  -42.0861 H         1 UNK         0.0612 
    117 H117       17.9157  -32.8546  -41.5387 H         1 UNK         0.0612 
@<TRIPOS>BOND
     1    1    2 1    
     2    1   62 1    
     3    1   63 1    
     4    1   64 1    
     5    2    3 2    
     6    2    4 am   BACKBONE|DICT|INTERRES
     7    4    5 1    
     8    4   65 1    
     9    5    6 1    
    10    5   25 1    
    11    5   66 1    
    12    6    7 1    
    13    6   67 1    
    14    6   68 1    
    15    7    8 1    
    16    8    9 1    
    17    8   69 1    
    18    8   70 1    
    19    9   10 ar   
    20    9   14 ar   
    21   10   11 ar   
    22   10   71 1    
    23   11   12 ar   
    24   11   61 1    
    25   12   13 ar   
    26   12   72 1    
    27   13   14 ar   
    28   13   15 1    
    29   14   73 1    
    30   15   16 1    
    31   15   74 1    
    32   15   75 1    
    33   16   17 1    
    34   17   18 1    
    35   17   76 1    
    36   17   77 1    
    37   18   19 1    
    38   18   27 1    
    39   18   78 1    
    40   19   20 am   BACKBONE|DICT|INTERRES
    41   19   79 1    
    42   20   21 2    
    43   20   22 1    
    44   22   23 1    
    45   22   24 1    
    46   22   80 1    
    47   23   81 1    
    48   23   82 1    
    49   23   83 1    
    50   24   25 am   BACKBONE|DICT|INTERRES
    51   24   84 1    
    52   25   26 2    
    53   27   28 2    
    54   27   29 am   BACKBONE|DICT|INTERRES
    55   29   30 1    
    56   29   85 1    
    57   30   31 1    
    58   30   32 1    
    59   30   86 1    
    60   31   87 1    
    61   31   88 1    
    62   31   89 1    
    63   32   33 2    
    64   32   34 am   BACKBONE|DICT|INTERRES
    65   34   35 1    
    66   34   90 1    
    67   35   36 1    
    68   35   37 1    
    69   35   91 1    
    70   36   92 1    
    71   36   93 1    
    72   36   94 1    
    73   37   38 2    
    74   37   39 am   BACKBONE|DICT|INTERRES
    75   39   40 1    
    76   39   95 1    
    77   40   41 1    
    78   40   42 1    
    79   40   96 1    
    80   41   97 1    
    81   41   98 1    
    82   41   99 1    
    83   42   43 2    
    84   42   44 am   BACKBONE|DICT|INTERRES
    85   44   45 1    
    86   44  100 1    
    87   45   46 1    
    88   45   47 1    
    89   45  101 1    
    90   46  102 1    
    91   46  103 1    
    92   46  104 1    
    93   47   48 2    
    94   47   49 am   BACKBONE|DICT|INTERRES
    95   49   50 1    
    96   49  105 1    
    97   50   51 1    
    98   50   52 1    
    99   50  106 1    
   100   51  107 1    
   101   51  108 1    
   102   51  109 1    
   103   52   53 2    
   104   52   54 am   BACKBONE|DICT|INTERRES
   105   54   55 1    
   106   54  110 1    
   107   55   56 1    
   108   55   59 1    
   109   55  111 1    
   110   56   57 am   BACKBONE|DICT|INTERRES
   111   56   58 2    
   112   57  112 1    
   113   57  113 1    
   114   59   60 1    
   115   59  114 1    
   116   59  115 1    
   117   60   61 1    
   118   61  116 1    
   119   61  117 1    
@<TRIPOS>SUBSTRUCTURE
     1 UNK         1 GROUP             0       ****    0 ROOT    
