@<TRIPOS>MOLECULE
3R8
117   119    1
SMALL
USER_CHARGES


@<TRIPOS>ATOM
      1 CA         15.1230  -25.9806  -42.0610 C.3       0 UNK        -0.2013 
      2 C          16.3157  -26.9176  -42.2322 C.2       0 UNK         0.4866 
      3 O          16.5274  -27.7757  -41.3793 O.2       0 UNK        -0.5176 
      4 N          17.1143  -26.7994  -43.3007 N.am      1 UNK        -0.4884 
      5 CA         17.0108  -25.8078  -44.3724 C.3       1 UNK         0.0853 
      6 C6         16.0888  -26.2713  -45.5409 C.3       10 UNK        -0.0849 
      7 S7         16.7417  -27.5579  -46.6668 S.3       10 UNK        -0.2776 
      8 C8         16.2350  -29.1189  -45.8728 C.3       10 UNK         0.0316 
      9 C9         17.3799  -29.7724  -45.1083 C.ar      10 UNK        -0.0863 
     10 C10        17.2189  -30.1419  -43.7690 C.ar      10 UNK        -0.1009 
     11 C11        18.2569  -30.7717  -43.0752 C.ar      10 UNK        -0.0712 
     12 C12        19.4701  -31.0115  -43.7259 C.ar      10 UNK        -0.0894 
     13 C13        19.6398  -30.6654  -45.0682 C.ar      10 UNK        -0.0745 
     14 C14        18.5876  -30.0555  -45.7560 C.ar      10 UNK        -0.0972 
     15 C15        20.9506  -30.9773  -45.7780 C.3       10 UNK         0.0209 
     16 S16        21.7943  -29.4809  -46.3802 S.3       10 UNK        -0.2568 
     17 C17        22.1704  -28.6255  -44.8158 C.3       10 UNK        -0.0983 
     18 CA         22.4064  -27.1101  -45.0223 C.3       3 UNK         0.0876 
     19 N          21.2529  -26.4433  -45.6378 N.am      3 UNK        -0.4424 
     20 C          21.2745  -25.2113  -46.1641 C.2       2 UNK         0.4918 
     21 O          22.2974  -24.5337  -46.2675 O.2       2 UNK        -0.4875 
     22 CA         19.9357  -24.6108  -46.6359 C.3       2 UNK         0.0481 
     23 CB         19.8291  -24.6973  -48.1669 C.3       2 UNK        -0.1831 
     24 N          18.7216  -25.1889  -46.0439 N.am      2 UNK        -0.4498 
     25 C          18.4229  -25.3048  -44.7420 C.2       1 UNK         0.5027 
     26 O          19.2111  -25.0179  -43.8376 O.2       1 UNK        -0.4969 
     27 C          22.8361  -26.4604  -43.6890 C.2       3 UNK         0.5005 
     28 O          23.9542  -26.7192  -43.2449 O.2       3 UNK        -0.5279 
     29 N          21.9560  -25.6651  -43.0536 N.am      4 UNK        -0.4463 
     30 CA         22.1838  -24.9117  -41.8104 C.3       4 UNK         0.0283 
     31 CB         23.1498  -23.7370  -42.0714 C.3       4 UNK        -0.1875 
     32 C          22.6308  -25.7914  -40.6235 C.2       4 UNK         0.4949 
     33 O          23.4144  -25.3448  -39.7847 O.2       4 UNK        -0.5039 
     34 N          22.1363  -27.0378  -40.6015 N.am      5 UNK        -0.4663 
     35 CA         22.4642  -28.1157  -39.6624 C.3       5 UNK         0.0242 
     36 CB         22.0118  -27.7596  -38.2298 C.3       5 UNK        -0.1982 
     37 C          23.9318  -28.5957  -39.7244 C.2       5 UNK         0.5017 
     38 O          24.3977  -29.2194  -38.7688 O.2       5 UNK        -0.5012 
     39 N          24.6312  -28.3503  -40.8445 N.am      6 UNK        -0.4439 
     40 CA         25.9852  -28.8625  -41.0925 C.3       6 UNK         0.0297 
     41 CB         26.6829  -27.9828  -42.1424 C.3       6 UNK        -0.2006 
     42 C          26.0065  -30.3393  -41.5351 C.2       6 UNK         0.4892 
     43 O          27.0714  -30.9574  -41.4982 O.2       6 UNK        -0.5089 
     44 N          24.8531  -30.8764  -41.9499 N.am      7 UNK        -0.4243 
     45 CA         24.6500  -32.2600  -42.3692 C.3       7 UNK         0.0196 
     46 CB         24.7892  -32.3551  -43.8985 C.3       7 UNK        -0.2007 
     47 C          23.2550  -32.7043  -41.9179 C.2       7 UNK         0.5020 
     48 O          22.3910  -31.8486  -41.7109 O.2       7 UNK        -0.5147 
     49 N          23.0641  -34.0247  -41.7808 N.am      8 UNK        -0.4734 
     50 CA         21.8425  -34.7268  -41.3543 C.3       8 UNK         0.0238 
     51 CB         20.7529  -34.6593  -42.4456 C.3       8 UNK        -0.1912 
     52 C          21.3412  -34.2729  -39.9700 C.2       8 UNK         0.5038 
     53 O          21.7097  -34.8845  -38.9665 O.2       8 UNK        -0.5046 
     54 N          20.5384  -33.2025  -39.9435 N.am      9 UNK        -0.4200 
     55 CA         20.1392  -32.4643  -38.7358 C.3       9 UNK         0.0839 
     56 C          21.3021  -31.6908  -38.0495 C.2       9 UNK         0.5513 
     57 N          22.4102  -31.4413  -38.7342 N.am      9 UNK        -0.7519 
     58 O          21.1935  -31.3227  -36.8830 O.2       9 UNK        -0.4960 
     59 C59        18.9214  -31.5379  -39.0074 C.3       10 UNK        -0.0876 
     60 S60        19.1374  -30.4311  -40.4512 S.3       10 UNK        -0.2414 
     61 C61        18.0477  -31.2606  -41.6494 C.3       10 UNK         0.0169 
     62 H62        15.4588  -24.9754  -41.8080 H         1 UNK         0.0903 
     63 H63        14.5157  -25.9343  -42.9635 H         1 UNK         0.0903 
     64 H64        14.4799  -26.3285  -41.2528 H         1 UNK         0.0903 
     65 H65        17.9040  -27.4250  -43.3807 H         1 UNK         0.3096 
     66 H66        16.5493  -24.9095  -43.9589 H         1 UNK         0.1121 
     67 H67        15.8392  -25.4069  -46.1590 H         1 UNK         0.0849 
     68 H68        15.1293  -26.6091  -45.1485 H         1 UNK         0.0849 
     69 H69        15.3737  -28.9493  -45.2252 H         1 UNK         0.0865 
     70 H70        15.9006  -29.8099  -46.6476 H         1 UNK         0.0865 
     71 H71        16.2787  -29.9544  -43.2683 H         1 UNK         0.1346 
     72 H72        20.2804  -31.4793  -43.1871 H         1 UNK         0.1412 
     73 H73        18.7134  -29.7930  -46.7979 H         1 UNK         0.1426 
     74 H74        20.7465  -31.6319  -46.6262 H         1 UNK         0.0716 
     75 H75        21.6286  -31.5262  -45.1223 H         1 UNK         0.0716 
     76 H76        23.0534  -29.1021  -44.3847 H         1 UNK         0.0695 
     77 H77        21.3581  -28.7850  -44.1049 H         1 UNK         0.0695 
     78 H78        23.2522  -26.9944  -45.7039 H         1 UNK         0.0983 
     79 H79        20.3804  -26.9500  -45.6247 H         1 UNK         0.3095 
     80 H80        19.9492  -23.5555  -46.3572 H         1 UNK         0.0454 
     81 H81        19.7655  -25.7315  -48.5079 H         1 UNK         0.0851 
     82 H82        20.7000  -24.2489  -48.6474 H         1 UNK         0.0851 
     83 H83        18.9515  -24.1665  -48.5363 H         1 UNK         0.0851 
     84 H84        18.0273  -25.5232  -46.6998 H         1 UNK         0.2976 
     85 H85        21.0399  -25.5259  -43.4744 H         1 UNK         0.3116 
     86 H86        21.2176  -24.4903  -41.5291 H         1 UNK         0.0646 
     87 H87        22.8079  -23.1196  -42.9021 H         1 UNK         0.0847 
     88 H88        24.1556  -24.0875  -42.3059 H         1 UNK         0.0847 
     89 H89        23.2261  -23.0888  -41.1976 H         1 UNK         0.0847 
     90 H90        21.4979  -27.2892  -41.3435 H         1 UNK         0.3040 
     91 H91        21.8686  -28.9718  -39.9834 H         1 UNK         0.1015 
     92 H92        22.6062  -26.9508  -37.8046 H         1 UNK         0.0786 
     93 H93        22.1090  -28.6167  -37.5626 H         1 UNK         0.0786 
     94 H94        20.9650  -27.4569  -38.2093 H         1 UNK         0.0786 
     95 H95        24.2163  -27.7896  -41.5845 H         1 UNK         0.3172 
     96 H96        26.5581  -28.7898  -40.1656 H         1 UNK         0.0595 
     97 H97        26.2165  -28.0781  -43.1235 H         1 UNK         0.0839 
     98 H98        27.7300  -28.2673  -42.2543 H         1 UNK         0.0839 
     99 H99        26.6608  -26.9299  -41.8604 H         1 UNK         0.0839 
    100 H100       24.0044  -30.3294  -41.8912 H         1 UNK         0.2998 
    101 H101       25.3894  -32.9051  -41.8895 H         1 UNK         0.0822 
    102 H102       25.7862  -32.0566  -44.2232 H         1 UNK         0.0787 
    103 H103       24.6269  -33.3757  -44.2472 H         1 UNK         0.0787 
    104 H104       24.0674  -31.7155  -44.4084 H         1 UNK         0.0787 
    105 H105       23.8564  -34.6283  -41.9559 H         1 UNK         0.3055 
    106 H106       22.1165  -35.7777  -41.2430 H         1 UNK         0.1106 
    107 H107       20.4777  -33.6383  -42.6988 H         1 UNK         0.0828 
    108 H108       19.8453  -35.1729  -42.1253 H         1 UNK         0.0828 
    109 H109       21.0887  -35.1436  -43.3625 H         1 UNK         0.0828 
    110 H110       20.3882  -32.7109  -40.8131 H         1 UNK         0.2931 
    111 H111       19.8135  -33.2088  -38.0068 H         1 UNK         0.0412 
    112 H112       23.1621  -30.9132  -38.3125 H         1 UNK         0.3472 
    113 H113       22.4532  -31.6939  -39.7137 H         1 UNK         0.3472 
    114 H114       18.6976  -30.9247  -38.1322 H         1 UNK         0.0970 
    115 H115       18.0311  -32.1508  -39.1547 H         1 UNK         0.0970 
    116 H116       18.2295  -32.3359  -41.6242 H         1 UNK         0.0612 
    117 H117       17.0122  -31.1145  -41.3379 H         1 UNK         0.0612 
@<TRIPOS>BOND
     1    1    2 1    
     2    1   62 1    
     3    1   63 1    
     4    1   64 1    
     5    2    3 2    
     6    2    4 am   BACKBONE|DICT|INTERRES
     7    4    5 1    
     8    4   65 1    
     9    5    6 1    
    10    5   25 1    
    11    5   66 1    
    12    6    7 1    
    13    6   67 1    
    14    6   68 1    
    15    7    8 1    
    16    8    9 1    
    17    8   69 1    
    18    8   70 1    
    19    9   10 ar   
    20    9   14 ar   
    21   10   11 ar   
    22   10   71 1    
    23   11   12 ar   
    24   11   61 1    
    25   12   13 ar   
    26   12   72 1    
    27   13   14 ar   
    28   13   15 1    
    29   14   73 1    
    30   15   16 1    
    31   15   74 1    
    32   15   75 1    
    33   16   17 1    
    34   17   18 1    
    35   17   76 1    
    36   17   77 1    
    37   18   19 1    
    38   18   27 1    
    39   18   78 1    
    40   19   20 am   BACKBONE|DICT|INTERRES
    41   19   79 1    
    42   20   21 2    
    43   20   22 1    
    44   22   23 1    
    45   22   24 1    
    46   22   80 1    
    47   23   81 1    
    48   23   82 1    
    49   23   83 1    
    50   24   25 am   BACKBONE|DICT|INTERRES
    51   24   84 1    
    52   25   26 2    
    53   27   28 2    
    54   27   29 am   BACKBONE|DICT|INTERRES
    55   29   30 1    
    56   29   85 1    
    57   30   31 1    
    58   30   32 1    
    59   30   86 1    
    60   31   87 1    
    61   31   88 1    
    62   31   89 1    
    63   32   33 2    
    64   32   34 am   BACKBONE|DICT|INTERRES
    65   34   35 1    
    66   34   90 1    
    67   35   36 1    
    68   35   37 1    
    69   35   91 1    
    70   36   92 1    
    71   36   93 1    
    72   36   94 1    
    73   37   38 2    
    74   37   39 am   BACKBONE|DICT|INTERRES
    75   39   40 1    
    76   39   95 1    
    77   40   41 1    
    78   40   42 1    
    79   40   96 1    
    80   41   97 1    
    81   41   98 1    
    82   41   99 1    
    83   42   43 2    
    84   42   44 am   BACKBONE|DICT|INTERRES
    85   44   45 1    
    86   44  100 1    
    87   45   46 1    
    88   45   47 1    
    89   45  101 1    
    90   46  102 1    
    91   46  103 1    
    92   46  104 1    
    93   47   48 2    
    94   47   49 am   BACKBONE|DICT|INTERRES
    95   49   50 1    
    96   49  105 1    
    97   50   51 1    
    98   50   52 1    
    99   50  106 1    
   100   51  107 1    
   101   51  108 1    
   102   51  109 1    
   103   52   53 2    
   104   52   54 am   BACKBONE|DICT|INTERRES
   105   54   55 1    
   106   54  110 1    
   107   55   56 1    
   108   55   59 1    
   109   55  111 1    
   110   56   57 am   BACKBONE|DICT|INTERRES
   111   56   58 2    
   112   57  112 1    
   113   57  113 1    
   114   59   60 1    
   115   59  114 1    
   116   59  115 1    
   117   60   61 1    
   118   61  116 1    
   119   61  117 1    
@<TRIPOS>SUBSTRUCTURE
     1 UNK         1 GROUP             0       ****    0 ROOT    
