@<TRIPOS>MOLECULE
3R8
117   119    1
SMALL
USER_CHARGES


@<TRIPOS>ATOM
      1 CA         15.6955  -23.7236  -41.0887 C.3       0 UNK        -0.2013 
      2 C          15.9731  -23.9236  -42.5712 C.2       0 UNK         0.4866 
      3 O          16.0560  -22.9463  -43.3162 O.2       0 UNK        -0.5176 
      4 N          16.1080  -25.1823  -43.0063 N.am      1 UNK        -0.4884 
      5 CA         16.4373  -25.5586  -44.3845 C.3       1 UNK         0.0853 
      6 C6         16.1953  -27.0665  -44.6355 C.3       10 UNK        -0.0849 
      7 S7         14.4236  -27.5066  -44.6511 S.3       10 UNK        -0.2776 
      8 C8         14.3971  -29.1165  -43.7775 C.3       10 UNK         0.0316 
      9 C9         15.4486  -30.1253  -44.2449 C.ar      10 UNK        -0.0863 
     10 C10        16.0265  -30.9891  -43.3079 C.ar      10 UNK        -0.1009 
     11 C11        17.0404  -31.8767  -43.6815 C.ar      10 UNK        -0.0712 
     12 C12        17.4737  -31.9030  -45.0094 C.ar      10 UNK        -0.0894 
     13 C13        16.9013  -31.0526  -45.9593 C.ar      10 UNK        -0.0745 
     14 C14        15.8682  -30.1919  -45.5798 C.ar      10 UNK        -0.0972 
     15 C15        17.4540  -31.0097  -47.3774 C.3       10 UNK         0.0209 
     16 S16        18.4400  -29.5009  -47.6788 S.3       10 UNK        -0.2568 
     17 C17        19.5704  -29.5084  -46.2439 C.3       10 UNK        -0.0983 
     18 CA         20.5647  -28.3213  -46.1982 C.3       3 UNK         0.0876 
     19 N          19.8697  -27.0415  -46.3578 N.am      3 UNK        -0.4424 
     20 C          20.4312  -25.8423  -46.5560 C.2       2 UNK         0.4918 
     21 O          21.6402  -25.6686  -46.7044 O.2       2 UNK        -0.4875 
     22 CA         19.4822  -24.6252  -46.5716 C.3       2 UNK         0.0481 
     23 CB         19.3226  -24.0911  -48.0042 C.3       2 UNK        -0.1831 
     24 N          18.1503  -24.8894  -46.0062 N.am      2 UNK        -0.4498 
     25 C          17.9000  -25.2083  -44.7269 C.2       1 UNK         0.5027 
     26 O          18.7784  -25.3155  -43.8676 O.2       1 UNK        -0.4969 
     27 C          21.3850  -28.4144  -44.8893 C.2       3 UNK         0.5005 
     28 O          22.1831  -29.3448  -44.7630 O.2       3 UNK        -0.5279 
     29 N          21.1343  -27.5134  -43.9239 N.am      4 UNK        -0.4463 
     30 CA         21.7653  -27.4665  -42.6022 C.3       4 UNK         0.0283 
     31 CB         21.1538  -26.3114  -41.7938 C.3       4 UNK        -0.1875 
     32 C          23.2971  -27.3315  -42.6494 C.2       4 UNK         0.4949 
     33 O          23.8326  -26.6241  -43.5044 O.2       4 UNK        -0.5039 
     34 N          23.9600  -27.9786  -41.6888 N.am      5 UNK        -0.4663 
     35 CA         25.4001  -27.9430  -41.4584 C.3       5 UNK         0.0242 
     36 CB         26.0922  -29.0168  -42.3173 C.3       5 UNK        -0.1982 
     37 C          25.6490  -28.1749  -39.9629 C.2       5 UNK         0.5017 
     38 O          24.7461  -28.6351  -39.2560 O.2       5 UNK        -0.5012 
     39 N          26.8696  -27.8713  -39.5035 N.am      6 UNK        -0.4439 
     40 CA         27.3088  -27.9559  -38.1044 C.3       6 UNK         0.0297 
     41 CB         28.5396  -27.0482  -37.9164 C.3       6 UNK        -0.2006 
     42 C          27.5585  -29.4011  -37.6167 C.2       6 UNK         0.4892 
     43 O          28.6223  -29.6929  -37.0669 O.2       6 UNK        -0.5089 
     44 N          26.5684  -30.2744  -37.8181 N.am      7 UNK        -0.4243 
     45 CA         26.5282  -31.6641  -37.3707 C.3       7 UNK         0.0196 
     46 CB         27.4830  -32.5518  -38.1959 C.3       7 UNK        -0.2007 
     47 C          25.0803  -32.1538  -37.4542 C.2       7 UNK         0.5020 
     48 O          24.4827  -32.4826  -36.4297 O.2       7 UNK        -0.5147 
     49 N          24.5353  -32.1492  -38.6741 N.am      8 UNK        -0.4734 
     50 CA         23.1580  -32.4863  -39.0203 C.3       8 UNK         0.0238 
     51 CB         22.9371  -34.0096  -38.9370 C.3       8 UNK        -0.1912 
     52 C          22.8998  -31.9754  -40.4425 C.2       8 UNK         0.5038 
     53 O          23.8584  -31.7607  -41.1901 O.2       8 UNK        -0.5046 
     54 N          21.6224  -31.7966  -40.7937 N.am      9 UNK        -0.4200 
     55 CA         21.1859  -31.4212  -42.1445 C.3       9 UNK         0.0839 
     56 C          21.3951  -32.5494  -43.1900 C.2       9 UNK         0.5513 
     57 N          21.7384  -32.1884  -44.4182 N.am      9 UNK        -0.7519 
     58 O          21.2220  -33.7329  -42.9068 O.2       9 UNK        -0.4960 
     59 C59        19.7362  -30.8656  -42.1602 C.3       10 UNK        -0.0876 
     60 S60        18.4977  -31.8954  -41.2921 S.3       10 UNK        -0.2414 
     61 C61        17.6844  -32.7978  -42.6528 C.3       10 UNK         0.0169 
     62 H62        15.6318  -24.6710  -40.5538 H         1 UNK         0.0903 
     63 H63        16.4901  -23.1313  -40.6356 H         1 UNK         0.0903 
     64 H64        14.7538  -23.1930  -40.9514 H         1 UNK         0.0903 
     65 H65        16.0417  -25.9458  -42.3490 H         1 UNK         0.3096 
     66 H66        15.7906  -24.9836  -45.0517 H         1 UNK         0.1121 
     67 H67        16.7237  -27.6647  -43.8901 H         1 UNK         0.0849 
     68 H68        16.5970  -27.3698  -45.6044 H         1 UNK         0.0849 
     69 H69        14.5200  -28.9186  -42.7114 H         1 UNK         0.0865 
     70 H70        13.4087  -29.5624  -43.8944 H         1 UNK         0.0865 
     71 H71        15.7066  -30.9571  -42.2750 H         1 UNK         0.1346 
     72 H72        18.2787  -32.5652  -45.2984 H         1 UNK         0.1412 
     73 H73        15.4341  -29.5332  -46.3192 H         1 UNK         0.1426 
     74 H74        18.0755  -31.8844  -47.5757 H         1 UNK         0.0716 
     75 H75        16.6314  -31.0483  -48.0929 H         1 UNK         0.0716 
     76 H76        18.9608  -29.4972  -45.3388 H         1 UNK         0.0695 
     77 H77        20.1069  -30.4593  -46.2445 H         1 UNK         0.0695 
     78 H78        21.2678  -28.4229  -47.0276 H         1 UNK         0.0983 
     79 H79        18.8644  -27.0865  -46.3036 H         1 UNK         0.3095 
     80 H80        19.9493  -23.8451  -45.9669 H         1 UNK         0.0454 
     81 H81        18.8443  -24.8218  -48.6575 H         1 UNK         0.0851 
     82 H82        18.7268  -23.1784  -48.0251 H         1 UNK         0.0851 
     83 H83        20.2925  -23.8501  -48.4419 H         1 UNK         0.0851 
     84 H84        17.3756  -24.8337  -46.6528 H         1 UNK         0.2976 
     85 H85        20.4581  -26.7843  -44.1153 H         1 UNK         0.3116 
     86 H86        21.5203  -28.3958  -42.0904 H         1 UNK         0.0646 
     87 H87        21.3139  -25.3499  -42.2834 H         1 UNK         0.0847 
     88 H88        21.5958  -26.2488  -40.7985 H         1 UNK         0.0847 
     89 H89        20.0799  -26.4437  -41.6610 H         1 UNK         0.0847 
     90 H90        23.4509  -28.4828  -40.9734 H         1 UNK         0.3040 
     91 H91        25.7847  -26.9544  -41.7198 H         1 UNK         0.1015 
     92 H92        25.9030  -28.8568  -43.3791 H         1 UNK         0.0786 
     93 H93        25.7432  -30.0189  -42.0659 H         1 UNK         0.0786 
     94 H94        27.1735  -29.0017  -42.1766 H         1 UNK         0.0786 
     95 H95        27.5609  -27.5440  -40.1635 H         1 UNK         0.3172 
     96 H96        26.5109  -27.5526  -37.4771 H         1 UNK         0.0595 
     97 H97        28.3229  -26.0186  -38.2018 H         1 UNK         0.0839 
     98 H98        29.3886  -27.3909  -38.5094 H         1 UNK         0.0839 
     99 H99        28.8576  -27.0294  -36.8730 H         1 UNK         0.0839 
    100 H100       25.7199  -29.9184  -38.2541 H         1 UNK         0.2998 
    101 H101       26.8327  -31.7010  -36.3224 H         1 UNK         0.0822 
    102 H102       28.5247  -32.2798  -38.0262 H         1 UNK         0.0787 
    103 H103       27.3767  -33.6013  -37.9183 H         1 UNK         0.0787 
    104 H104       27.2911  -32.4741  -39.2665 H         1 UNK         0.0787 
    105 H105       25.0826  -31.8441  -39.4713 H         1 UNK         0.3055 
    106 H106       22.4830  -31.9717  -38.3327 H         1 UNK         0.1106 
    107 H107       21.9195  -34.2761  -39.2257 H         1 UNK         0.0828 
    108 H108       23.6153  -34.5495  -39.5991 H         1 UNK         0.0828 
    109 H109       23.0905  -34.3831  -37.9246 H         1 UNK         0.0828 
    110 H110       20.8847  -32.0336  -40.1465 H         1 UNK         0.2931 
    111 H111       21.8377  -30.6020  -42.4492 H         1 UNK         0.0412 
    112 H112       21.9272  -31.2113  -44.6295 H         1 UNK         0.3472 
    113 H113       21.8790  -32.8950  -45.1223 H         1 UNK         0.3472 
    114 H114       19.4140  -30.6591  -43.1813 H         1 UNK         0.0970 
    115 H115       19.7266  -29.8942  -41.6651 H         1 UNK         0.0970 
    116 H116       18.4142  -33.4582  -43.1230 H         1 UNK         0.0612 
    117 H117       16.9152  -33.4456  -42.2305 H         1 UNK         0.0612 
@<TRIPOS>BOND
     1    1    2 1    
     2    1   62 1    
     3    1   63 1    
     4    1   64 1    
     5    2    3 2    
     6    2    4 am   BACKBONE|DICT|INTERRES
     7    4    5 1    
     8    4   65 1    
     9    5    6 1    
    10    5   25 1    
    11    5   66 1    
    12    6    7 1    
    13    6   67 1    
    14    6   68 1    
    15    7    8 1    
    16    8    9 1    
    17    8   69 1    
    18    8   70 1    
    19    9   10 ar   
    20    9   14 ar   
    21   10   11 ar   
    22   10   71 1    
    23   11   12 ar   
    24   11   61 1    
    25   12   13 ar   
    26   12   72 1    
    27   13   14 ar   
    28   13   15 1    
    29   14   73 1    
    30   15   16 1    
    31   15   74 1    
    32   15   75 1    
    33   16   17 1    
    34   17   18 1    
    35   17   76 1    
    36   17   77 1    
    37   18   19 1    
    38   18   27 1    
    39   18   78 1    
    40   19   20 am   BACKBONE|DICT|INTERRES
    41   19   79 1    
    42   20   21 2    
    43   20   22 1    
    44   22   23 1    
    45   22   24 1    
    46   22   80 1    
    47   23   81 1    
    48   23   82 1    
    49   23   83 1    
    50   24   25 am   BACKBONE|DICT|INTERRES
    51   24   84 1    
    52   25   26 2    
    53   27   28 2    
    54   27   29 am   BACKBONE|DICT|INTERRES
    55   29   30 1    
    56   29   85 1    
    57   30   31 1    
    58   30   32 1    
    59   30   86 1    
    60   31   87 1    
    61   31   88 1    
    62   31   89 1    
    63   32   33 2    
    64   32   34 am   BACKBONE|DICT|INTERRES
    65   34   35 1    
    66   34   90 1    
    67   35   36 1    
    68   35   37 1    
    69   35   91 1    
    70   36   92 1    
    71   36   93 1    
    72   36   94 1    
    73   37   38 2    
    74   37   39 am   BACKBONE|DICT|INTERRES
    75   39   40 1    
    76   39   95 1    
    77   40   41 1    
    78   40   42 1    
    79   40   96 1    
    80   41   97 1    
    81   41   98 1    
    82   41   99 1    
    83   42   43 2    
    84   42   44 am   BACKBONE|DICT|INTERRES
    85   44   45 1    
    86   44  100 1    
    87   45   46 1    
    88   45   47 1    
    89   45  101 1    
    90   46  102 1    
    91   46  103 1    
    92   46  104 1    
    93   47   48 2    
    94   47   49 am   BACKBONE|DICT|INTERRES
    95   49   50 1    
    96   49  105 1    
    97   50   51 1    
    98   50   52 1    
    99   50  106 1    
   100   51  107 1    
   101   51  108 1    
   102   51  109 1    
   103   52   53 2    
   104   52   54 am   BACKBONE|DICT|INTERRES
   105   54   55 1    
   106   54  110 1    
   107   55   56 1    
   108   55   59 1    
   109   55  111 1    
   110   56   57 am   BACKBONE|DICT|INTERRES
   111   56   58 2    
   112   57  112 1    
   113   57  113 1    
   114   59   60 1    
   115   59  114 1    
   116   59  115 1    
   117   60   61 1    
   118   61  116 1    
   119   61  117 1    
@<TRIPOS>SUBSTRUCTURE
     1 UNK         1 GROUP             0       ****    0 ROOT    
