@<TRIPOS>MOLECULE
3R8
117   119    1
SMALL
USER_CHARGES


@<TRIPOS>ATOM
      1 CA         14.3439  -22.4544  -44.3003 C.3       0 UNK        -0.2013 
      2 C          15.2917  -23.5926  -44.6451 C.2       0 UNK         0.4866 
      3 O          15.5632  -23.8316  -45.8223 O.2       0 UNK        -0.5176 
      4 N          15.8142  -24.2916  -43.6299 N.am      1 UNK        -0.4884 
      5 CA         16.7157  -25.4460  -43.7497 C.3       1 UNK         0.0853 
      6 C6         16.6682  -26.3384  -42.4818 C.3       10 UNK        -0.0849 
      7 S7         15.0173  -27.0177  -42.0901 S.3       10 UNK        -0.2776 
      8 C8         14.6911  -28.2025  -43.4462 C.3       10 UNK         0.0316 
      9 C9         15.9053  -29.0307  -43.8545 C.ar      10 UNK        -0.0863 
     10 C10        16.5823  -29.8213  -42.9214 C.ar      10 UNK        -0.1009 
     11 C11        17.7246  -30.5434  -43.2829 C.ar      10 UNK        -0.0712 
     12 C12        18.1708  -30.4828  -44.6122 C.ar      10 UNK        -0.0894 
     13 C13        17.4944  -29.7110  -45.5626 C.ar      10 UNK        -0.0745 
     14 C14        16.3567  -28.9962  -45.1754 C.ar      10 UNK        -0.0972 
     15 C15        17.9787  -29.6810  -47.0101 C.3       10 UNK         0.0209 
     16 S16        18.0093  -27.9944  -47.7083 S.3       10 UNK        -0.2568 
     17 C17        19.7563  -27.7840  -48.2060 C.3       10 UNK        -0.0983 
     18 CA         20.6417  -27.0588  -47.1561 C.3       3 UNK         0.0876 
     19 N          19.9724  -25.8686  -46.6309 N.am      3 UNK        -0.4424 
     20 C          20.5641  -24.7666  -46.1591 C.2       2 UNK         0.4918 
     21 O          21.7823  -24.5931  -46.1437 O.2       2 UNK        -0.4875 
     22 CA         19.6302  -23.6750  -45.5997 C.3       2 UNK         0.0481 
     23 CB         19.3857  -22.5860  -46.6558 C.3       2 UNK        -0.1831 
     24 N          18.3360  -24.1838  -45.1247 N.am      2 UNK        -0.4498 
     25 C          18.1664  -25.0319  -44.1010 C.2       1 UNK         0.5027 
     26 O          19.1121  -25.4867  -43.4561 O.2       1 UNK        -0.4969 
     27 C          21.1419  -28.0264  -46.0588 C.2       3 UNK         0.5005 
     28 O          21.8229  -28.9955  -46.4014 O.2       3 UNK        -0.5279 
     29 N          20.8098  -27.7862  -44.7799 N.am      4 UNK        -0.4463 
     30 CA         21.2426  -28.6237  -43.6587 C.3       4 UNK         0.0283 
     31 CB         20.4413  -28.2651  -42.3985 C.3       4 UNK        -0.1875 
     32 C          22.7461  -28.4798  -43.3802 C.2       4 UNK         0.4949 
     33 O          23.2642  -27.3608  -43.3767 O.2       4 UNK        -0.5039 
     34 N          23.4074  -29.6111  -43.1116 N.am      5 UNK        -0.4663 
     35 CA         24.7921  -29.6573  -42.6413 C.3       5 UNK         0.0242 
     36 CB         25.3763  -31.0540  -42.9099 C.3       5 UNK        -0.1982 
     37 C          24.8585  -29.3293  -41.1418 C.2       5 UNK         0.5017 
     38 O          23.9580  -29.7199  -40.3933 O.2       5 UNK        -0.5012 
     39 N          25.9441  -28.6628  -40.7254 N.am      6 UNK        -0.4439 
     40 CA         26.1951  -28.2483  -39.3391 C.3       6 UNK         0.0297 
     41 CB         27.4540  -27.3680  -39.2878 C.3       6 UNK        -0.2006 
     42 C          26.3182  -29.4188  -38.3470 C.2       6 UNK         0.4892 
     43 O          25.9613  -29.2610  -37.1788 O.2       6 UNK        -0.5089 
     44 N          26.7761  -30.5814  -38.8308 N.am      7 UNK        -0.4243 
     45 CA         26.8645  -31.8398  -38.0872 C.3       7 UNK         0.0196 
     46 CB         27.9378  -32.7277  -38.7452 C.3       7 UNK        -0.2007 
     47 C          25.4942  -32.5417  -37.9855 C.2       7 UNK         0.5020 
     48 O          25.3648  -33.6975  -38.3911 O.2       7 UNK        -0.5147 
     49 N          24.4894  -31.8187  -37.4688 N.am      8 UNK        -0.4734 
     50 CA         23.1037  -32.2472  -37.2234 C.3       8 UNK         0.0238 
     51 CB         23.0562  -33.1968  -36.0074 C.3       8 UNK        -0.1912 
     52 C          22.4037  -32.8396  -38.4653 C.2       8 UNK         0.5038 
     53 O          21.6992  -33.8449  -38.3526 O.2       8 UNK        -0.5046 
     54 N          22.6255  -32.2149  -39.6297 N.am      9 UNK        -0.4200 
     55 CA         22.1655  -32.6685  -40.9518 C.3       9 UNK         0.0839 
     56 C          22.8823  -33.9446  -41.4958 C.2       9 UNK         0.5513 
     57 N          23.9520  -34.4313  -40.8775 N.am      9 UNK        -0.7519 
     58 O          22.4864  -34.4900  -42.5220 O.2       9 UNK        -0.4960 
     59 C59        20.6121  -32.7418  -41.0601 C.3       10 UNK        -0.0876 
     60 S60        19.9994  -32.1559  -42.6762 S.3       10 UNK        -0.2414 
     61 C61        18.4380  -31.3432  -42.1887 C.3       10 UNK         0.0169 
     62 H62        13.3719  -22.6237  -44.7627 H         1 UNK         0.0903 
     63 H63        14.1955  -22.3586  -43.2248 H         1 UNK         0.0903 
     64 H64        14.7396  -21.5104  -44.6741 H         1 UNK         0.0903 
     65 H65        15.5657  -24.0408  -42.6830 H         1 UNK         0.3096 
     66 H66        16.3741  -26.0534  -44.5902 H         1 UNK         0.1121 
     67 H67        17.0056  -25.7696  -41.6134 H         1 UNK         0.0849 
     68 H68        17.3652  -27.1716  -42.5668 H         1 UNK         0.0849 
     69 H69        13.8899  -28.8762  -43.1395 H         1 UNK         0.0865 
     70 H70        14.3035  -27.6434  -44.2993 H         1 UNK         0.0865 
     71 H71        16.2315  -29.8500  -41.8984 H         1 UNK         0.1346 
     72 H72        19.0472  -31.0327  -44.9219 H         1 UNK         0.1412 
     73 H73        15.8256  -28.4033  -45.9076 H         1 UNK         0.1426 
     74 H74        17.3107  -30.2962  -47.6140 H         1 UNK         0.0716 
     75 H75        18.9676  -30.1343  -47.0897 H         1 UNK         0.0716 
     76 H76        19.7455  -27.1858  -49.1183 H         1 UNK         0.0695 
     77 H77        20.1830  -28.7426  -48.5073 H         1 UNK         0.0695 
     78 H78        21.5440  -26.7273  -47.6751 H         1 UNK         0.0983 
     79 H79        18.9637  -25.9163  -46.6179 H         1 UNK         0.3095 
     80 H80        20.1379  -23.2167  -44.7486 H         1 UNK         0.0454 
     81 H81        18.8545  -22.9776  -47.5242 H         1 UNK         0.0851 
     82 H82        20.3283  -22.1672  -47.0113 H         1 UNK         0.0851 
     83 H83        18.8007  -21.7614  -46.2481 H         1 UNK         0.0851 
     84 H84        17.4991  -23.8664  -45.6068 H         1 UNK         0.2976 
     85 H85        20.2864  -26.9507  -44.5473 H         1 UNK         0.3116 
     86 H86        21.0272  -29.6616  -43.9175 H         1 UNK         0.0646 
     87 H87        19.3708  -28.3567  -42.5706 H         1 UNK         0.0847 
     88 H88        20.6421  -27.2451  -42.0685 H         1 UNK         0.0847 
     89 H89        20.6966  -28.9311  -41.5730 H         1 UNK         0.0847 
     90 H90        22.8978  -30.4821  -43.1103 H         1 UNK         0.3040 
     91 H91        25.3767  -28.9209  -43.1979 H         1 UNK         0.1015 
     92 H92        26.4330  -31.0926  -42.6421 H         1 UNK         0.0786 
     93 H93        25.3024  -31.3198  -43.9646 H         1 UNK         0.0786 
     94 H94        24.8699  -31.8274  -42.3327 H         1 UNK         0.0786 
     95 H95        26.6385  -28.3921  -41.4078 H         1 UNK         0.3172 
     96 H96        25.3439  -27.6429  -39.0202 H         1 UNK         0.0595 
     97 H97        28.3404  -27.9078  -39.6235 H         1 UNK         0.0839 
     98 H98        27.6486  -27.0250  -38.2704 H         1 UNK         0.0839 
     99 H99        27.3445  -26.4793  -39.9097 H         1 UNK         0.0839 
    100 H100       27.0169  -30.6206  -39.8101 H         1 UNK         0.2998 
    101 H101       27.1908  -31.6251  -37.0672 H         1 UNK         0.0822 
    102 H102       28.9072  -32.2295  -38.7660 H         1 UNK         0.0787 
    103 H103       28.0672  -33.6594  -38.1926 H         1 UNK         0.0787 
    104 H104       27.6725  -32.9904  -39.7702 H         1 UNK         0.0787 
    105 H105       24.7121  -30.8636  -37.2036 H         1 UNK         0.3055 
    106 H106       22.5415  -31.3485  -36.9642 H         1 UNK         0.1106 
    107 H107       23.5699  -34.1371  -36.2108 H         1 UNK         0.0828 
    108 H108       22.0275  -33.4390  -35.7370 H         1 UNK         0.0828 
    109 H109       23.5201  -32.7439  -35.1312 H         1 UNK         0.0828 
    110 H110       23.2109  -31.3846  -39.6417 H         1 UNK         0.2931 
    111 H111       22.5023  -31.8696  -41.6110 H         1 UNK         0.0412 
    112 H112       24.2990  -34.0281  -40.0132 H         1 UNK         0.3472 
    113 H113       24.4023  -35.2488  -41.2568 H         1 UNK         0.3472 
    114 H114       20.1569  -32.1231  -40.2857 H         1 UNK         0.0970 
    115 H115       20.2456  -33.7534  -40.8756 H         1 UNK         0.0970 
    116 H116       17.7569  -32.1062  -41.8092 H         1 UNK         0.0612 
    117 H117       18.6466  -30.6675  -41.3579 H         1 UNK         0.0612 
@<TRIPOS>BOND
     1    1    2 1    
     2    1   62 1    
     3    1   63 1    
     4    1   64 1    
     5    2    3 2    
     6    2    4 am   BACKBONE|DICT|INTERRES
     7    4    5 1    
     8    4   65 1    
     9    5    6 1    
    10    5   25 1    
    11    5   66 1    
    12    6    7 1    
    13    6   67 1    
    14    6   68 1    
    15    7    8 1    
    16    8    9 1    
    17    8   69 1    
    18    8   70 1    
    19    9   10 ar   
    20    9   14 ar   
    21   10   11 ar   
    22   10   71 1    
    23   11   12 ar   
    24   11   61 1    
    25   12   13 ar   
    26   12   72 1    
    27   13   14 ar   
    28   13   15 1    
    29   14   73 1    
    30   15   16 1    
    31   15   74 1    
    32   15   75 1    
    33   16   17 1    
    34   17   18 1    
    35   17   76 1    
    36   17   77 1    
    37   18   19 1    
    38   18   27 1    
    39   18   78 1    
    40   19   20 am   BACKBONE|DICT|INTERRES
    41   19   79 1    
    42   20   21 2    
    43   20   22 1    
    44   22   23 1    
    45   22   24 1    
    46   22   80 1    
    47   23   81 1    
    48   23   82 1    
    49   23   83 1    
    50   24   25 am   BACKBONE|DICT|INTERRES
    51   24   84 1    
    52   25   26 2    
    53   27   28 2    
    54   27   29 am   BACKBONE|DICT|INTERRES
    55   29   30 1    
    56   29   85 1    
    57   30   31 1    
    58   30   32 1    
    59   30   86 1    
    60   31   87 1    
    61   31   88 1    
    62   31   89 1    
    63   32   33 2    
    64   32   34 am   BACKBONE|DICT|INTERRES
    65   34   35 1    
    66   34   90 1    
    67   35   36 1    
    68   35   37 1    
    69   35   91 1    
    70   36   92 1    
    71   36   93 1    
    72   36   94 1    
    73   37   38 2    
    74   37   39 am   BACKBONE|DICT|INTERRES
    75   39   40 1    
    76   39   95 1    
    77   40   41 1    
    78   40   42 1    
    79   40   96 1    
    80   41   97 1    
    81   41   98 1    
    82   41   99 1    
    83   42   43 2    
    84   42   44 am   BACKBONE|DICT|INTERRES
    85   44   45 1    
    86   44  100 1    
    87   45   46 1    
    88   45   47 1    
    89   45  101 1    
    90   46  102 1    
    91   46  103 1    
    92   46  104 1    
    93   47   48 2    
    94   47   49 am   BACKBONE|DICT|INTERRES
    95   49   50 1    
    96   49  105 1    
    97   50   51 1    
    98   50   52 1    
    99   50  106 1    
   100   51  107 1    
   101   51  108 1    
   102   51  109 1    
   103   52   53 2    
   104   52   54 am   BACKBONE|DICT|INTERRES
   105   54   55 1    
   106   54  110 1    
   107   55   56 1    
   108   55   59 1    
   109   55  111 1    
   110   56   57 am   BACKBONE|DICT|INTERRES
   111   56   58 2    
   112   57  112 1    
   113   57  113 1    
   114   59   60 1    
   115   59  114 1    
   116   59  115 1    
   117   60   61 1    
   118   61  116 1    
   119   61  117 1    
@<TRIPOS>SUBSTRUCTURE
     1 UNK         1 GROUP             0       ****    0 ROOT    
