@<TRIPOS>MOLECULE
3R8
117   119    1
SMALL
USER_CHARGES


@<TRIPOS>ATOM
      1 CA         14.5309  -24.2792  -44.2083 C.3       0 UNK        -0.2013 
      2 C          14.4980  -25.2573  -43.0356 C.2       0 UNK         0.4866 
      3 O          13.7068  -25.0634  -42.1144 O.2       0 UNK        -0.5176 
      4 N          15.3111  -26.3233  -43.0208 N.am      1 UNK        -0.4884 
      5 CA         16.3593  -26.6659  -43.9909 C.3       1 UNK         0.0853 
      6 C6         16.8932  -28.1008  -43.7648 C.3       10 UNK        -0.0849 
      7 S7         15.6085  -29.3726  -44.0186 S.3       10 UNK        -0.2776 
      8 C8         16.0563  -30.0508  -45.6519 C.3       10 UNK         0.0316 
      9 C9         17.3981  -30.7720  -45.6311 C.ar      10 UNK        -0.0863 
     10 C10        17.5521  -31.9473  -44.8902 C.ar      10 UNK        -0.1009 
     11 C11        18.7828  -32.6088  -44.8555 C.ar      10 UNK        -0.0712 
     12 C12        19.8639  -32.0889  -45.5731 C.ar      10 UNK        -0.0894 
     13 C13        19.7229  -30.9195  -46.3267 C.ar      10 UNK        -0.0745 
     14 C14        18.4829  -30.2712  -46.3584 C.ar      10 UNK        -0.0972 
     15 C15        20.9071  -30.3849  -47.1262 C.3       10 UNK         0.0209 
     16 S16        21.2198  -28.6087  -46.8626 S.3       10 UNK        -0.2568 
     17 C17        21.6755  -28.5756  -45.0963 C.3       10 UNK        -0.0983 
     18 CA         21.8662  -27.1281  -44.5696 C.3       3 UNK         0.0876 
     19 N          20.6548  -26.3270  -44.7921 N.am      3 UNK        -0.4424 
     20 C          20.5732  -24.9934  -44.8775 C.2       2 UNK         0.4918 
     21 O          21.5279  -24.2420  -44.6781 O.2       2 UNK        -0.4875 
     22 CA         19.2057  -24.3884  -45.2480 C.3       2 UNK         0.0481 
     23 CB         19.2319  -23.8660  -46.6935 C.3       2 UNK        -0.1831 
     24 N          18.0850  -25.3242  -45.1006 N.am      2 UNK        -0.4498 
     25 C          17.5256  -25.6586  -43.9296 C.2       1 UNK         0.5027 
     26 O          17.9030  -25.2218  -42.8401 O.2       1 UNK        -0.4969 
     27 C          22.3466  -27.0976  -43.0976 C.2       3 UNK         0.5005 
     28 O          22.7249  -28.1350  -42.5487 O.2       3 UNK        -0.5279 
     29 N          22.3204  -25.9157  -42.4682 N.am      4 UNK        -0.4463 
     30 CA         22.7160  -25.6798  -41.0803 C.3       4 UNK         0.0283 
     31 CB         22.4185  -24.2188  -40.7071 C.3       4 UNK        -0.1875 
     32 C          24.1977  -26.0144  -40.8480 C.2       4 UNK         0.4949 
     33 O          25.0574  -25.4851  -41.5542 O.2       4 UNK        -0.5039 
     34 N          24.4504  -26.9014  -39.8763 N.am      5 UNK        -0.4663 
     35 CA         25.7556  -27.4208  -39.4406 C.3       5 UNK         0.0242 
     36 CB         26.6632  -26.2835  -38.9245 C.3       5 UNK        -0.1982 
     37 C          26.4846  -28.3191  -40.4625 C.2       5 UNK         0.5017 
     38 O          27.5882  -28.7773  -40.1623 O.2       5 UNK        -0.5012 
     39 N          25.8692  -28.5976  -41.6214 N.am      6 UNK        -0.4439 
     40 CA         26.3803  -29.5452  -42.6198 C.3       6 UNK         0.0297 
     41 CB         25.7583  -29.2231  -43.9872 C.3       6 UNK        -0.2006 
     42 C          26.0955  -31.0089  -42.2327 C.2       6 UNK         0.4892 
     43 O          26.7900  -31.9109  -42.7020 O.2       6 UNK        -0.5089 
     44 N          25.0835  -31.2057  -41.3838 N.am      7 UNK        -0.4243 
     45 CA         24.6010  -32.4598  -40.8210 C.3       7 UNK         0.0196 
     46 CB         23.8131  -33.2440  -41.8910 C.3       7 UNK        -0.2007 
     47 C          23.7131  -32.0918  -39.6231 C.2       7 UNK         0.5020 
     48 O          23.5270  -30.9026  -39.3453 O.2       7 UNK        -0.5147 
     49 N          23.1196  -33.0967  -38.9649 N.am      8 UNK        -0.4734 
     50 CA         22.1002  -32.9003  -37.9209 C.3       8 UNK         0.0238 
     51 CB         21.7533  -34.2541  -37.2807 C.3       8 UNK        -0.1912 
     52 C          20.8257  -32.2040  -38.4430 C.2       8 UNK         0.5038 
     53 O          20.1898  -31.4573  -37.6988 O.2       8 UNK        -0.5046 
     54 N          20.5115  -32.4436  -39.7208 N.am      9 UNK        -0.4200 
     55 CA         19.4953  -31.7461  -40.5203 C.3       9 UNK         0.0839 
     56 C          20.0306  -30.4765  -41.2519 C.2       9 UNK         0.5513 
     57 N          21.2778  -30.0675  -41.0538 N.am      9 UNK        -0.7519 
     58 O          19.2956  -29.8421  -42.0020 O.2       9 UNK        -0.4960 
     59 C59        18.7843  -32.7353  -41.4835 C.3       10 UNK        -0.0876 
     60 S60        19.9373  -33.6643  -42.5591 S.3       10 UNK        -0.2414 
     61 C61        18.9417  -33.8981  -44.0633 C.3       10 UNK         0.0169 
     62 H62        13.6477  -23.6407  -44.1918 H         1 UNK         0.0903 
     63 H63        15.4058  -23.6328  -44.1475 H         1 UNK         0.0903 
     64 H64        14.5369  -24.7963  -45.1667 H         1 UNK         0.0903 
     65 H65        15.2537  -26.9503  -42.2313 H         1 UNK         0.3096 
     66 H66        15.9215  -26.6282  -44.9902 H         1 UNK         0.1121 
     67 H67        17.2754  -28.2074  -42.7477 H         1 UNK         0.0849 
     68 H68        17.7414  -28.3115  -44.4179 H         1 UNK         0.0849 
     69 H69        15.2819  -30.7517  -45.9667 H         1 UNK         0.0865 
     70 H70        16.0546  -29.2454  -46.3880 H         1 UNK         0.0865 
     71 H71        16.7119  -32.3407  -44.3344 H         1 UNK         0.1346 
     72 H72        20.8150  -32.6030  -45.5451 H         1 UNK         0.1412 
     73 H73        18.3683  -29.3706  -46.9460 H         1 UNK         0.1426 
     74 H74        20.7141  -30.5517  -48.1865 H         1 UNK         0.0716 
     75 H75        21.8183  -30.9362  -46.8884 H         1 UNK         0.0716 
     76 H76        22.5902  -29.1580  -44.9810 H         1 UNK         0.0695 
     77 H77        20.9060  -29.0918  -44.5179 H         1 UNK         0.0695 
     78 H78        22.6726  -26.6750  -45.1505 H         1 UNK         0.0983 
     79 H79        19.8165  -26.8594  -44.9634 H         1 UNK         0.3095 
     80 H80        19.0363  -23.5367  -44.5856 H         1 UNK         0.0454 
     81 H81        19.3995  -24.6694  -47.4120 H         1 UNK         0.0851 
     82 H82        20.0312  -23.1362  -46.8309 H         1 UNK         0.0851 
     83 H83        18.2971  -23.3695  -46.9544 H         1 UNK         0.0851 
     84 H84        17.7221  -25.7232  -45.9553 H         1 UNK         0.2976 
     85 H85        22.0534  -25.1051  -43.0179 H         1 UNK         0.3116 
     86 H86        22.0996  -26.3247  -40.4500 H         1 UNK         0.0646 
     87 H87        21.3586  -23.9882  -40.8165 H         1 UNK         0.0847 
     88 H88        22.9801  -23.5210  -41.3299 H         1 UNK         0.0847 
     89 H89        22.6881  -24.0186  -39.6692 H         1 UNK         0.0847 
     90 H90        23.6561  -27.2971  -39.3903 H         1 UNK         0.3040 
     91 H91        25.5399  -28.0724  -38.5919 H         1 UNK         0.1015 
     92 H92        26.9876  -25.6237  -39.7296 H         1 UNK         0.0786 
     93 H93        27.5628  -26.6831  -38.4547 H         1 UNK         0.0786 
     94 H94        26.1532  -25.6763  -38.1767 H         1 UNK         0.0786 
     95 H95        24.9587  -28.1896  -41.7972 H         1 UNK         0.3172 
     96 H96        27.4625  -29.4236  -42.7020 H         1 UNK         0.0595 
     97 H97        24.6803  -29.3806  -43.9814 H         1 UNK         0.0839 
     98 H98        26.1754  -29.8639  -44.7652 H         1 UNK         0.0839 
     99 H99        25.9476  -28.1902  -44.2799 H         1 UNK         0.0839 
    100 H100       24.6015  -30.3971  -41.0084 H         1 UNK         0.2998 
    101 H101       25.4490  -33.0473  -40.4639 H         1 UNK         0.0822 
    102 H102       24.4360  -33.4738  -42.7554 H         1 UNK         0.0787 
    103 H103       23.4463  -34.1953  -41.5047 H         1 UNK         0.0787 
    104 H104       22.9506  -32.6783  -42.2471 H         1 UNK         0.0787 
    105 H105       23.3244  -34.0495  -39.2323 H         1 UNK         0.3055 
    106 H106       22.5284  -32.2543  -37.1509 H         1 UNK         0.1106 
    107 H107       21.3370  -34.9522  -38.0082 H         1 UNK         0.0828 
    108 H108       21.0142  -34.1317  -36.4875 H         1 UNK         0.0828 
    109 H109       22.6317  -34.7185  -36.8323 H         1 UNK         0.0828 
    110 H110       21.1005  -33.0736  -40.2447 H         1 UNK         0.2931 
    111 H111       18.7298  -31.3736  -39.8374 H         1 UNK         0.0412 
    112 H112       21.6355  -29.2759  -41.5806 H         1 UNK         0.3472 
    113 H113       21.8850  -30.5266  -40.3880 H         1 UNK         0.3472 
    114 H114       18.0452  -32.2092  -42.0895 H         1 UNK         0.0970 
    115 H115       18.2165  -33.4621  -40.9011 H         1 UNK         0.0970 
    116 H116       19.4289  -34.6448  -44.6918 H         1 UNK         0.0612 
    117 H117       17.9701  -34.3143  -43.7922 H         1 UNK         0.0612 
@<TRIPOS>BOND
     1    1    2 1    
     2    1   62 1    
     3    1   63 1    
     4    1   64 1    
     5    2    3 2    
     6    2    4 am   BACKBONE|DICT|INTERRES
     7    4    5 1    
     8    4   65 1    
     9    5    6 1    
    10    5   25 1    
    11    5   66 1    
    12    6    7 1    
    13    6   67 1    
    14    6   68 1    
    15    7    8 1    
    16    8    9 1    
    17    8   69 1    
    18    8   70 1    
    19    9   10 ar   
    20    9   14 ar   
    21   10   11 ar   
    22   10   71 1    
    23   11   12 ar   
    24   11   61 1    
    25   12   13 ar   
    26   12   72 1    
    27   13   14 ar   
    28   13   15 1    
    29   14   73 1    
    30   15   16 1    
    31   15   74 1    
    32   15   75 1    
    33   16   17 1    
    34   17   18 1    
    35   17   76 1    
    36   17   77 1    
    37   18   19 1    
    38   18   27 1    
    39   18   78 1    
    40   19   20 am   BACKBONE|DICT|INTERRES
    41   19   79 1    
    42   20   21 2    
    43   20   22 1    
    44   22   23 1    
    45   22   24 1    
    46   22   80 1    
    47   23   81 1    
    48   23   82 1    
    49   23   83 1    
    50   24   25 am   BACKBONE|DICT|INTERRES
    51   24   84 1    
    52   25   26 2    
    53   27   28 2    
    54   27   29 am   BACKBONE|DICT|INTERRES
    55   29   30 1    
    56   29   85 1    
    57   30   31 1    
    58   30   32 1    
    59   30   86 1    
    60   31   87 1    
    61   31   88 1    
    62   31   89 1    
    63   32   33 2    
    64   32   34 am   BACKBONE|DICT|INTERRES
    65   34   35 1    
    66   34   90 1    
    67   35   36 1    
    68   35   37 1    
    69   35   91 1    
    70   36   92 1    
    71   36   93 1    
    72   36   94 1    
    73   37   38 2    
    74   37   39 am   BACKBONE|DICT|INTERRES
    75   39   40 1    
    76   39   95 1    
    77   40   41 1    
    78   40   42 1    
    79   40   96 1    
    80   41   97 1    
    81   41   98 1    
    82   41   99 1    
    83   42   43 2    
    84   42   44 am   BACKBONE|DICT|INTERRES
    85   44   45 1    
    86   44  100 1    
    87   45   46 1    
    88   45   47 1    
    89   45  101 1    
    90   46  102 1    
    91   46  103 1    
    92   46  104 1    
    93   47   48 2    
    94   47   49 am   BACKBONE|DICT|INTERRES
    95   49   50 1    
    96   49  105 1    
    97   50   51 1    
    98   50   52 1    
    99   50  106 1    
   100   51  107 1    
   101   51  108 1    
   102   51  109 1    
   103   52   53 2    
   104   52   54 am   BACKBONE|DICT|INTERRES
   105   54   55 1    
   106   54  110 1    
   107   55   56 1    
   108   55   59 1    
   109   55  111 1    
   110   56   57 am   BACKBONE|DICT|INTERRES
   111   56   58 2    
   112   57  112 1    
   113   57  113 1    
   114   59   60 1    
   115   59  114 1    
   116   59  115 1    
   117   60   61 1    
   118   61  116 1    
   119   61  117 1    
@<TRIPOS>SUBSTRUCTURE
     1 UNK         1 GROUP             0       ****    0 ROOT    
