@<TRIPOS>MOLECULE
3R8
117   119    1
SMALL
USER_CHARGES


@<TRIPOS>ATOM
      1 CA         15.5443  -23.9195  -40.2819 C.3       0 UNK        -0.2013 
      2 C          15.7533  -24.4066  -41.7079 C.2       0 UNK         0.4866 
      3 O          16.1199  -23.6153  -42.5767 O.2       0 UNK        -0.5176 
      4 N          15.5181  -25.7023  -41.9561 N.am      1 UNK        -0.4884 
      5 CA         15.6930  -26.3485  -43.2645 C.3       1 UNK         0.0853 
      6 C6         14.9858  -27.7279  -43.2987 C.3       10 UNK        -0.0849 
      7 S7         14.5934  -28.2846  -44.9910 S.3       10 UNK        -0.2776 
      8 C8         15.4117  -29.9147  -45.0637 C.3       10 UNK         0.0316 
      9 C9         16.9149  -29.8425  -45.3213 C.ar      10 UNK        -0.0863 
     10 C10        17.8108  -30.4906  -44.4633 C.ar      10 UNK        -0.1009 
     11 C11        19.1835  -30.5312  -44.7544 C.ar      10 UNK        -0.0712 
     12 C12        19.6476  -29.8957  -45.9102 C.ar      10 UNK        -0.0894 
     13 C13        18.7698  -29.2236  -46.7645 C.ar      10 UNK        -0.0745 
     14 C14        17.4045  -29.2061  -46.4662 C.ar      10 UNK        -0.0972 
     15 C15        19.2815  -28.5671  -48.0406 C.3       10 UNK         0.0209 
     16 S16        19.8360  -26.8516  -47.7721 S.3       10 UNK        -0.2568 
     17 C17        21.5337  -27.0819  -47.1402 C.3       10 UNK        -0.0983 
     18 CA         21.7573  -26.4378  -45.7428 C.3       3 UNK         0.0876 
     19 N          20.8234  -26.9566  -44.7429 N.am      3 UNK        -0.4424 
     20 C          20.2720  -26.2504  -43.7503 C.2       2 UNK         0.4918 
     21 O          20.4035  -25.0343  -43.5931 O.2       2 UNK        -0.4875 
     22 CA         19.4524  -27.0683  -42.7366 C.3       2 UNK         0.0481 
     23 CB         20.0711  -26.9429  -41.3350 C.3       2 UNK        -0.1831 
     24 N          18.0325  -26.7200  -42.6549 N.am      2 UNK        -0.4498 
     25 C          17.1781  -26.4783  -43.6626 C.2       1 UNK         0.5027 
     26 O          17.4942  -26.3680  -44.8463 O.2       1 UNK        -0.4969 
     27 C          23.1985  -26.6035  -45.2026 C.2       3 UNK         0.5005 
     28 O          23.4570  -26.2647  -44.0456 O.2       3 UNK        -0.5279 
     29 N          24.1208  -27.1290  -46.0247 N.am      4 UNK        -0.4463 
     30 CA         25.5135  -27.4030  -45.6499 C.3       4 UNK         0.0283 
     31 CB         26.3201  -27.7747  -46.9043 C.3       4 UNK        -0.1875 
     32 C          25.6536  -28.4987  -44.5774 C.2       4 UNK         0.4949 
     33 O          26.5475  -28.4128  -43.7360 O.2       4 UNK        -0.5039 
     34 N          24.7473  -29.4865  -44.5909 N.am      5 UNK        -0.4663 
     35 CA         24.6807  -30.5991  -43.6355 C.3       5 UNK         0.0242 
     36 CB         24.0105  -31.8062  -44.3168 C.3       5 UNK        -0.1982 
     37 C          24.0049  -30.2131  -42.3020 C.2       5 UNK         0.5017 
     38 O          23.2475  -31.0048  -41.7364 O.2       5 UNK        -0.5012 
     39 N          24.3069  -29.0101  -41.7965 N.am      6 UNK        -0.4439 
     40 CA         23.8053  -28.4683  -40.5296 C.3       6 UNK         0.0297 
     41 CB         24.1753  -26.9810  -40.4279 C.3       6 UNK        -0.2006 
     42 C          24.2829  -29.2385  -39.2864 C.2       6 UNK         0.4892 
     43 O          23.6225  -29.1700  -38.2511 O.2       6 UNK        -0.5089 
     44 N          25.3802  -29.9978  -39.4150 N.am      7 UNK        -0.4243 
     45 CA         25.8511  -30.9530  -38.4088 C.3       7 UNK         0.0196 
     46 CB         27.2320  -31.4848  -38.8250 C.3       7 UNK        -0.2007 
     47 C          24.8716  -32.1204  -38.1744 C.2       7 UNK         0.5020 
     48 O          24.8698  -32.6870  -37.0813 O.2       7 UNK        -0.5147 
     49 N          24.0606  -32.4532  -39.1889 N.am      8 UNK        -0.4734 
     50 CA         23.0027  -33.4584  -39.1103 C.3       8 UNK         0.0238 
     51 CB         22.9998  -34.3024  -40.3972 C.3       8 UNK        -0.1912 
     52 C          21.6349  -32.7972  -38.8909 C.2       8 UNK         0.5038 
     53 O          20.9080  -33.2081  -37.9855 O.2       8 UNK        -0.5046 
     54 N          21.3021  -31.8079  -39.7310 N.am      9 UNK        -0.4200 
     55 CA         19.9742  -31.1721  -39.7752 C.3       9 UNK         0.0839 
     56 C          19.7387  -30.0515  -38.7250 C.2       9 UNK         0.5513 
     57 N          20.7457  -29.5643  -38.0139 N.am      9 UNK        -0.7519 
     58 O          18.6042  -29.6172  -38.5452 O.2       9 UNK        -0.4960 
     59 C59        19.6206  -30.6886  -41.2049 C.3       10 UNK        -0.0876 
     60 S60        19.5762  -32.0779  -42.3859 S.3       10 UNK        -0.2414 
     61 C61        20.2063  -31.2915  -43.9053 C.3       10 UNK         0.0169 
     62 H62        15.2140  -24.7200  -39.6202 H         1 UNK         0.0903 
     63 H63        16.4742  -23.5134  -39.8845 H         1 UNK         0.0903 
     64 H64        14.7922  -23.1313  -40.2612 H         1 UNK         0.0903 
     65 H65        15.1990  -26.2990  -41.2052 H         1 UNK         0.3096 
     66 H66        15.2184  -25.7010  -44.0061 H         1 UNK         0.1121 
     67 H67        15.5685  -28.4855  -42.7704 H         1 UNK         0.0849 
     68 H68        14.0330  -27.6688  -42.7698 H         1 UNK         0.0849 
     69 H69        15.1935  -30.4693  -44.1497 H         1 UNK         0.0865 
     70 H70        14.9580  -30.4875  -45.8737 H         1 UNK         0.0865 
     71 H71        17.4213  -30.9969  -43.5924 H         1 UNK         0.1346 
     72 H72        20.6979  -29.9498  -46.1599 H         1 UNK         0.1412 
     73 H73        16.7158  -28.7080  -47.1351 H         1 UNK         0.1426 
     74 H74        18.4871  -28.5553  -48.7885 H         1 UNK         0.0716 
     75 H75        20.0886  -29.1573  -48.4770 H         1 UNK         0.0716 
     76 H76        21.7754  -28.1450  -47.1236 H         1 UNK         0.0695 
     77 H77        22.1995  -26.6283  -47.8767 H         1 UNK         0.0695 
     78 H78        21.5972  -25.3628  -45.8511 H         1 UNK         0.0983 
     79 H79        20.6094  -27.9397  -44.8066 H         1 UNK         0.3095 
     80 H80        19.4945  -28.1190  -43.0279 H         1 UNK         0.0454 
     81 H81        21.1369  -27.1648  -41.3623 H         1 UNK         0.0851 
     82 H82        19.9659  -25.9317  -40.9399 H         1 UNK         0.0851 
     83 H83        19.6099  -27.6287  -40.6252 H         1 UNK         0.0851 
     84 H84        17.6364  -26.7287  -41.7271 H         1 UNK         0.2976 
     85 H85        23.8511  -27.3679  -46.9682 H         1 UNK         0.3116 
     86 H86        25.9346  -26.4842  -45.2359 H         1 UNK         0.0646 
     87 H87        27.3659  -27.9591  -46.6539 H         1 UNK         0.0847 
     88 H88        26.3039  -26.9710  -47.6407 H         1 UNK         0.0847 
     89 H89        25.9367  -28.6774  -47.3816 H         1 UNK         0.0847 
     90 H90        24.0320  -29.4601  -45.3020 H         1 UNK         0.3040 
     91 H91        25.6999  -30.8981  -43.3806 H         1 UNK         0.1015 
     92 H92        24.5796  -32.1315  -45.1878 H         1 UNK         0.0786 
     93 H93        23.0005  -31.5733  -44.6494 H         1 UNK         0.0786 
     94 H94        23.9463  -32.6607  -43.6414 H         1 UNK         0.0786 
     95 H95        24.9581  -28.4354  -42.3193 H         1 UNK         0.3172 
     96 H96        22.7182  -28.5541  -40.5452 H         1 UNK         0.0595 
     97 H97        23.7556  -26.4105  -41.2570 H         1 UNK         0.0839 
     98 H98        25.2558  -26.8322  -40.4305 H         1 UNK         0.0839 
     99 H99        23.7868  -26.5437  -39.5069 H         1 UNK         0.0839 
    100 H100       25.8757  -29.9766  -40.2941 H         1 UNK         0.2998 
    101 H101       25.9574  -30.4188  -37.4620 H         1 UNK         0.0822 
    102 H102       27.9567  -30.6762  -38.9226 H         1 UNK         0.0787 
    103 H103       27.6226  -32.1793  -38.0797 H         1 UNK         0.0787 
    104 H104       27.1904  -32.0175  -39.7761 H         1 UNK         0.0787 
    105 H105       24.1008  -31.9121  -40.0445 H         1 UNK         0.3055 
    106 H106       23.1841  -34.1326  -38.2698 H         1 UNK         0.1106 
    107 H107       22.8253  -33.6956  -41.2868 H         1 UNK         0.0828 
    108 H108       23.9484  -34.8226  -40.5298 H         1 UNK         0.0828 
    109 H109       22.2167  -35.0610  -40.3632 H         1 UNK         0.0828 
    110 H110       21.9555  -31.5341  -40.4591 H         1 UNK         0.2931 
    111 H111       19.2413  -31.9419  -39.5240 H         1 UNK         0.0412 
    112 H112       21.7030  -29.8565  -38.1662 H         1 UNK         0.3472 
    113 H113       20.5557  -28.8443  -37.3357 H         1 UNK         0.3472 
    114 H114       20.3470  -29.9444  -41.5338 H         1 UNK         0.0970 
    115 H115       18.6436  -30.2017  -41.2281 H         1 UNK         0.0970 
    116 H116       21.0331  -30.6283  -43.6487 H         1 UNK         0.0612 
    117 H117       20.6287  -32.0842  -44.5239 H         1 UNK         0.0612 
@<TRIPOS>BOND
     1    1    2 1    
     2    1   62 1    
     3    1   63 1    
     4    1   64 1    
     5    2    3 2    
     6    2    4 am   BACKBONE|DICT|INTERRES
     7    4    5 1    
     8    4   65 1    
     9    5    6 1    
    10    5   25 1    
    11    5   66 1    
    12    6    7 1    
    13    6   67 1    
    14    6   68 1    
    15    7    8 1    
    16    8    9 1    
    17    8   69 1    
    18    8   70 1    
    19    9   10 ar   
    20    9   14 ar   
    21   10   11 ar   
    22   10   71 1    
    23   11   12 ar   
    24   11   61 1    
    25   12   13 ar   
    26   12   72 1    
    27   13   14 ar   
    28   13   15 1    
    29   14   73 1    
    30   15   16 1    
    31   15   74 1    
    32   15   75 1    
    33   16   17 1    
    34   17   18 1    
    35   17   76 1    
    36   17   77 1    
    37   18   19 1    
    38   18   27 1    
    39   18   78 1    
    40   19   20 am   BACKBONE|DICT|INTERRES
    41   19   79 1    
    42   20   21 2    
    43   20   22 1    
    44   22   23 1    
    45   22   24 1    
    46   22   80 1    
    47   23   81 1    
    48   23   82 1    
    49   23   83 1    
    50   24   25 am   BACKBONE|DICT|INTERRES
    51   24   84 1    
    52   25   26 2    
    53   27   28 2    
    54   27   29 am   BACKBONE|DICT|INTERRES
    55   29   30 1    
    56   29   85 1    
    57   30   31 1    
    58   30   32 1    
    59   30   86 1    
    60   31   87 1    
    61   31   88 1    
    62   31   89 1    
    63   32   33 2    
    64   32   34 am   BACKBONE|DICT|INTERRES
    65   34   35 1    
    66   34   90 1    
    67   35   36 1    
    68   35   37 1    
    69   35   91 1    
    70   36   92 1    
    71   36   93 1    
    72   36   94 1    
    73   37   38 2    
    74   37   39 am   BACKBONE|DICT|INTERRES
    75   39   40 1    
    76   39   95 1    
    77   40   41 1    
    78   40   42 1    
    79   40   96 1    
    80   41   97 1    
    81   41   98 1    
    82   41   99 1    
    83   42   43 2    
    84   42   44 am   BACKBONE|DICT|INTERRES
    85   44   45 1    
    86   44  100 1    
    87   45   46 1    
    88   45   47 1    
    89   45  101 1    
    90   46  102 1    
    91   46  103 1    
    92   46  104 1    
    93   47   48 2    
    94   47   49 am   BACKBONE|DICT|INTERRES
    95   49   50 1    
    96   49  105 1    
    97   50   51 1    
    98   50   52 1    
    99   50  106 1    
   100   51  107 1    
   101   51  108 1    
   102   51  109 1    
   103   52   53 2    
   104   52   54 am   BACKBONE|DICT|INTERRES
   105   54   55 1    
   106   54  110 1    
   107   55   56 1    
   108   55   59 1    
   109   55  111 1    
   110   56   57 am   BACKBONE|DICT|INTERRES
   111   56   58 2    
   112   57  112 1    
   113   57  113 1    
   114   59   60 1    
   115   59  114 1    
   116   59  115 1    
   117   60   61 1    
   118   61  116 1    
   119   61  117 1    
@<TRIPOS>SUBSTRUCTURE
     1 UNK         1 GROUP             0       ****    0 ROOT    
