@<TRIPOS>MOLECULE
3R8
117   119    1
SMALL
USER_CHARGES


@<TRIPOS>ATOM
      1 CA         16.3561  -21.8928  -44.2888 C.3       0 UNK        -0.2013 
      2 C          16.9953  -23.2377  -44.5981 C.2       0 UNK         0.4866 
      3 O          17.2288  -23.5529  -45.7654 O.2       0 UNK        -0.5176 
      4 N          17.2967  -24.0319  -43.5632 N.am      1 UNK        -0.4884 
      5 CA         17.8817  -25.3774  -43.6488 C.3       1 UNK         0.0853 
      6 C6         17.5696  -26.2154  -42.3799 C.3       10 UNK        -0.0849 
      7 S7         15.7849  -26.5552  -42.2090 S.3       10 UNK        -0.2776 
      8 C8         15.7737  -28.3376  -41.7916 C.3       10 UNK         0.0316 
      9 C9         16.3603  -29.2752  -42.8503 C.ar      10 UNK        -0.0863 
     10 C10        16.8580  -30.5188  -42.4470 C.ar      10 UNK        -0.1009 
     11 C11        17.3894  -31.4154  -43.3791 C.ar      10 UNK        -0.0712 
     12 C12        17.4418  -31.0566  -44.7284 C.ar      10 UNK        -0.0894 
     13 C13        16.9351  -29.8254  -45.1507 C.ar      10 UNK        -0.0745 
     14 C14        16.3852  -28.9474  -44.2115 C.ar      10 UNK        -0.0972 
     15 C15        16.9292  -29.4559  -46.6253 C.3       10 UNK         0.0209 
     16 S16        18.0009  -28.0279  -46.9711 S.3       10 UNK        -0.2568 
     17 C17        19.5853  -28.7980  -47.4808 C.3       10 UNK        -0.0983 
     18 CA         20.8561  -28.2139  -46.7943 C.3       3 UNK         0.0876 
     19 N          20.6946  -26.7973  -46.4649 N.am      3 UNK        -0.4424 
     20 C          21.6472  -25.9315  -46.1021 C.2       2 UNK         0.4918 
     21 O          22.8517  -26.1761  -46.1417 O.2       2 UNK        -0.4875 
     22 CA         21.1545  -24.5720  -45.5651 C.3       2 UNK         0.0481 
     23 CB         21.2311  -23.4993  -46.6618 C.3       2 UNK        -0.1831 
     24 N          19.7854  -24.6218  -45.0295 N.am      2 UNK        -0.4498 
     25 C          19.3945  -25.3398  -43.9669 C.2       1 UNK         0.5027 
     26 O          20.1841  -25.9906  -43.2817 O.2       1 UNK        -0.4969 
     27 C          21.3297  -29.0700  -45.5965 C.2       3 UNK         0.5005 
     28 O          21.9715  -30.0968  -45.8256 O.2       3 UNK        -0.5279 
     29 N          21.0472  -28.6352  -44.3597 N.am      4 UNK        -0.4463 
     30 CA         21.5947  -29.2175  -43.1325 C.3       4 UNK         0.0283 
     31 CB         20.5184  -29.2223  -42.0341 C.3       4 UNK        -0.1875 
     32 C          22.8280  -28.4238  -42.6752 C.2       4 UNK         0.4949 
     33 O          23.8677  -29.0198  -42.3938 O.2       4 UNK        -0.5039 
     34 N          22.6885  -27.0896  -42.6305 N.am      5 UNK        -0.4663 
     35 CA         23.6555  -26.1110  -42.1269 C.3       5 UNK         0.0242 
     36 CB         24.9087  -26.0524  -43.0307 C.3       5 UNK        -0.1982 
     37 C          23.9471  -26.3441  -40.6314 C.2       5 UNK         0.5017 
     38 O          23.0026  -26.4828  -39.8521 O.2       5 UNK        -0.5012 
     39 N          25.2300  -26.3718  -40.2503 N.am      6 UNK        -0.4439 
     40 CA         25.6854  -26.6287  -38.8815 C.3       6 UNK         0.0297 
     41 CB         27.0874  -26.0214  -38.7037 C.3       6 UNK        -0.2006 
     42 C          25.6967  -28.1238  -38.5073 C.2       6 UNK         0.4892 
     43 O          25.8254  -28.4372  -37.3231 O.2       6 UNK        -0.5089 
     44 N          25.5971  -29.0153  -39.5018 N.am      7 UNK        -0.4243 
     45 CA         25.6153  -30.4658  -39.3240 C.3       7 UNK         0.0196 
     46 CB         26.2541  -31.1035  -40.5694 C.3       7 UNK        -0.2007 
     47 C          24.1999  -31.0209  -39.1075 C.2       7 UNK         0.5020 
     48 O          23.2121  -30.3791  -39.4697 O.2       7 UNK        -0.5147 
     49 N          24.1324  -32.2369  -38.5558 N.am      8 UNK        -0.4734 
     50 CA         22.9152  -33.0463  -38.5158 C.3       8 UNK         0.0238 
     51 CB         22.9650  -33.9787  -37.2950 C.3       8 UNK        -0.1912 
     52 C          22.8091  -33.8622  -39.8126 C.2       8 UNK         0.5038 
     53 O          23.8311  -34.3452  -40.3077 O.2       8 UNK        -0.5046 
     54 N          21.5849  -34.0146  -40.3260 N.am      9 UNK        -0.4200 
     55 CA         21.2795  -34.8178  -41.5185 C.3       9 UNK         0.0839 
     56 C          21.4637  -36.3394  -41.2683 C.2       9 UNK         0.5513 
     57 N          21.8902  -37.0859  -42.2774 N.am      9 UNK        -0.7519 
     58 O          21.1819  -36.8520  -40.1867 O.2       9 UNK        -0.4960 
     59 C59        19.8566  -34.5225  -42.0529 C.3       10 UNK        -0.0876 
     60 S60        19.6438  -32.7792  -42.5408 S.3       10 UNK        -0.2414 
     61 C61        17.8717  -32.7863  -42.9335 C.3       10 UNK         0.0169 
     62 H62        16.9737  -21.0844  -44.6809 H         1 UNK         0.0903 
     63 H63        15.3737  -21.8294  -44.7573 H         1 UNK         0.0903 
     64 H64        16.2321  -21.7366  -43.2171 H         1 UNK         0.0903 
     65 H65        17.0934  -23.7130  -42.6264 H         1 UNK         0.3096 
     66 H66        17.4211  -25.8908  -44.4962 H         1 UNK         0.1121 
     67 H67        18.0955  -27.1709  -42.4118 H         1 UNK         0.0849 
     68 H68        17.9237  -25.7074  -41.4812 H         1 UNK         0.0849 
     69 H69        16.3085  -28.4660  -40.8492 H         1 UNK         0.0865 
     70 H70        14.7430  -28.6395  -41.6016 H         1 UNK         0.0865 
     71 H71        16.8244  -30.7975  -41.4026 H         1 UNK         0.1346 
     72 H72        17.8552  -31.7474  -45.4503 H         1 UNK         0.1412 
     73 H73        15.9767  -28.0069  -44.5525 H         1 UNK         0.1426 
     74 H74        15.9094  -29.1988  -46.9142 H         1 UNK         0.0716 
     75 H75        17.2137  -30.3023  -47.2515 H         1 UNK         0.0716 
     76 H76        19.5309  -29.8822  -47.3635 H         1 UNK         0.0695 
     77 H77        19.6677  -28.6365  -48.5566 H         1 UNK         0.0695 
     78 H78        21.6695  -28.2690  -47.5214 H         1 UNK         0.0983 
     79 H79        19.7345  -26.4842  -46.4390 H         1 UNK         0.3095 
     80 H80        21.8217  -24.2804  -44.7514 H         1 UNK         0.0454 
     81 H81        22.2428  -23.4220  -47.0624 H         1 UNK         0.0851 
     82 H82        20.5661  -23.7261  -47.4960 H         1 UNK         0.0851 
     83 H83        20.9615  -22.5165  -46.2752 H         1 UNK         0.0851 
     84 H84        19.0627  -24.1173  -45.5371 H         1 UNK         0.2976 
     85 H85        20.5491  -27.7605  -44.2532 H         1 UNK         0.3116 
     86 H86        21.8956  -30.2528  -43.3069 H         1 UNK         0.0646 
     87 H87        20.2346  -28.2160  -41.7267 H         1 UNK         0.0847 
     88 H88        20.8798  -29.7423  -41.1459 H         1 UNK         0.0847 
     89 H89        19.6177  -29.7351  -42.3675 H         1 UNK         0.0847 
     90 H90        21.7699  -26.7049  -42.8436 H         1 UNK         0.3040 
     91 H91        23.1609  -25.1405  -42.1870 H         1 UNK         0.1015 
     92 H92        24.6285  -25.8798  -44.0694 H         1 UNK         0.0786 
     93 H93        25.4875  -26.9755  -42.9999 H         1 UNK         0.0786 
     94 H94        25.5682  -25.2324  -42.7442 H         1 UNK         0.0786 
     95 H95        25.9434  -26.2494  -40.9548 H         1 UNK         0.3172 
     96 H96        25.0104  -26.1251  -38.1866 H         1 UNK         0.0595 
     97 H97        27.0853  -24.9497  -38.9024 H         1 UNK         0.0839 
     98 H98        27.8173  -26.4861  -39.3673 H         1 UNK         0.0839 
     99 H99        27.4452  -26.1571  -37.6823 H         1 UNK         0.0839 
    100 H100       25.3825  -28.6840  -40.4324 H         1 UNK         0.2998 
    101 H101       26.2252  -30.7182  -38.4541 H         1 UNK         0.0822 
    102 H102       25.6735  -30.8978  -41.4693 H         1 UNK         0.0787 
    103 H103       27.2658  -30.7316  -40.7307 H         1 UNK         0.0787 
    104 H104       26.3201  -32.1876  -40.4683 H         1 UNK         0.0787 
    105 H105       24.9931  -32.7200  -38.3402 H         1 UNK         0.3055 
    106 H106       22.0418  -32.3970  -38.4232 H         1 UNK         0.1106 
    107 H107       23.0402  -33.4126  -36.3667 H         1 UNK         0.0828 
    108 H108       22.0615  -34.5864  -37.2317 H         1 UNK         0.0828 
    109 H109       23.8130  -34.6627  -37.3410 H         1 UNK         0.0828 
    110 H110       20.7933  -33.6029  -39.8563 H         1 UNK         0.2931 
    111 H111       21.9908  -34.5227  -42.2931 H         1 UNK         0.0412 
    112 H112       22.0013  -38.0788  -42.1408 H         1 UNK         0.3472 
    113 H113       22.1157  -36.6755  -43.1707 H         1 UNK         0.3472 
    114 H114       19.1058  -34.7789  -41.3029 H         1 UNK         0.0970 
    115 H115       19.6415  -35.1411  -42.9262 H         1 UNK         0.0970 
    116 H116       17.6787  -33.5213  -43.7166 H         1 UNK         0.0612 
    117 H117       17.3090  -33.1137  -42.0579 H         1 UNK         0.0612 
@<TRIPOS>BOND
     1    1    2 1    
     2    1   62 1    
     3    1   63 1    
     4    1   64 1    
     5    2    3 2    
     6    2    4 am   BACKBONE|DICT|INTERRES
     7    4    5 1    
     8    4   65 1    
     9    5    6 1    
    10    5   25 1    
    11    5   66 1    
    12    6    7 1    
    13    6   67 1    
    14    6   68 1    
    15    7    8 1    
    16    8    9 1    
    17    8   69 1    
    18    8   70 1    
    19    9   10 ar   
    20    9   14 ar   
    21   10   11 ar   
    22   10   71 1    
    23   11   12 ar   
    24   11   61 1    
    25   12   13 ar   
    26   12   72 1    
    27   13   14 ar   
    28   13   15 1    
    29   14   73 1    
    30   15   16 1    
    31   15   74 1    
    32   15   75 1    
    33   16   17 1    
    34   17   18 1    
    35   17   76 1    
    36   17   77 1    
    37   18   19 1    
    38   18   27 1    
    39   18   78 1    
    40   19   20 am   BACKBONE|DICT|INTERRES
    41   19   79 1    
    42   20   21 2    
    43   20   22 1    
    44   22   23 1    
    45   22   24 1    
    46   22   80 1    
    47   23   81 1    
    48   23   82 1    
    49   23   83 1    
    50   24   25 am   BACKBONE|DICT|INTERRES
    51   24   84 1    
    52   25   26 2    
    53   27   28 2    
    54   27   29 am   BACKBONE|DICT|INTERRES
    55   29   30 1    
    56   29   85 1    
    57   30   31 1    
    58   30   32 1    
    59   30   86 1    
    60   31   87 1    
    61   31   88 1    
    62   31   89 1    
    63   32   33 2    
    64   32   34 am   BACKBONE|DICT|INTERRES
    65   34   35 1    
    66   34   90 1    
    67   35   36 1    
    68   35   37 1    
    69   35   91 1    
    70   36   92 1    
    71   36   93 1    
    72   36   94 1    
    73   37   38 2    
    74   37   39 am   BACKBONE|DICT|INTERRES
    75   39   40 1    
    76   39   95 1    
    77   40   41 1    
    78   40   42 1    
    79   40   96 1    
    80   41   97 1    
    81   41   98 1    
    82   41   99 1    
    83   42   43 2    
    84   42   44 am   BACKBONE|DICT|INTERRES
    85   44   45 1    
    86   44  100 1    
    87   45   46 1    
    88   45   47 1    
    89   45  101 1    
    90   46  102 1    
    91   46  103 1    
    92   46  104 1    
    93   47   48 2    
    94   47   49 am   BACKBONE|DICT|INTERRES
    95   49   50 1    
    96   49  105 1    
    97   50   51 1    
    98   50   52 1    
    99   50  106 1    
   100   51  107 1    
   101   51  108 1    
   102   51  109 1    
   103   52   53 2    
   104   52   54 am   BACKBONE|DICT|INTERRES
   105   54   55 1    
   106   54  110 1    
   107   55   56 1    
   108   55   59 1    
   109   55  111 1    
   110   56   57 am   BACKBONE|DICT|INTERRES
   111   56   58 2    
   112   57  112 1    
   113   57  113 1    
   114   59   60 1    
   115   59  114 1    
   116   59  115 1    
   117   60   61 1    
   118   61  116 1    
   119   61  117 1    
@<TRIPOS>SUBSTRUCTURE
     1 UNK         1 GROUP             0       ****    0 ROOT    
