@<TRIPOS>MOLECULE
3R8
117   119    1
SMALL
USER_CHARGES


@<TRIPOS>ATOM
      1 CA         19.2275  -26.6669  -38.3080 C.3       0 UNK        -0.2013 
      2 C          18.0715  -26.5449  -39.2896 C.2       0 UNK         0.4866 
      3 O          17.1378  -25.7809  -39.0442 O.2       0 UNK        -0.5176 
      4 N          18.1263  -27.2993  -40.3943 N.am      1 UNK        -0.4884 
      5 CA         17.1336  -27.2781  -41.4713 C.3       1 UNK         0.0853 
      6 C6         17.0614  -28.6487  -42.2002 C.3       10 UNK        -0.0849 
      7 S7         16.2891  -28.6758  -43.8571 S.3       10 UNK        -0.2776 
      8 C8         16.5997  -30.3980  -44.3633 C.3       10 UNK         0.0316 
      9 C9         18.0652  -30.6353  -44.6986 C.ar      10 UNK        -0.0863 
     10 C10        18.9479  -31.0801  -43.7129 C.ar      10 UNK        -0.1009 
     11 C11        20.2977  -31.2890  -44.0001 C.ar      10 UNK        -0.0712 
     12 C12        20.7642  -31.0680  -45.2986 C.ar      10 UNK        -0.0894 
     13 C13        19.8897  -30.6262  -46.2976 C.ar      10 UNK        -0.0745 
     14 C14        18.5420  -30.4118  -45.9922 C.ar      10 UNK        -0.0972 
     15 C15        20.3910  -30.3786  -47.7110 C.3       10 UNK         0.0209 
     16 S16        20.5891  -28.6020  -48.0517 S.3       10 UNK        -0.2568 
     17 C17        22.1047  -28.2071  -47.1193 C.3       10 UNK        -0.0983 
     18 CA         21.9269  -26.9627  -46.2090 C.3       3 UNK         0.0876 
     19 N          20.9662  -27.2017  -45.1252 N.am      3 UNK        -0.4424 
     20 C          20.1672  -26.2613  -44.6109 C.2       2 UNK         0.4918 
     21 O          19.9269  -25.1788  -45.1538 O.2       2 UNK        -0.4875 
     22 CA         19.6263  -26.5368  -43.2014 C.3       2 UNK         0.0481 
     23 CB         20.7032  -26.1290  -42.1793 C.3       2 UNK        -0.1831 
     24 N          18.4239  -25.7307  -43.0072 N.am      2 UNK        -0.4498 
     25 C          17.2810  -26.0143  -42.3619 C.2       1 UNK         0.5027 
     26 O          16.3236  -25.2440  -42.4347 O.2       1 UNK        -0.4969 
     27 C          23.2695  -26.5010  -45.5913 C.2       3 UNK         0.5005 
     28 O          23.3541  -26.2862  -44.3777 O.2       3 UNK        -0.5279 
     29 N          24.3197  -26.3958  -46.4210 N.am      4 UNK        -0.4463 
     30 CA         25.6852  -25.9861  -46.0514 C.3       4 UNK         0.0283 
     31 CB         26.5632  -25.9810  -47.3136 C.3       4 UNK        -0.1875 
     32 C          26.3578  -26.8185  -44.9379 C.2       4 UNK         0.4949 
     33 O          27.3315  -26.3527  -44.3466 O.2       4 UNK        -0.5039 
     34 N          25.8180  -28.0114  -44.6503 N.am      5 UNK        -0.4663 
     35 CA         26.1646  -28.8469  -43.4980 C.3       5 UNK         0.0242 
     36 CB         25.4605  -30.2066  -43.6422 C.3       5 UNK        -0.1982 
     37 C          25.8161  -28.2100  -42.1363 C.2       5 UNK         0.5017 
     38 O          26.4293  -28.5901  -41.1389 O.2       5 UNK        -0.5012 
     39 N          24.8563  -27.2673  -42.1185 N.am      6 UNK        -0.4439 
     40 CA         24.3816  -26.5014  -40.9574 C.3       6 UNK         0.0297 
     41 CB         25.4774  -25.5320  -40.4655 C.3       6 UNK        -0.2006 
     42 C          23.8172  -27.3959  -39.8340 C.2       6 UNK         0.4892 
     43 O          24.1433  -27.1965  -38.6619 O.2       6 UNK        -0.5089 
     44 N          22.9934  -28.3770  -40.2198 N.am      7 UNK        -0.4243 
     45 CA         22.4043  -29.3836  -39.3400 C.3       7 UNK         0.0196 
     46 CB         23.1959  -30.6955  -39.4984 C.3       7 UNK        -0.2007 
     47 C          20.9254  -29.5903  -39.6875 C.2       7 UNK         0.5020 
     48 O          20.4423  -29.0698  -40.6969 O.2       7 UNK        -0.5147 
     49 N          20.2282  -30.3583  -38.8428 N.am      8 UNK        -0.4734 
     50 CA         18.8439  -30.7853  -39.0707 C.3       8 UNK         0.0238 
     51 CB         18.1449  -30.9775  -37.7152 C.3       8 UNK        -0.1912 
     52 C          18.7453  -32.0709  -39.9127 C.2       8 UNK         0.5038 
     53 O          17.7057  -32.2868  -40.5359 O.2       8 UNK        -0.5046 
     54 N          19.8128  -32.8869  -39.9190 N.am      9 UNK        -0.4200 
     55 CA         19.9058  -34.2096  -40.5671 C.3       9 UNK         0.0839 
     56 C          18.8921  -35.2526  -39.9944 C.2       9 UNK         0.5513 
     57 N          18.7753  -36.4269  -40.6008 N.am      9 UNK        -0.7519 
     58 O          18.2514  -35.0423  -38.9657 O.2       9 UNK        -0.4960 
     59 C59        19.9107  -34.1145  -42.1258 C.3       10 UNK        -0.0876 
     60 S60        21.4987  -33.5024  -42.7934 S.3       10 UNK        -0.2414 
     61 C61        21.2542  -31.7039  -42.8933 C.3       10 UNK         0.0169 
     62 H62        19.3243  -25.7564  -37.7167 H         1 UNK         0.0903 
     63 H63        19.0562  -27.4997  -37.6263 H         1 UNK         0.0903 
     64 H64        20.1737  -26.8296  -38.8223 H         1 UNK         0.0903 
     65 H65        18.9392  -27.8901  -40.5550 H         1 UNK         0.3096 
     66 H66        16.1568  -27.1634  -40.9948 H         1 UNK         0.1121 
     67 H67        18.0645  -29.0567  -42.2879 H         1 UNK         0.0849 
     68 H68        16.5277  -29.3613  -41.5692 H         1 UNK         0.0849 
     69 H69        16.2738  -31.0776  -43.5739 H         1 UNK         0.0865 
     70 H70        15.9815  -30.6270  -45.2327 H         1 UNK         0.0865 
     71 H71        18.5846  -31.2456  -42.7104 H         1 UNK         0.1346 
     72 H72        21.8083  -31.2332  -45.5266 H         1 UNK         0.1412 
     73 H73        17.8667  -30.0623  -46.7615 H         1 UNK         0.1426 
     74 H74        19.6779  -30.7949  -48.4241 H         1 UNK         0.0716 
     75 H75        21.3353  -30.8954  -47.8893 H         1 UNK         0.0716 
     76 H76        22.8815  -28.0476  -47.8685 H         1 UNK         0.0695 
     77 H77        22.4264  -29.0682  -46.5325 H         1 UNK         0.0695 
     78 H78        21.5758  -26.1368  -46.8318 H         1 UNK         0.0983 
     79 H79        21.1059  -28.0514  -44.5997 H         1 UNK         0.3095 
     80 H80        19.4097  -27.5986  -43.1164 H         1 UNK         0.0454 
     81 H81        21.0489  -25.1074  -42.3431 H         1 UNK         0.0851 
     82 H82        21.5705  -26.7817  -42.2674 H         1 UNK         0.0851 
     83 H83        20.3611  -26.1927  -41.1515 H         1 UNK         0.0851 
     84 H84        18.4356  -24.8972  -43.5811 H         1 UNK         0.2976 
     85 H85        24.1724  -26.5901  -47.4012 H         1 UNK         0.3116 
     86 H86        25.6202  -24.9619  -45.6788 H         1 UNK         0.0646 
     87 H87        26.1686  -25.3049  -48.0721 H         1 UNK         0.0847 
     88 H88        27.5764  -25.6471  -47.0848 H         1 UNK         0.0847 
     89 H89        26.6415  -26.9754  -47.7546 H         1 UNK         0.0847 
     90 H90        25.0317  -28.3120  -45.2057 H         1 UNK         0.3040 
     91 H91        27.2446  -29.0096  -43.5134 H         1 UNK         0.1015 
     92 H92        24.3756  -30.0994  -43.6590 H         1 UNK         0.0786 
     93 H93        25.7089  -30.8657  -42.8090 H         1 UNK         0.0786 
     94 H94        25.7632  -30.7164  -44.5570 H         1 UNK         0.0786 
     95 H95        24.4105  -27.0225  -43.0014 H         1 UNK         0.3172 
     96 H96        23.5509  -25.8916  -41.3128 H         1 UNK         0.0595 
     97 H97        26.3324  -26.0644  -40.0475 H         1 UNK         0.0839 
     98 H98        25.8404  -24.8999  -41.2761 H         1 UNK         0.0839 
     99 H99        25.0939  -24.8714  -39.6869 H         1 UNK         0.0839 
    100 H100       22.7124  -28.4347  -41.1883 H         1 UNK         0.2998 
    101 H101       22.4536  -29.0526  -38.3003 H         1 UNK         0.0822 
    102 H102       22.8328  -31.4690  -38.8213 H         1 UNK         0.0787 
    103 H103       23.1285  -31.0884  -40.5137 H         1 UNK         0.0787 
    104 H104       24.2522  -30.5453  -39.2732 H         1 UNK         0.0787 
    105 H105       20.6846  -30.7153  -38.0149 H         1 UNK         0.3055 
    106 H106       18.3074  -30.0058  -39.6149 H         1 UNK         0.1106 
    107 H107       18.1472  -30.0559  -37.1328 H         1 UNK         0.0828 
    108 H108       17.1025  -31.2690  -37.8526 H         1 UNK         0.0828 
    109 H109       18.6233  -31.7552  -37.1184 H         1 UNK         0.0828 
    110 H110       20.6088  -32.6256  -39.3591 H         1 UNK         0.2931 
    111 H111       20.8764  -34.6000  -40.2585 H         1 UNK         0.0412 
    112 H112       18.1394  -37.1098  -40.2186 H         1 UNK         0.3472 
    113 H113       19.3209  -36.6557  -41.4167 H         1 UNK         0.3472 
    114 H114       19.7725  -35.0940  -42.5834 H         1 UNK         0.0970 
    115 H115       19.0765  -33.5178  -42.4904 H         1 UNK         0.0970 
    116 H116       20.8960  -31.3419  -41.9334 H         1 UNK         0.0612 
    117 H117       22.2227  -31.2282  -43.0507 H         1 UNK         0.0612 
@<TRIPOS>BOND
     1    1    2 1    
     2    1   62 1    
     3    1   63 1    
     4    1   64 1    
     5    2    3 2    
     6    2    4 am   BACKBONE|DICT|INTERRES
     7    4    5 1    
     8    4   65 1    
     9    5    6 1    
    10    5   25 1    
    11    5   66 1    
    12    6    7 1    
    13    6   67 1    
    14    6   68 1    
    15    7    8 1    
    16    8    9 1    
    17    8   69 1    
    18    8   70 1    
    19    9   10 ar   
    20    9   14 ar   
    21   10   11 ar   
    22   10   71 1    
    23   11   12 ar   
    24   11   61 1    
    25   12   13 ar   
    26   12   72 1    
    27   13   14 ar   
    28   13   15 1    
    29   14   73 1    
    30   15   16 1    
    31   15   74 1    
    32   15   75 1    
    33   16   17 1    
    34   17   18 1    
    35   17   76 1    
    36   17   77 1    
    37   18   19 1    
    38   18   27 1    
    39   18   78 1    
    40   19   20 am   BACKBONE|DICT|INTERRES
    41   19   79 1    
    42   20   21 2    
    43   20   22 1    
    44   22   23 1    
    45   22   24 1    
    46   22   80 1    
    47   23   81 1    
    48   23   82 1    
    49   23   83 1    
    50   24   25 am   BACKBONE|DICT|INTERRES
    51   24   84 1    
    52   25   26 2    
    53   27   28 2    
    54   27   29 am   BACKBONE|DICT|INTERRES
    55   29   30 1    
    56   29   85 1    
    57   30   31 1    
    58   30   32 1    
    59   30   86 1    
    60   31   87 1    
    61   31   88 1    
    62   31   89 1    
    63   32   33 2    
    64   32   34 am   BACKBONE|DICT|INTERRES
    65   34   35 1    
    66   34   90 1    
    67   35   36 1    
    68   35   37 1    
    69   35   91 1    
    70   36   92 1    
    71   36   93 1    
    72   36   94 1    
    73   37   38 2    
    74   37   39 am   BACKBONE|DICT|INTERRES
    75   39   40 1    
    76   39   95 1    
    77   40   41 1    
    78   40   42 1    
    79   40   96 1    
    80   41   97 1    
    81   41   98 1    
    82   41   99 1    
    83   42   43 2    
    84   42   44 am   BACKBONE|DICT|INTERRES
    85   44   45 1    
    86   44  100 1    
    87   45   46 1    
    88   45   47 1    
    89   45  101 1    
    90   46  102 1    
    91   46  103 1    
    92   46  104 1    
    93   47   48 2    
    94   47   49 am   BACKBONE|DICT|INTERRES
    95   49   50 1    
    96   49  105 1    
    97   50   51 1    
    98   50   52 1    
    99   50  106 1    
   100   51  107 1    
   101   51  108 1    
   102   51  109 1    
   103   52   53 2    
   104   52   54 am   BACKBONE|DICT|INTERRES
   105   54   55 1    
   106   54  110 1    
   107   55   56 1    
   108   55   59 1    
   109   55  111 1    
   110   56   57 am   BACKBONE|DICT|INTERRES
   111   56   58 2    
   112   57  112 1    
   113   57  113 1    
   114   59   60 1    
   115   59  114 1    
   116   59  115 1    
   117   60   61 1    
   118   61  116 1    
   119   61  117 1    
@<TRIPOS>SUBSTRUCTURE
     1 UNK         1 GROUP             0       ****    0 ROOT    
