@<TRIPOS>MOLECULE
3R8
117   119    1
SMALL
USER_CHARGES


@<TRIPOS>ATOM
      1 CA         14.2120  -23.2251  -45.4062 C.3       0 UNK        -0.2013 
      2 C          15.5471  -23.7920  -45.8654 C.2       0 UNK         0.4866 
      3 O          16.4570  -23.0276  -46.1855 O.2       0 UNK        -0.5176 
      4 N          15.6615  -25.1250  -45.9102 N.am      1 UNK        -0.4884 
      5 CA         16.8751  -25.8721  -46.2530 C.3       1 UNK         0.0853 
      6 C6         16.5578  -27.3196  -46.7235 C.3       10 UNK        -0.0849 
      7 S7         15.3141  -28.2026  -45.7068 S.3       10 UNK        -0.2776 
      8 C8         15.9199  -29.9187  -45.7554 C.3       10 UNK         0.0316 
      9 C9         17.1546  -30.0954  -44.8872 C.ar      10 UNK        -0.0863 
     10 C10        17.0303  -30.1463  -43.4970 C.ar      10 UNK        -0.1009 
     11 C11        18.1619  -30.2685  -42.6861 C.ar      10 UNK        -0.0712 
     12 C12        19.4269  -30.3575  -43.2791 C.ar      10 UNK        -0.0894 
     13 C13        19.5597  -30.3251  -44.6722 C.ar      10 UNK        -0.0745 
     14 C14        18.4197  -30.1977  -45.4691 C.ar      10 UNK        -0.0972 
     15 C15        20.9235  -30.4392  -45.3360 C.3       10 UNK         0.0209 
     16 S16        21.5576  -28.8215  -45.8751 S.3       10 UNK        -0.2568 
     17 C17        22.4022  -28.2379  -44.3688 C.3       10 UNK        -0.0983 
     18 CA         22.0697  -26.7588  -44.0254 C.3       3 UNK         0.0876 
     19 N          20.6335  -26.5389  -43.7863 N.am      3 UNK        -0.4424 
     20 C          19.8932  -26.9880  -42.7646 C.2       2 UNK         0.4918 
     21 O          20.3636  -27.6183  -41.8157 O.2       2 UNK        -0.4875 
     22 CA         18.3905  -26.6351  -42.7508 C.3       2 UNK         0.0481 
     23 CB         18.1608  -25.3263  -41.9722 C.3       2 UNK        -0.1831 
     24 N          17.6961  -26.5937  -44.0504 N.am      2 UNK        -0.4498 
     25 C          17.9022  -25.7899  -45.1042 C.2       1 UNK         0.5027 
     26 O          18.8341  -24.9876  -45.1830 O.2       1 UNK        -0.4969 
     27 C          22.9733  -26.2316  -42.8834 C.2       3 UNK         0.5005 
     28 O          24.1090  -26.6896  -42.7491 O.2       3 UNK        -0.5279 
     29 N          22.4435  -25.3369  -42.0308 N.am      4 UNK        -0.4463 
     30 CA         23.0175  -24.8712  -40.7574 C.3       4 UNK         0.0283 
     31 CB         24.2231  -23.9452  -41.0226 C.3       4 UNK        -0.1875 
     32 C          23.3675  -26.0153  -39.7747 C.2       4 UNK         0.4949 
     33 O          24.2238  -25.8291  -38.9095 O.2       4 UNK        -0.5039 
     34 N          22.7334  -27.1870  -39.9556 N.am      5 UNK        -0.4663 
     35 CA         23.0475  -28.4815  -39.3372 C.3       5 UNK         0.0242 
     36 CB         22.7039  -28.4711  -37.8334 C.3       5 UNK        -0.1982 
     37 C          24.4818  -28.9882  -39.6207 C.2       5 UNK         0.5017 
     38 O          24.9898  -29.8149  -38.8611 O.2       5 UNK        -0.5012 
     39 N          25.1105  -28.5137  -40.7083 N.am      6 UNK        -0.4439 
     40 CA         26.4437  -28.9414  -41.1475 C.3       6 UNK         0.0297 
     41 CB         27.1126  -27.7964  -41.9255 C.3       6 UNK        -0.2006 
     42 C          26.4066  -30.2219  -42.0019 C.2       6 UNK         0.4892 
     43 O          27.4518  -30.8442  -42.1953 O.2       6 UNK        -0.5089 
     44 N          25.2202  -30.5917  -42.4955 N.am      7 UNK        -0.4243 
     45 CA         24.9408  -31.8021  -43.2593 C.3       7 UNK         0.0196 
     46 CB         24.9951  -31.4825  -44.7633 C.3       7 UNK        -0.2007 
     47 C          23.5529  -32.3085  -42.8559 C.2       7 UNK         0.5020 
     48 O          22.7595  -31.5265  -42.3232 O.2       7 UNK        -0.5147 
     49 N          23.2904  -33.5957  -43.1265 N.am      8 UNK        -0.4734 
     50 CA         22.0569  -34.3540  -42.8610 C.3       8 UNK         0.0238 
     51 CB         20.9165  -33.9044  -43.7979 C.3       8 UNK        -0.1912 
     52 C          21.6463  -34.3377  -41.3773 C.2       8 UNK         0.5038 
     53 O          21.9562  -35.2842  -40.6527 O.2       8 UNK        -0.5046 
     54 N          20.9842  -33.2539  -40.9584 N.am      9 UNK        -0.4200 
     55 CA         20.6768  -32.9215  -39.5614 C.3       9 UNK         0.0839 
     56 C          21.9399  -32.6442  -38.6974 C.2       9 UNK         0.5513 
     57 N          23.0408  -32.1999  -39.2910 N.am      9 UNK        -0.7519 
     58 O          21.9091  -32.8190  -37.4824 O.2       9 UNK        -0.4960 
     59 C59        19.7186  -31.7071  -39.4631 C.3       10 UNK        -0.0876 
     60 S60        18.1830  -31.8995  -40.4335 S.3       10 UNK        -0.2414 
     61 C61        18.0081  -30.2438  -41.1724 C.3       10 UNK         0.0169 
     62 H62        13.7801  -22.6012  -46.1883 H         1 UNK         0.0903 
     63 H63        13.4957  -24.0105  -45.1653 H         1 UNK         0.0903 
     64 H64        14.3516  -22.6100  -44.5176 H         1 UNK         0.0903 
     65 H65        14.8778  -25.7018  -45.6348 H         1 UNK         0.3096 
     66 H66        17.3416  -25.3653  -47.1015 H         1 UNK         0.1121 
     67 H67        17.4754  -27.9044  -46.8003 H         1 UNK         0.0849 
     68 H68        16.1612  -27.2795  -47.7392 H         1 UNK         0.0849 
     69 H69        15.1310  -30.5831  -45.3998 H         1 UNK         0.0865 
     70 H70        16.1192  -30.2093  -46.7882 H         1 UNK         0.0865 
     71 H71        16.0504  -30.0641  -43.0464 H         1 UNK         0.1346 
     72 H72        20.3071  -30.4324  -42.6554 H         1 UNK         0.1412 
     73 H73        18.5235  -30.1660  -46.5453 H         1 UNK         0.1426 
     74 H74        20.8447  -31.0901  -46.2078 H         1 UNK         0.0716 
     75 H75        21.6445  -30.9160  -44.6736 H         1 UNK         0.0716 
     76 H76        23.4711  -28.3671  -44.5480 H         1 UNK         0.0695 
     77 H77        22.1577  -28.8872  -43.5264 H         1 UNK         0.0695 
     78 H78        22.3260  -26.1513  -44.8947 H         1 UNK         0.0983 
     79 H79        20.1484  -25.9734  -44.4803 H         1 UNK         0.3095 
     80 H80        17.8980  -27.4301  -42.1906 H         1 UNK         0.0454 
     81 H81        18.6062  -24.4678  -42.4756 H         1 UNK         0.0851 
     82 H82        18.5992  -25.3823  -40.9747 H         1 UNK         0.0851 
     83 H83        17.0974  -25.1237  -41.8451 H         1 UNK         0.0851 
     84 H84        16.9337  -27.2541  -44.1415 H         1 UNK         0.2976 
     85 H85        21.5011  -25.0272  -42.2221 H         1 UNK         0.3116 
     86 H86        22.2423  -24.2793  -40.2689 H         1 UNK         0.0646 
     87 H87        23.9626  -23.1398  -41.7091 H         1 UNK         0.0847 
     88 H88        25.0650  -24.4912  -41.4497 H         1 UNK         0.0847 
     89 H89        24.5727  -23.4803  -40.1000 H         1 UNK         0.0847 
     90 H90        22.0152  -27.2243  -40.6738 H         1 UNK         0.3040 
     91 H91        22.3862  -29.2053  -39.8169 H         1 UNK         0.1015 
     92 H92        23.3728  -27.8198  -37.2702 H         1 UNK         0.0786 
     93 H93        22.7872  -29.4715  -37.4062 H         1 UNK         0.0786 
     94 H94        21.6818  -28.1334  -37.6628 H         1 UNK         0.0786 
     95 H95        24.6441  -27.8257  -41.2964 H         1 UNK         0.3172 
     96 H96        27.0569  -29.1495  -40.2682 H         1 UNK         0.0595 
     97 H97        26.5950  -27.5868  -42.8622 H         1 UNK         0.0839 
     98 H98        28.1442  -28.0471  -42.1756 H         1 UNK         0.0839 
     99 H99        27.1344  -26.8765  -41.3409 H         1 UNK         0.0839 
    100 H100       24.3963  -30.0647  -42.2369 H         1 UNK         0.2998 
    101 H101       25.6754  -32.5729  -43.0159 H         1 UNK         0.0822 
    102 H102       25.9773  -31.1080  -45.0524 H         1 UNK         0.0787 
    103 H103       24.7984  -32.3720  -45.3630 H         1 UNK         0.0787 
    104 H104       24.2561  -30.7305  -45.0425 H         1 UNK         0.0787 
    105 H105       24.0340  -34.1401  -43.5431 H         1 UNK         0.3055 
    106 H106       22.2794  -35.3949  -43.1035 H         1 UNK         0.1106 
    107 H107       20.6523  -32.8591  -43.6561 H         1 UNK         0.0828 
    108 H108       20.0141  -34.4920  -43.6242 H         1 UNK         0.0828 
    109 H109       21.1910  -34.0361  -44.8444 H         1 UNK         0.0828 
    110 H110       20.8529  -32.5071  -41.6252 H         1 UNK         0.2931 
    111 H111       20.1723  -33.7867  -39.1272 H         1 UNK         0.0412 
    112 H112       23.0384  -32.0334  -40.2883 H         1 UNK         0.3472 
    113 H113       23.8564  -31.9769  -38.7404 H         1 UNK         0.3472 
    114 H114       20.2441  -30.8055  -39.7832 H         1 UNK         0.0970 
    115 H115       19.4322  -31.5340  -38.4238 H         1 UNK         0.0970 
    116 H116       17.0247  -29.8570  -40.9012 H         1 UNK         0.0612 
    117 H117       18.7218  -29.5390  -40.7457 H         1 UNK         0.0612 
@<TRIPOS>BOND
     1    1    2 1    
     2    1   62 1    
     3    1   63 1    
     4    1   64 1    
     5    2    3 2    
     6    2    4 am   BACKBONE|DICT|INTERRES
     7    4    5 1    
     8    4   65 1    
     9    5    6 1    
    10    5   25 1    
    11    5   66 1    
    12    6    7 1    
    13    6   67 1    
    14    6   68 1    
    15    7    8 1    
    16    8    9 1    
    17    8   69 1    
    18    8   70 1    
    19    9   10 ar   
    20    9   14 ar   
    21   10   11 ar   
    22   10   71 1    
    23   11   12 ar   
    24   11   61 1    
    25   12   13 ar   
    26   12   72 1    
    27   13   14 ar   
    28   13   15 1    
    29   14   73 1    
    30   15   16 1    
    31   15   74 1    
    32   15   75 1    
    33   16   17 1    
    34   17   18 1    
    35   17   76 1    
    36   17   77 1    
    37   18   19 1    
    38   18   27 1    
    39   18   78 1    
    40   19   20 am   BACKBONE|DICT|INTERRES
    41   19   79 1    
    42   20   21 2    
    43   20   22 1    
    44   22   23 1    
    45   22   24 1    
    46   22   80 1    
    47   23   81 1    
    48   23   82 1    
    49   23   83 1    
    50   24   25 am   BACKBONE|DICT|INTERRES
    51   24   84 1    
    52   25   26 2    
    53   27   28 2    
    54   27   29 am   BACKBONE|DICT|INTERRES
    55   29   30 1    
    56   29   85 1    
    57   30   31 1    
    58   30   32 1    
    59   30   86 1    
    60   31   87 1    
    61   31   88 1    
    62   31   89 1    
    63   32   33 2    
    64   32   34 am   BACKBONE|DICT|INTERRES
    65   34   35 1    
    66   34   90 1    
    67   35   36 1    
    68   35   37 1    
    69   35   91 1    
    70   36   92 1    
    71   36   93 1    
    72   36   94 1    
    73   37   38 2    
    74   37   39 am   BACKBONE|DICT|INTERRES
    75   39   40 1    
    76   39   95 1    
    77   40   41 1    
    78   40   42 1    
    79   40   96 1    
    80   41   97 1    
    81   41   98 1    
    82   41   99 1    
    83   42   43 2    
    84   42   44 am   BACKBONE|DICT|INTERRES
    85   44   45 1    
    86   44  100 1    
    87   45   46 1    
    88   45   47 1    
    89   45  101 1    
    90   46  102 1    
    91   46  103 1    
    92   46  104 1    
    93   47   48 2    
    94   47   49 am   BACKBONE|DICT|INTERRES
    95   49   50 1    
    96   49  105 1    
    97   50   51 1    
    98   50   52 1    
    99   50  106 1    
   100   51  107 1    
   101   51  108 1    
   102   51  109 1    
   103   52   53 2    
   104   52   54 am   BACKBONE|DICT|INTERRES
   105   54   55 1    
   106   54  110 1    
   107   55   56 1    
   108   55   59 1    
   109   55  111 1    
   110   56   57 am   BACKBONE|DICT|INTERRES
   111   56   58 2    
   112   57  112 1    
   113   57  113 1    
   114   59   60 1    
   115   59  114 1    
   116   59  115 1    
   117   60   61 1    
   118   61  116 1    
   119   61  117 1    
@<TRIPOS>SUBSTRUCTURE
     1 UNK         1 GROUP             0       ****    0 ROOT    
