@<TRIPOS>MOLECULE
3R8
117   119    1
SMALL
USER_CHARGES


@<TRIPOS>ATOM
      1 CA         15.9308  -23.7133  -47.9802 C.3       0 UNK        -0.2013 
      2 C          16.5832  -24.6777  -47.0016 C.2       0 UNK         0.4866 
      3 O          17.4468  -25.4597  -47.3955 O.2       0 UNK        -0.5176 
      4 N          16.1901  -24.6197  -45.7218 N.am      1 UNK        -0.4884 
      5 CA         16.6917  -25.4844  -44.6428 C.3       1 UNK         0.0853 
      6 C6         15.6091  -25.6777  -43.5466 C.3       10 UNK        -0.0849 
      7 S7         15.8219  -27.1475  -42.4781 S.3       10 UNK        -0.2776 
      8 C8         15.5630  -28.5454  -43.6200 C.3       10 UNK         0.0316 
      9 C9         16.8234  -29.3942  -43.7295 C.ar      10 UNK        -0.0863 
     10 C10        17.0880  -30.3823  -42.7770 C.ar      10 UNK        -0.1009 
     11 C11        18.2448  -31.1626  -42.8648 C.ar      10 UNK        -0.0712 
     12 C12        19.1563  -30.9283  -43.8992 C.ar      10 UNK        -0.0894 
     13 C13        18.9109  -29.9409  -44.8597 C.ar      10 UNK        -0.0745 
     14 C14        17.7251  -29.1990  -44.7793 C.ar      10 UNK        -0.0972 
     15 C15        19.9218  -29.7318  -45.9891 C.3       10 UNK         0.0209 
     16 S16        19.9228  -28.0446  -46.6974 S.3       10 UNK        -0.2568 
     17 C17        21.6626  -27.5209  -46.5153 C.3       10 UNK        -0.0983 
     18 CA         21.9344  -26.6308  -45.2762 C.3       3 UNK         0.0876 
     19 N          21.0120  -25.4938  -45.1909 N.am      3 UNK        -0.4424 
     20 C          21.1438  -24.4489  -44.3618 C.2       2 UNK         0.4918 
     21 O          22.1117  -24.2899  -43.6185 O.2       2 UNK        -0.4875 
     22 CA         19.9827  -23.4349  -44.3112 C.3       2 UNK         0.0481 
     23 CB         20.2897  -22.2292  -45.2127 C.3       2 UNK        -0.1831 
     24 N          18.6677  -23.9844  -44.6694 N.am      2 UNK        -0.4498 
     25 C          18.0684  -25.0374  -44.0901 C.2       1 UNK         0.5027 
     26 O          18.5917  -25.6703  -43.1748 O.2       1 UNK        -0.4969 
     27 C          22.0210  -27.4652  -43.9785 C.2       3 UNK         0.5005 
     28 O          23.0471  -28.1113  -43.7630 O.2       3 UNK        -0.5279 
     29 N          20.9995  -27.4056  -43.1066 N.am      4 UNK        -0.4463 
     30 CA         20.9846  -28.0716  -41.7978 C.3       4 UNK         0.0283 
     31 CB         19.5959  -27.9299  -41.1585 C.3       4 UNK        -0.1875 
     32 C          22.0713  -27.5631  -40.8317 C.2       4 UNK         0.4949 
     33 O          22.4271  -28.2814  -39.8982 O.2       4 UNK        -0.5039 
     34 N          22.6230  -26.3662  -41.0892 N.am      5 UNK        -0.4663 
     35 CA         23.7771  -25.8031  -40.3810 C.3       5 UNK         0.0242 
     36 CB         23.9835  -24.3471  -40.8266 C.3       5 UNK        -0.1982 
     37 C          25.0757  -26.6127  -40.5691 C.2       5 UNK         0.5017 
     38 O          25.9698  -26.5046  -39.7295 O.2       5 UNK        -0.5012 
     39 N          25.1532  -27.4259  -41.6347 N.am      6 UNK        -0.4439 
     40 CA         26.2366  -28.3848  -41.8716 C.3       6 UNK         0.0297 
     41 CB         26.3412  -28.6633  -43.3808 C.3       6 UNK        -0.2006 
     42 C          26.0616  -29.7011  -41.0846 C.2       6 UNK         0.4892 
     43 O          26.9486  -30.5530  -41.1581 O.2       6 UNK        -0.5089 
     44 N          24.9417  -29.8485  -40.3579 N.am      7 UNK        -0.4243 
     45 CA         24.5138  -31.0265  -39.5999 C.3       7 UNK         0.0196 
     46 CB         25.4955  -31.3378  -38.4455 C.3       7 UNK        -0.2007 
     47 C          24.2083  -32.2218  -40.5240 C.2       7 UNK         0.5020 
     48 O          23.7008  -32.0181  -41.6280 O.2       7 UNK        -0.5147 
     49 N          24.4726  -33.4438  -40.0372 N.am      8 UNK        -0.4734 
     50 CA         24.2034  -34.7413  -40.6790 C.3       8 UNK         0.0238 
     51 CB         24.9937  -34.8892  -41.9977 C.3       8 UNK        -0.1912 
     52 C          22.7026  -35.0641  -40.8488 C.2       8 UNK         0.5038 
     53 O          22.3586  -35.9486  -41.6350 O.2       8 UNK        -0.5046 
     54 N          21.8410  -34.3719  -40.0910 N.am      9 UNK        -0.4200 
     55 CA         20.3875  -34.5963  -40.0398 C.3       9 UNK         0.0839 
     56 C          19.9608  -35.8483  -39.2180 C.2       9 UNK         0.5513 
     57 N          20.8469  -36.4921  -38.4670 N.am      9 UNK        -0.7519 
     58 O          18.8003  -36.2473  -39.2696 O.2       9 UNK        -0.4960 
     59 C59        19.6277  -33.3314  -39.5569 C.3       10 UNK        -0.0876 
     60 S60        19.8099  -31.9080  -40.6860 S.3       10 UNK        -0.2414 
     61 C61        18.4827  -32.2892  -41.8707 C.3       10 UNK         0.0169 
     62 H62        15.4278  -24.2675  -48.7721 H         1 UNK         0.0903 
     63 H63        15.1945  -23.0732  -47.4944 H         1 UNK         0.0903 
     64 H64        16.6859  -23.0751  -48.4384 H         1 UNK         0.0903 
     65 H65        15.4893  -23.9428  -45.4509 H         1 UNK         0.3096 
     66 H66        16.8740  -26.4582  -45.0905 H         1 UNK         0.1121 
     67 H67        15.5524  -24.7935  -42.9091 H         1 UNK         0.0849 
     68 H68        14.6243  -25.7681  -44.0085 H         1 UNK         0.0849 
     69 H69        14.7395  -29.1564  -43.2472 H         1 UNK         0.0865 
     70 H70        15.2498  -28.1908  -44.6030 H         1 UNK         0.0865 
     71 H71        16.3864  -30.5480  -41.9708 H         1 UNK         0.1346 
     72 H72        20.0542  -31.5286  -43.9599 H         1 UNK         0.1412 
     73 H73        17.5020  -28.4676  -45.5398 H         1 UNK         0.1426 
     74 H74        19.7015  -30.4412  -46.7876 H         1 UNK         0.0716 
     75 H75        20.9215  -29.9770  -45.6278 H         1 UNK         0.0716 
     76 H76        22.3247  -28.3887  -46.5345 H         1 UNK         0.0695 
     77 H77        21.9147  -26.9549  -47.4133 H         1 UNK         0.0695 
     78 H78        22.9314  -26.2041  -45.4080 H         1 UNK         0.0983 
     79 H79        20.1795  -25.5610  -45.7597 H         1 UNK         0.3095 
     80 H80        19.9121  -23.0802  -43.2811 H         1 UNK         0.0454 
     81 H81        21.2509  -21.7827  -44.9539 H         1 UNK         0.0851 
     82 H82        20.3355  -22.5127  -46.2650 H         1 UNK         0.0851 
     83 H83        19.5353  -21.4496  -45.1061 H         1 UNK         0.0851 
     84 H84        18.1770  -23.5319  -45.4270 H         1 UNK         0.2976 
     85 H85        20.1883  -26.8340  -43.3268 H         1 UNK         0.3116 
     86 H86        21.1704  -29.1340  -41.9707 H         1 UNK         0.0646 
     87 H87        19.5263  -28.5209  -40.2445 H         1 UNK         0.0847 
     88 H88        18.8129  -28.2803  -41.8300 H         1 UNK         0.0847 
     89 H89        19.3731  -26.8946  -40.8985 H         1 UNK         0.0847 
     90 H90        22.2766  -25.8365  -41.8798 H         1 UNK         0.3040 
     91 H91        23.5455  -25.8074  -39.3135 H         1 UNK         0.1015 
     92 H92        23.0874  -23.7484  -40.6612 H         1 UNK         0.0786 
     93 H93        24.2395  -24.2824  -41.8849 H         1 UNK         0.0786 
     94 H94        24.7940  -23.8785  -40.2666 H         1 UNK         0.0786 
     95 H95        24.3656  -27.4759  -42.2744 H         1 UNK         0.3172 
     96 H96        27.1787  -27.9367  -41.5491 H         1 UNK         0.0595 
     97 H97        27.2104  -29.2838  -43.6030 H         1 UNK         0.0839 
     98 H98        26.4481  -27.7410  -43.9520 H         1 UNK         0.0839 
     99 H99        25.4641  -29.1925  -43.7549 H         1 UNK         0.0839 
    100 H100       24.2548  -29.1032  -40.3868 H         1 UNK         0.2998 
    101 H101       23.5588  -30.7514  -39.1496 H         1 UNK         0.0822 
    102 H102       25.7162  -30.4399  -37.8679 H         1 UNK         0.0787 
    103 H103       25.0747  -32.0628  -37.7481 H         1 UNK         0.0787 
    104 H104       26.4436  -31.7364  -38.8088 H         1 UNK         0.0787 
    105 H105       24.8910  -33.4948  -39.1178 H         1 UNK         0.3055 
    106 H106       24.5838  -35.4985  -39.9914 H         1 UNK         0.1106 
    107 H107       24.6115  -34.2296  -42.7772 H         1 UNK         0.0828 
    108 H108       26.0504  -34.6634  -41.8552 H         1 UNK         0.0828 
    109 H109       24.9312  -35.9088  -42.3799 H         1 UNK         0.0828 
    110 H110       22.2061  -33.6587  -39.4792 H         1 UNK         0.2931 
    111 H111       20.0573  -34.7997  -41.0602 H         1 UNK         0.0412 
    112 H112       21.8016  -36.1761  -38.4131 H         1 UNK         0.3472 
    113 H113       20.5539  -37.3035  -37.9448 H         1 UNK         0.3472 
    114 H114       18.5625  -33.5376  -39.4348 H         1 UNK         0.0970 
    115 H115       19.9823  -33.0327  -38.5689 H         1 UNK         0.0970 
    116 H116       17.5634  -32.5058  -41.3244 H         1 UNK         0.0612 
    117 H117       18.7385  -33.1998  -42.4142 H         1 UNK         0.0612 
@<TRIPOS>BOND
     1    1    2 1    
     2    1   62 1    
     3    1   63 1    
     4    1   64 1    
     5    2    3 2    
     6    2    4 am   BACKBONE|DICT|INTERRES
     7    4    5 1    
     8    4   65 1    
     9    5    6 1    
    10    5   25 1    
    11    5   66 1    
    12    6    7 1    
    13    6   67 1    
    14    6   68 1    
    15    7    8 1    
    16    8    9 1    
    17    8   69 1    
    18    8   70 1    
    19    9   10 ar   
    20    9   14 ar   
    21   10   11 ar   
    22   10   71 1    
    23   11   12 ar   
    24   11   61 1    
    25   12   13 ar   
    26   12   72 1    
    27   13   14 ar   
    28   13   15 1    
    29   14   73 1    
    30   15   16 1    
    31   15   74 1    
    32   15   75 1    
    33   16   17 1    
    34   17   18 1    
    35   17   76 1    
    36   17   77 1    
    37   18   19 1    
    38   18   27 1    
    39   18   78 1    
    40   19   20 am   BACKBONE|DICT|INTERRES
    41   19   79 1    
    42   20   21 2    
    43   20   22 1    
    44   22   23 1    
    45   22   24 1    
    46   22   80 1    
    47   23   81 1    
    48   23   82 1    
    49   23   83 1    
    50   24   25 am   BACKBONE|DICT|INTERRES
    51   24   84 1    
    52   25   26 2    
    53   27   28 2    
    54   27   29 am   BACKBONE|DICT|INTERRES
    55   29   30 1    
    56   29   85 1    
    57   30   31 1    
    58   30   32 1    
    59   30   86 1    
    60   31   87 1    
    61   31   88 1    
    62   31   89 1    
    63   32   33 2    
    64   32   34 am   BACKBONE|DICT|INTERRES
    65   34   35 1    
    66   34   90 1    
    67   35   36 1    
    68   35   37 1    
    69   35   91 1    
    70   36   92 1    
    71   36   93 1    
    72   36   94 1    
    73   37   38 2    
    74   37   39 am   BACKBONE|DICT|INTERRES
    75   39   40 1    
    76   39   95 1    
    77   40   41 1    
    78   40   42 1    
    79   40   96 1    
    80   41   97 1    
    81   41   98 1    
    82   41   99 1    
    83   42   43 2    
    84   42   44 am   BACKBONE|DICT|INTERRES
    85   44   45 1    
    86   44  100 1    
    87   45   46 1    
    88   45   47 1    
    89   45  101 1    
    90   46  102 1    
    91   46  103 1    
    92   46  104 1    
    93   47   48 2    
    94   47   49 am   BACKBONE|DICT|INTERRES
    95   49   50 1    
    96   49  105 1    
    97   50   51 1    
    98   50   52 1    
    99   50  106 1    
   100   51  107 1    
   101   51  108 1    
   102   51  109 1    
   103   52   53 2    
   104   52   54 am   BACKBONE|DICT|INTERRES
   105   54   55 1    
   106   54  110 1    
   107   55   56 1    
   108   55   59 1    
   109   55  111 1    
   110   56   57 am   BACKBONE|DICT|INTERRES
   111   56   58 2    
   112   57  112 1    
   113   57  113 1    
   114   59   60 1    
   115   59  114 1    
   116   59  115 1    
   117   60   61 1    
   118   61  116 1    
   119   61  117 1    
@<TRIPOS>SUBSTRUCTURE
     1 UNK         1 GROUP             0       ****    0 ROOT    
