@<TRIPOS>MOLECULE
3R8
117   119    1
SMALL
USER_CHARGES


@<TRIPOS>ATOM
      1 CA         14.8495  -21.1930  -44.7300 C.3       0 UNK        -0.2013 
      2 C          14.9676  -22.6872  -44.9914 C.2       0 UNK         0.4866 
      3 O          14.5569  -23.1573  -46.0531 O.2       0 UNK        -0.5176 
      4 N          15.5178  -23.4386  -44.0292 N.am      1 UNK        -0.4884 
      5 CA         15.7777  -24.8774  -44.1425 C.3       1 UNK         0.0853 
      6 C6         15.9764  -25.5145  -42.7460 C.3       10 UNK        -0.0849 
      7 S7         15.6285  -27.3063  -42.7328 S.3       10 UNK        -0.2776 
      8 C8         16.3694  -27.8095  -41.1459 C.3       10 UNK         0.0316 
      9 C9         17.8566  -28.1055  -41.2814 C.ar      10 UNK        -0.0863 
     10 C10        18.2947  -29.4054  -41.5535 C.ar      10 UNK        -0.1009 
     11 C11        19.6596  -29.6935  -41.6635 C.ar      10 UNK        -0.0712 
     12 C12        20.5885  -28.6603  -41.4952 C.ar      10 UNK        -0.0894 
     13 C13        20.1617  -27.3490  -41.2723 C.ar      10 UNK        -0.0745 
     14 C14        18.7978  -27.0847  -41.1318 C.ar      10 UNK        -0.0972 
     15 C15        21.1603  -26.2039  -41.2172 C.3       10 UNK         0.0209 
     16 S16        21.0056  -25.1367  -42.6895 S.3       10 UNK        -0.2568 
     17 C17        22.0182  -26.0196  -43.9244 C.3       10 UNK        -0.0983 
     18 CA         21.2662  -27.1327  -44.7015 C.3       3 UNK         0.0876 
     19 N          20.0653  -26.6368  -45.3811 N.am      3 UNK        -0.4424 
     20 C          19.1186  -27.4207  -45.9114 C.2       2 UNK         0.4918 
     21 O          19.0926  -28.6470  -45.7905 O.2       2 UNK        -0.4875 
     22 CA         18.0050  -26.7088  -46.6974 C.3       2 UNK         0.0481 
     23 CB         17.3893  -27.6145  -47.7796 C.3       2 UNK        -0.1831 
     24 N          16.9474  -26.2624  -45.7942 N.am      2 UNK        -0.4498 
     25 C          16.9868  -25.1400  -45.0667 C.2       1 UNK         0.5027 
     26 O          17.9261  -24.3391  -45.0958 O.2       1 UNK        -0.4969 
     27 C          22.2258  -27.8293  -45.6913 C.2       3 UNK         0.5005 
     28 O          22.2007  -27.5424  -46.8923 O.2       3 UNK        -0.5279 
     29 N          23.0862  -28.6992  -45.1557 N.am      4 UNK        -0.4463 
     30 CA         24.1538  -29.3902  -45.8781 C.3       4 UNK         0.0283 
     31 CB         23.6537  -30.7286  -46.4524 C.3       4 UNK        -0.1875 
     32 C          25.3177  -29.5639  -44.9027 C.2       4 UNK         0.4949 
     33 O          26.3896  -28.9979  -45.1164 O.2       4 UNK        -0.5039 
     34 N          25.0353  -30.2550  -43.7924 N.am      5 UNK        -0.4663 
     35 CA         25.7562  -30.0985  -42.5307 C.3       5 UNK         0.0242 
     36 CB         25.7087  -31.4331  -41.7704 C.3       5 UNK        -0.1982 
     37 C          25.0823  -28.9784  -41.7162 C.2       5 UNK         0.5017 
     38 O          24.0296  -28.4757  -42.1202 O.2       5 UNK        -0.5012 
     39 N          25.6784  -28.6230  -40.5709 N.am      6 UNK        -0.4439 
     40 CA         25.1245  -27.6435  -39.6269 C.3       6 UNK         0.0297 
     41 CB         26.2011  -27.2646  -38.5970 C.3       6 UNK        -0.2006 
     42 C          23.8460  -28.1281  -38.9137 C.2       6 UNK         0.4892 
     43 O          23.0340  -27.2978  -38.5056 O.2       6 UNK        -0.5089 
     44 N          23.6931  -29.4503  -38.7820 N.am      7 UNK        -0.4243 
     45 CA         22.5482  -30.1479  -38.2080 C.3       7 UNK         0.0196 
     46 CB         22.5563  -30.0200  -36.6721 C.3       7 UNK        -0.2007 
     47 C          22.6319  -31.6180  -38.6359 C.2       7 UNK         0.5020 
     48 O          23.6966  -32.0646  -39.0721 O.2       7 UNK        -0.5147 
     49 N          21.5150  -32.3444  -38.4966 N.am      8 UNK        -0.4734 
     50 CA         21.3007  -33.7713  -38.7994 C.3       8 UNK         0.0238 
     51 CB         22.2271  -34.6767  -37.9631 C.3       8 UNK        -0.1912 
     52 C          21.3698  -34.1363  -40.2947 C.2       8 UNK         0.5038 
     53 O          20.4633  -34.8115  -40.7828 O.2       8 UNK        -0.5046 
     54 N          22.4133  -33.6684  -40.9913 N.am      9 UNK        -0.4200 
     55 CA         22.6553  -33.8327  -42.4368 C.3       9 UNK         0.0839 
     56 C          22.8810  -35.3062  -42.8966 C.2       9 UNK         0.5513 
     57 N          23.2595  -36.2200  -42.0108 N.am      9 UNK        -0.7519 
     58 O          22.7454  -35.6243  -44.0754 O.2       9 UNK        -0.4960 
     59 C59        21.6139  -33.0742  -43.3106 C.3       10 UNK        -0.0876 
     60 S60        21.5836  -31.2743  -42.9943 S.3       10 UNK        -0.2414 
     61 C61        20.0976  -31.1286  -41.9420 C.3       10 UNK         0.0169 
     62 H62        15.2432  -20.9171  -43.7519 H         1 UNK         0.0903 
     63 H63        15.4009  -20.6355  -45.4866 H         1 UNK         0.0903 
     64 H64        13.8049  -20.8857  -44.7737 H         1 UNK         0.0903 
     65 H65        15.8728  -22.9921  -43.1954 H         1 UNK         0.3096 
     66 H66        14.8932  -25.3248  -44.6032 H         1 UNK         0.1121 
     67 H67        16.9800  -25.3134  -42.3723 H         1 UNK         0.0849 
     68 H68        15.2929  -25.0600  -42.0265 H         1 UNK         0.0849 
     69 H69        16.2000  -27.0382  -40.3929 H         1 UNK         0.0865 
     70 H70        15.8494  -28.6983  -40.7851 H         1 UNK         0.0865 
     71 H71        17.5677  -30.1969  -41.6759 H         1 UNK         0.1346 
     72 H72        21.6447  -28.8688  -41.5711 H         1 UNK         0.1412 
     73 H73        18.4754  -26.0737  -40.9281 H         1 UNK         0.1426 
     74 H74        22.1831  -26.5728  -41.1288 H         1 UNK         0.0716 
     75 H75        20.9717  -25.6079  -40.3234 H         1 UNK         0.0716 
     76 H76        22.8948  -26.4249  -43.4165 H         1 UNK         0.0695 
     77 H77        22.4013  -25.2723  -44.6220 H         1 UNK         0.0695 
     78 H78        20.9367  -27.8926  -43.9939 H         1 UNK         0.0983 
     79 H79        19.9822  -25.6345  -45.4791 H         1 UNK         0.3095 
     80 H80        18.4408  -25.8439  -47.2028 H         1 UNK         0.0454 
     81 H81        16.8957  -28.4872  -47.3499 H         1 UNK         0.0851 
     82 H82        18.1570  -27.9790  -48.4635 H         1 UNK         0.0851 
     83 H83        16.6544  -27.0747  -48.3770 H         1 UNK         0.0851 
     84 H84        16.1729  -26.8979  -45.6630 H         1 UNK         0.2976 
     85 H85        23.1125  -28.7948  -44.1453 H         1 UNK         0.3116 
     86 H86        24.5049  -28.7646  -46.7019 H         1 UNK         0.0646 
     87 H87        23.2462  -31.3825  -45.6814 H         1 UNK         0.0847 
     88 H88        24.4636  -31.2674  -46.9457 H         1 UNK         0.0847 
     89 H89        22.8722  -30.5682  -47.1952 H         1 UNK         0.0847 
     90 H90        24.1144  -30.6635  -43.7125 H         1 UNK         0.3040 
     91 H91        26.7971  -29.8241  -42.7171 H         1 UNK         0.1015 
     92 H92        24.6909  -31.6813  -41.4730 H         1 UNK         0.0786 
     93 H93        26.3123  -31.3979  -40.8629 H         1 UNK         0.0786 
     94 H94        26.0914  -32.2525  -42.3792 H         1 UNK         0.0786 
     95 H95        26.5442  -29.0722  -40.3076 H         1 UNK         0.3172 
     96 H96        24.8623  -26.7449  -40.1898 H         1 UNK         0.0595 
     97 H97        26.5193  -28.1257  -38.0079 H         1 UNK         0.0839 
     98 H98        25.8251  -26.5150  -37.8991 H         1 UNK         0.0839 
     99 H99        27.0822  -26.8410  -39.0793 H         1 UNK         0.0839 
    100 H100       24.3925  -30.0744  -39.1656 H         1 UNK         0.2998 
    101 H101       21.6316  -29.7160  -38.6162 H         1 UNK         0.0822 
    102 H102       22.4782  -28.9795  -36.3566 H         1 UNK         0.0787 
    103 H103       21.7153  -30.5526  -36.2265 H         1 UNK         0.0787 
    104 H104       23.4696  -30.4319  -36.2410 H         1 UNK         0.0787 
    105 H105       20.6964  -31.8657  -38.1451 H         1 UNK         0.3055 
    106 H106       20.2775  -33.9841  -38.4839 H         1 UNK         0.1106 
    107 H107       23.2779  -34.5428  -38.2208 H         1 UNK         0.0828 
    108 H108       22.1168  -34.4782  -36.8971 H         1 UNK         0.0828 
    109 H109       21.9879  -35.7291  -38.1219 H         1 UNK         0.0828 
    110 H110       23.0966  -33.1194  -40.4763 H         1 UNK         0.2931 
    111 H111       23.6187  -33.3599  -42.6220 H         1 UNK         0.0412 
    112 H112       23.4147  -37.1687  -42.3143 H         1 UNK         0.3472 
    113 H113       23.3886  -35.9705  -41.0435 H         1 UNK         0.3472 
    114 H114       20.6177  -33.4984  -43.1781 H         1 UNK         0.0970 
    115 H115       21.8460  -33.1986  -44.3696 H         1 UNK         0.0970 
    116 H116       20.2831  -31.6151  -40.9868 H         1 UNK         0.0612 
    117 H117       19.2835  -31.6746  -42.4211 H         1 UNK         0.0612 
@<TRIPOS>BOND
     1    1    2 1    
     2    1   62 1    
     3    1   63 1    
     4    1   64 1    
     5    2    3 2    
     6    2    4 am   BACKBONE|DICT|INTERRES
     7    4    5 1    
     8    4   65 1    
     9    5    6 1    
    10    5   25 1    
    11    5   66 1    
    12    6    7 1    
    13    6   67 1    
    14    6   68 1    
    15    7    8 1    
    16    8    9 1    
    17    8   69 1    
    18    8   70 1    
    19    9   10 ar   
    20    9   14 ar   
    21   10   11 ar   
    22   10   71 1    
    23   11   12 ar   
    24   11   61 1    
    25   12   13 ar   
    26   12   72 1    
    27   13   14 ar   
    28   13   15 1    
    29   14   73 1    
    30   15   16 1    
    31   15   74 1    
    32   15   75 1    
    33   16   17 1    
    34   17   18 1    
    35   17   76 1    
    36   17   77 1    
    37   18   19 1    
    38   18   27 1    
    39   18   78 1    
    40   19   20 am   BACKBONE|DICT|INTERRES
    41   19   79 1    
    42   20   21 2    
    43   20   22 1    
    44   22   23 1    
    45   22   24 1    
    46   22   80 1    
    47   23   81 1    
    48   23   82 1    
    49   23   83 1    
    50   24   25 am   BACKBONE|DICT|INTERRES
    51   24   84 1    
    52   25   26 2    
    53   27   28 2    
    54   27   29 am   BACKBONE|DICT|INTERRES
    55   29   30 1    
    56   29   85 1    
    57   30   31 1    
    58   30   32 1    
    59   30   86 1    
    60   31   87 1    
    61   31   88 1    
    62   31   89 1    
    63   32   33 2    
    64   32   34 am   BACKBONE|DICT|INTERRES
    65   34   35 1    
    66   34   90 1    
    67   35   36 1    
    68   35   37 1    
    69   35   91 1    
    70   36   92 1    
    71   36   93 1    
    72   36   94 1    
    73   37   38 2    
    74   37   39 am   BACKBONE|DICT|INTERRES
    75   39   40 1    
    76   39   95 1    
    77   40   41 1    
    78   40   42 1    
    79   40   96 1    
    80   41   97 1    
    81   41   98 1    
    82   41   99 1    
    83   42   43 2    
    84   42   44 am   BACKBONE|DICT|INTERRES
    85   44   45 1    
    86   44  100 1    
    87   45   46 1    
    88   45   47 1    
    89   45  101 1    
    90   46  102 1    
    91   46  103 1    
    92   46  104 1    
    93   47   48 2    
    94   47   49 am   BACKBONE|DICT|INTERRES
    95   49   50 1    
    96   49  105 1    
    97   50   51 1    
    98   50   52 1    
    99   50  106 1    
   100   51  107 1    
   101   51  108 1    
   102   51  109 1    
   103   52   53 2    
   104   52   54 am   BACKBONE|DICT|INTERRES
   105   54   55 1    
   106   54  110 1    
   107   55   56 1    
   108   55   59 1    
   109   55  111 1    
   110   56   57 am   BACKBONE|DICT|INTERRES
   111   56   58 2    
   112   57  112 1    
   113   57  113 1    
   114   59   60 1    
   115   59  114 1    
   116   59  115 1    
   117   60   61 1    
   118   61  116 1    
   119   61  117 1    
@<TRIPOS>SUBSTRUCTURE
     1 UNK         1 GROUP             0       ****    0 ROOT    
