@<TRIPOS>MOLECULE
3R8
117   119    1
SMALL
USER_CHARGES


@<TRIPOS>ATOM
      1 CA         15.3204  -24.7612  -43.4586 C.3       0 UNK        -0.2013 
      2 C          16.2727  -24.2999  -44.5518 C.2       0 UNK         0.4866 
      3 O          16.5862  -23.1124  -44.6316 O.2       0 UNK        -0.5176 
      4 N          16.7373  -25.2328  -45.3938 N.am      1 UNK        -0.4884 
      5 CA         17.6923  -24.9898  -46.4855 C.3       1 UNK         0.0853 
      6 C6         17.7321  -26.1890  -47.4727 C.3       10 UNK        -0.0849 
      7 S7         18.3915  -27.7368  -46.7482 S.3       10 UNK        -0.2776 
      8 C8         16.8856  -28.6666  -46.3255 C.3       10 UNK         0.0316 
      9 C9         17.1340  -29.5299  -45.0980 C.ar      10 UNK        -0.0863 
     10 C10        17.8735  -30.7100  -45.2133 C.ar      10 UNK        -0.1009 
     11 C11        18.1494  -31.4905  -44.0868 C.ar      10 UNK        -0.0712 
     12 C12        17.6504  -31.0984  -42.8404 C.ar      10 UNK        -0.0894 
     13 C13        16.8987  -29.9259  -42.7128 C.ar      10 UNK        -0.0745 
     14 C14        16.6467  -29.1438  -43.8450 C.ar      10 UNK        -0.0972 
     15 C15        16.3562  -29.5058  -41.3519 C.3       10 UNK         0.0209 
     16 S16        17.6757  -29.0048  -40.1975 S.3       10 UNK        -0.2568 
     17 C17        18.4368  -27.6027  -41.0813 C.3       10 UNK        -0.0983 
     18 CA         19.7511  -28.0244  -41.7950 C.3       3 UNK         0.0876 
     19 N          20.0977  -27.1160  -42.8907 N.am      3 UNK        -0.4424 
     20 C          20.5717  -25.8642  -42.7823 C.2       2 UNK         0.4918 
     21 O          20.8352  -25.3085  -41.7160 O.2       2 UNK        -0.4875 
     22 CA         20.7246  -25.0915  -44.0954 C.3       2 UNK         0.0481 
     23 CB         21.8987  -25.6490  -44.9263 C.3       2 UNK        -0.1831 
     24 N          19.4561  -25.1906  -44.8101 N.am      2 UNK        -0.4498 
     25 C          19.1052  -24.6252  -45.9706 C.2       1 UNK         0.5027 
     26 O          19.8234  -23.8662  -46.6228 O.2       1 UNK        -0.4969 
     27 C          20.9592  -28.2538  -40.8629 C.2       3 UNK         0.5005 
     28 O          21.9035  -28.9306  -41.2710 O.2       3 UNK        -0.5279 
     29 N          20.9527  -27.6556  -39.6633 N.am      4 UNK        -0.4463 
     30 CA         22.0557  -27.6814  -38.6972 C.3       4 UNK         0.0283 
     31 CB         21.6342  -26.9381  -37.4206 C.3       4 UNK        -0.1875 
     32 C          23.3774  -27.1077  -39.2420 C.2       4 UNK         0.4949 
     33 O          24.4413  -27.5833  -38.8471 O.2       4 UNK        -0.5039 
     34 N          23.3018  -26.1522  -40.1820 N.am      5 UNK        -0.4663 
     35 CA         24.4639  -25.6163  -40.9029 C.3       5 UNK         0.0242 
     36 CB         24.0800  -24.2988  -41.5953 C.3       5 UNK        -0.1982 
     37 C          25.0727  -26.6131  -41.9103 C.2       5 UNK         0.5017 
     38 O          26.2237  -26.4321  -42.3069 O.2       5 UNK        -0.5012 
     39 N          24.3126  -27.6542  -42.2780 N.am      6 UNK        -0.4439 
     40 CA         24.7538  -28.8066  -43.0659 C.3       6 UNK         0.0297 
     41 CB         23.7466  -29.0431  -44.2076 C.3       6 UNK        -0.2006 
     42 C          24.9063  -30.0582  -42.1762 C.2       6 UNK         0.4892 
     43 O          24.8863  -31.1733  -42.6987 O.2       6 UNK        -0.5089 
     44 N          25.0227  -29.8632  -40.8507 N.am      7 UNK        -0.4243 
     45 CA         25.1537  -30.8821  -39.7998 C.3       7 UNK         0.0196 
     46 CB         26.5180  -31.5960  -39.9097 C.3       7 UNK        -0.2007 
     47 C          23.9703  -31.8704  -39.7339 C.2       7 UNK         0.5020 
     48 O          24.1593  -33.0157  -39.3228 O.2       7 UNK        -0.5147 
     49 N          22.7778  -31.4144  -40.1483 N.am      8 UNK        -0.4734 
     50 CA         21.5389  -32.1852  -40.3179 C.3       8 UNK         0.0238 
     51 CB         21.0222  -32.7325  -38.9704 C.3       8 UNK        -0.1912 
     52 C          21.6350  -33.2628  -41.4184 C.2       8 UNK         0.5038 
     53 O          20.8935  -34.2463  -41.3714 O.2       8 UNK        -0.5046 
     54 N          22.5117  -33.0303  -42.4057 N.am      9 UNK        -0.4200 
     55 CA         22.7440  -33.8569  -43.6002 C.3       9 UNK         0.0839 
     56 C          23.4426  -35.2156  -43.2927 C.2       9 UNK         0.5513 
     57 N          23.6215  -36.0701  -44.2922 N.am      9 UNK        -0.7519 
     58 O          23.8623  -35.5003  -42.1729 O.2       9 UNK        -0.4960 
     59 C59        21.4813  -34.0087  -44.5032 C.3       10 UNK        -0.0876 
     60 S60        20.6509  -32.4192  -44.8558 S.3       10 UNK        -0.2414 
     61 C61        18.9785  -32.7598  -44.2171 C.3       10 UNK         0.0169 
     62 H62        14.3909  -24.1945  -43.5078 H         1 UNK         0.0903 
     63 H63        15.0750  -25.8191  -43.5471 H         1 UNK         0.0903 
     64 H64        15.7674  -24.5970  -42.4784 H         1 UNK         0.0903 
     65 H65        16.4336  -26.1888  -45.2904 H         1 UNK         0.3096 
     66 H66        17.3342  -24.1190  -47.0400 H         1 UNK         0.1121 
     67 H67        18.3523  -25.9350  -48.3345 H         1 UNK         0.0849 
     68 H68        16.7369  -26.3721  -47.8812 H         1 UNK         0.0849 
     69 H69        16.0501  -27.9883  -46.1501 H         1 UNK         0.0865 
     70 H70        16.5978  -29.2923  -47.1718 H         1 UNK         0.0865 
     71 H71        18.2594  -31.0086  -46.1787 H         1 UNK         0.1346 
     72 H72        17.8516  -31.6991  -41.9638 H         1 UNK         0.1412 
     73 H73        16.0712  -28.2341  -43.7479 H         1 UNK         0.1426 
     74 H74        15.6415  -28.6874  -41.4523 H         1 UNK         0.0716 
     75 H75        15.8046  -30.3392  -40.9148 H         1 UNK         0.0716 
     76 H76        18.5850  -26.7683  -40.3945 H         1 UNK         0.0695 
     77 H77        17.7186  -27.2350  -41.8155 H         1 UNK         0.0695 
     78 H78        19.5752  -28.9859  -42.2798 H         1 UNK         0.0983 
     79 H79        19.9752  -27.5005  -43.8172 H         1 UNK         0.3095 
     80 H80        20.9132  -24.0424  -43.8598 H         1 UNK         0.0454 
     81 H81        22.1209  -25.0099  -45.7805 H         1 UNK         0.0851 
     82 H82        21.6872  -26.6482  -45.3083 H         1 UNK         0.0851 
     83 H83        22.8111  -25.7128  -44.3327 H         1 UNK         0.0851 
     84 H84        18.7502  -25.7499  -44.3522 H         1 UNK         0.2976 
     85 H85        20.1460  -27.1012  -39.4147 H         1 UNK         0.3116 
     86 H86        22.2374  -28.7270  -38.4393 H         1 UNK         0.0646 
     87 H87        20.7528  -27.3927  -36.9680 H         1 UNK         0.0847 
     88 H88        22.4290  -26.9647  -36.6736 H         1 UNK         0.0847 
     89 H89        21.4090  -25.8894  -37.6189 H         1 UNK         0.0847 
     90 H90        22.3875  -25.8239  -40.4791 H         1 UNK         0.3040 
     91 H91        25.2417  -25.3934  -40.1686 H         1 UNK         0.1015 
     92 H92        23.3181  -24.4456  -42.3591 H         1 UNK         0.0786 
     93 H93        24.9455  -23.8488  -42.0836 H         1 UNK         0.0786 
     94 H94        23.6991  -23.5707  -40.8789 H         1 UNK         0.0786 
     95 H95        23.3905  -27.7542  -41.8643 H         1 UNK         0.3172 
     96 H96        25.7315  -28.6123  -43.5105 H         1 UNK         0.0595 
     97 H97        22.7519  -29.2816  -43.8289 H         1 UNK         0.0839 
     98 H98        24.0585  -29.8725  -44.8437 H         1 UNK         0.0839 
     99 H99        23.6628  -28.1657  -44.8477 H         1 UNK         0.0839 
    100 H100       24.9959  -28.9096  -40.5104 H         1 UNK         0.2998 
    101 H101       25.1410  -30.3408  -38.8526 H         1 UNK         0.0822 
    102 H102       26.6906  -32.2481  -39.0526 H         1 UNK         0.0787 
    103 H103       26.5784  -32.2147  -40.8058 H         1 UNK         0.0787 
    104 H104       27.3394  -30.8802  -39.9394 H         1 UNK         0.0787 
    105 H105       22.7241  -30.4577  -40.4926 H         1 UNK         0.3055 
    106 H106       20.7954  -31.4736  -40.6809 H         1 UNK         0.1106 
    107 H107       20.0231  -33.1560  -39.0792 H         1 UNK         0.0828 
    108 H108       21.6652  -33.5206  -38.5781 H         1 UNK         0.0828 
    109 H109       20.9579  -31.9442  -38.2206 H         1 UNK         0.0828 
    110 H110       23.1293  -32.2311  -42.3229 H         1 UNK         0.2931 
    111 H111       23.4802  -33.2902  -44.1715 H         1 UNK         0.0412 
    112 H112       24.0852  -36.9461  -44.1062 H         1 UNK         0.3472 
    113 H113       23.3198  -35.8554  -45.2295 H         1 UNK         0.3472 
    114 H114       20.7747  -34.7059  -44.0498 H         1 UNK         0.0970 
    115 H115       21.7513  -34.4461  -45.4651 H         1 UNK         0.0970 
    116 H116       19.0577  -33.2583  -43.2501 H         1 UNK         0.0612 
    117 H117       18.4726  -33.4561  -44.8872 H         1 UNK         0.0612 
@<TRIPOS>BOND
     1    1    2 1    
     2    1   62 1    
     3    1   63 1    
     4    1   64 1    
     5    2    3 2    
     6    2    4 am   BACKBONE|DICT|INTERRES
     7    4    5 1    
     8    4   65 1    
     9    5    6 1    
    10    5   25 1    
    11    5   66 1    
    12    6    7 1    
    13    6   67 1    
    14    6   68 1    
    15    7    8 1    
    16    8    9 1    
    17    8   69 1    
    18    8   70 1    
    19    9   10 ar   
    20    9   14 ar   
    21   10   11 ar   
    22   10   71 1    
    23   11   12 ar   
    24   11   61 1    
    25   12   13 ar   
    26   12   72 1    
    27   13   14 ar   
    28   13   15 1    
    29   14   73 1    
    30   15   16 1    
    31   15   74 1    
    32   15   75 1    
    33   16   17 1    
    34   17   18 1    
    35   17   76 1    
    36   17   77 1    
    37   18   19 1    
    38   18   27 1    
    39   18   78 1    
    40   19   20 am   BACKBONE|DICT|INTERRES
    41   19   79 1    
    42   20   21 2    
    43   20   22 1    
    44   22   23 1    
    45   22   24 1    
    46   22   80 1    
    47   23   81 1    
    48   23   82 1    
    49   23   83 1    
    50   24   25 am   BACKBONE|DICT|INTERRES
    51   24   84 1    
    52   25   26 2    
    53   27   28 2    
    54   27   29 am   BACKBONE|DICT|INTERRES
    55   29   30 1    
    56   29   85 1    
    57   30   31 1    
    58   30   32 1    
    59   30   86 1    
    60   31   87 1    
    61   31   88 1    
    62   31   89 1    
    63   32   33 2    
    64   32   34 am   BACKBONE|DICT|INTERRES
    65   34   35 1    
    66   34   90 1    
    67   35   36 1    
    68   35   37 1    
    69   35   91 1    
    70   36   92 1    
    71   36   93 1    
    72   36   94 1    
    73   37   38 2    
    74   37   39 am   BACKBONE|DICT|INTERRES
    75   39   40 1    
    76   39   95 1    
    77   40   41 1    
    78   40   42 1    
    79   40   96 1    
    80   41   97 1    
    81   41   98 1    
    82   41   99 1    
    83   42   43 2    
    84   42   44 am   BACKBONE|DICT|INTERRES
    85   44   45 1    
    86   44  100 1    
    87   45   46 1    
    88   45   47 1    
    89   45  101 1    
    90   46  102 1    
    91   46  103 1    
    92   46  104 1    
    93   47   48 2    
    94   47   49 am   BACKBONE|DICT|INTERRES
    95   49   50 1    
    96   49  105 1    
    97   50   51 1    
    98   50   52 1    
    99   50  106 1    
   100   51  107 1    
   101   51  108 1    
   102   51  109 1    
   103   52   53 2    
   104   52   54 am   BACKBONE|DICT|INTERRES
   105   54   55 1    
   106   54  110 1    
   107   55   56 1    
   108   55   59 1    
   109   55  111 1    
   110   56   57 am   BACKBONE|DICT|INTERRES
   111   56   58 2    
   112   57  112 1    
   113   57  113 1    
   114   59   60 1    
   115   59  114 1    
   116   59  115 1    
   117   60   61 1    
   118   61  116 1    
   119   61  117 1    
@<TRIPOS>SUBSTRUCTURE
     1 UNK         1 GROUP             0       ****    0 ROOT    
