@<TRIPOS>MOLECULE
3R8
117   119    1
SMALL
USER_CHARGES


@<TRIPOS>ATOM
      1 CA         19.5303  -22.3241  -40.5763 C.3       0 UNK        -0.2013 
      2 C          18.6479  -23.3314  -41.2980 C.2       0 UNK         0.4866 
      3 O          17.5564  -23.6421  -40.8214 O.2       0 UNK        -0.5176 
      4 N          19.1126  -23.8444  -42.4409 N.am      1 UNK        -0.4884 
      5 CA         18.4198  -24.8086  -43.2943 C.3       1 UNK         0.0853 
      6 C6         18.4036  -26.2381  -42.6794 C.3       10 UNK        -0.0849 
      7 S7         16.9674  -27.2224  -43.2240 S.3       10 UNK        -0.2776 
      8 C8         17.2240  -28.7791  -42.2987 C.3       10 UNK         0.0316 
      9 C9         17.9413  -29.8890  -43.0740 C.ar      10 UNK        -0.0863 
     10 C10        17.7080  -31.2211  -42.7112 C.ar      10 UNK        -0.1009 
     11 C11        18.2877  -32.2751  -43.4260 C.ar      10 UNK        -0.0712 
     12 C12        19.1268  -31.9891  -44.5059 C.ar      10 UNK        -0.0894 
     13 C13        19.3879  -30.6668  -44.8710 C.ar      10 UNK        -0.0745 
     14 C14        18.7984  -29.6245  -44.1505 C.ar      10 UNK        -0.0972 
     15 C15        20.2512  -30.3711  -46.0887 C.3       10 UNK         0.0209 
     16 S16        22.0341  -30.4062  -45.7212 S.3       10 UNK        -0.2568 
     17 C17        22.2903  -28.9221  -44.6935 C.3       10 UNK        -0.0983 
     18 CA         22.3942  -27.6196  -45.5327 C.3       3 UNK         0.0876 
     19 N          21.0633  -27.0803  -45.8077 N.am      3 UNK        -0.4424 
     20 C          20.6877  -26.4242  -46.9103 C.2       2 UNK         0.4918 
     21 O          21.4080  -26.2666  -47.8964 O.2       2 UNK        -0.4875 
     22 CA         19.2528  -25.8559  -46.9191 C.3       2 UNK         0.0481 
     23 CB         18.3253  -26.7625  -47.7445 C.3       2 UNK        -0.1831 
     24 N          18.6798  -25.6829  -45.5774 N.am      2 UNK        -0.4498 
     25 C          19.0626  -24.7490  -44.6956 C.2       1 UNK         0.5027 
     26 O          19.8954  -23.8745  -44.9519 O.2       1 UNK        -0.4969 
     27 C          23.2343  -26.5497  -44.8039 C.2       3 UNK         0.5005 
     28 O          22.6901  -25.5563  -44.3145 O.2       3 UNK        -0.5279 
     29 N          24.5524  -26.7884  -44.7179 N.am      4 UNK        -0.4463 
     30 CA         25.5317  -25.9229  -44.0430 C.3       4 UNK         0.0283 
     31 CB         26.9461  -26.4728  -44.2895 C.3       4 UNK        -0.1875 
     32 C          25.2867  -25.7372  -42.5316 C.2       4 UNK         0.4949 
     33 O          25.7195  -24.7312  -41.9689 O.2       4 UNK        -0.5039 
     34 N          24.5848  -26.6913  -41.9138 N.am      5 UNK        -0.4663 
     35 CA         24.0273  -26.6105  -40.5706 C.3       5 UNK         0.0242 
     36 CB         24.9499  -27.3394  -39.5791 C.3       5 UNK        -0.1982 
     37 C          22.6378  -27.2552  -40.6157 C.2       5 UNK         0.5017 
     38 O          22.3903  -28.1105  -41.4719 O.2       5 UNK        -0.5012 
     39 N          21.7569  -26.8508  -39.6936 N.am      6 UNK        -0.4439 
     40 CA         20.4227  -27.4298  -39.5446 C.3       6 UNK         0.0297 
     41 CB         19.5656  -26.5407  -38.6296 C.3       6 UNK        -0.2006 
     42 C          20.5153  -28.8651  -39.0055 C.2       6 UNK         0.4892 
     43 O          21.1326  -29.0766  -37.9596 O.2       6 UNK        -0.5089 
     44 N          19.9096  -29.8066  -39.7426 N.am      7 UNK        -0.4243 
     45 CA         19.9136  -31.2531  -39.4989 C.3       7 UNK         0.0196 
     46 CB         19.1530  -31.6036  -38.2022 C.3       7 UNK        -0.2007 
     47 C          21.3273  -31.8649  -39.5639 C.2       7 UNK         0.5020 
     48 O          21.6685  -32.7237  -38.7500 O.2       7 UNK        -0.5147 
     49 N          22.1218  -31.4263  -40.5531 N.am      8 UNK        -0.4734 
     50 CA         23.4434  -31.9854  -40.8721 C.3       8 UNK         0.0238 
     51 CB         24.1738  -31.0354  -41.8342 C.3       8 UNK        -0.1912 
     52 C          23.3816  -33.4025  -41.4774 C.2       8 UNK         0.5038 
     53 O          24.4013  -34.0933  -41.5009 O.2       8 UNK        -0.5046 
     54 N          22.1986  -33.7936  -41.9656 N.am      9 UNK        -0.4200 
     55 CA         21.8490  -35.1256  -42.4699 C.3       9 UNK         0.0839 
     56 C          22.0554  -36.2724  -41.4386 C.2       9 UNK         0.5513 
     57 N          22.3275  -37.4814  -41.9116 N.am      9 UNK        -0.7519 
     58 O          21.9383  -36.0916  -40.2285 O.2       9 UNK        -0.4960 
     59 C59        20.4099  -35.1292  -43.0526 C.3       10 UNK        -0.0876 
     60 S60        19.1389  -34.4583  -41.9156 S.3       10 UNK        -0.2414 
     61 C61        17.9470  -33.7177  -43.0739 C.3       10 UNK         0.0169 
     62 H62        20.4687  -22.1526  -41.1035 H         1 UNK         0.0903 
     63 H63        19.0129  -21.3695  -40.4847 H         1 UNK         0.0903 
     64 H64        19.7654  -22.6822  -39.5743 H         1 UNK         0.0903 
     65 H65        19.9839  -23.5144  -42.8413 H         1 UNK         0.3096 
     66 H66        17.3929  -24.4533  -43.4090 H         1 UNK         0.1121 
     67 H67        19.3356  -26.7729  -42.8715 H         1 UNK         0.0849 
     68 H68        18.3222  -26.1682  -41.5943 H         1 UNK         0.0849 
     69 H69        17.7558  -28.5758  -41.3698 H         1 UNK         0.0865 
     70 H70        16.2367  -29.1385  -42.0039 H         1 UNK         0.0865 
     71 H71        17.0441  -31.4432  -41.8864 H         1 UNK         0.1346 
     72 H72        19.5578  -32.7925  -45.0856 H         1 UNK         0.1412 
     73 H73        18.9895  -28.6089  -44.4567 H         1 UNK         0.1426 
     74 H74        19.9793  -29.4153  -46.5339 H         1 UNK         0.0716 
     75 H75        20.0488  -31.1167  -46.8590 H         1 UNK         0.0716 
     76 H76        23.2135  -29.1069  -44.1431 H         1 UNK         0.0695 
     77 H77        21.5129  -28.8524  -43.9317 H         1 UNK         0.0695 
     78 H78        22.9013  -27.8360  -46.4760 H         1 UNK         0.0983 
     79 H79        20.4321  -27.0672  -45.0244 H         1 UNK         0.3095 
     80 H80        19.2912  -24.8780  -47.4035 H         1 UNK         0.0454 
     81 H81        18.2173  -27.7504  -47.2954 H         1 UNK         0.0851 
     82 H82        18.7139  -26.9043  -48.7540 H         1 UNK         0.0851 
     83 H83        17.3304  -26.3281  -47.8420 H         1 UNK         0.0851 
     84 H84        17.9650  -26.3414  -45.2940 H         1 UNK         0.2976 
     85 H85        24.9200  -27.6274  -45.1450 H         1 UNK         0.3116 
     86 H86        25.4650  -24.9345  -44.5026 H         1 UNK         0.0646 
     87 H87        27.1769  -26.5186  -45.3540 H         1 UNK         0.0847 
     88 H88        27.0689  -27.4735  -43.8733 H         1 UNK         0.0847 
     89 H89        27.6992  -25.8340  -43.8257 H         1 UNK         0.0847 
     90 H90        24.2092  -27.4523  -42.4649 H         1 UNK         0.3040 
     91 H91        23.9167  -25.5645  -40.2747 H         1 UNK         0.1015 
     92 H92        24.5493  -27.2951  -38.5656 H         1 UNK         0.0786 
     93 H93        25.9410  -26.8859  -39.5563 H         1 UNK         0.0786 
     94 H94        25.0704  -28.3921  -39.8361 H         1 UNK         0.0786 
     95 H95        22.0455  -26.1833  -38.9929 H         1 UNK         0.3172 
     96 H96        19.9558  -27.4529  -40.5297 H         1 UNK         0.0595 
     97 H97        19.9910  -26.4604  -37.6283 H         1 UNK         0.0839 
     98 H98        18.5592  -26.9480  -38.5237 H         1 UNK         0.0839 
     99 H99        19.4640  -25.5337  -39.0347 H         1 UNK         0.0839 
    100 H100       19.4671  -29.5192  -40.6030 H         1 UNK         0.2998 
    101 H101       19.3608  -31.7016  -40.3254 H         1 UNK         0.0822 
    102 H102       18.1514  -31.1738  -38.2011 H         1 UNK         0.0787 
    103 H103       19.0410  -32.6835  -38.0973 H         1 UNK         0.0787 
    104 H104       19.6744  -31.2443  -37.3145 H         1 UNK         0.0787 
    105 H105       21.7945  -30.6730  -41.1434 H         1 UNK         0.3055 
    106 H106       24.0184  -32.0522  -39.9458 H         1 UNK         0.1106 
    107 H107       23.6490  -30.9536  -42.7859 H         1 UNK         0.0828 
    108 H108       25.1813  -31.3944  -42.0487 H         1 UNK         0.0828 
    109 H109       24.2718  -30.0360  -41.4132 H         1 UNK         0.0828 
    110 H110       21.4230  -33.1558  -41.8727 H         1 UNK         0.2931 
    111 H111       22.5362  -35.3201  -43.2959 H         1 UNK         0.0412 
    112 H112       22.4522  -38.2440  -41.2637 H         1 UNK         0.3472 
    113 H113       22.4201  -37.6469  -42.9022 H         1 UNK         0.3472 
    114 H114       20.4089  -34.5452  -43.9715 H         1 UNK         0.0970 
    115 H115       20.1128  -36.1353  -43.3548 H         1 UNK         0.0970 
    116 H116       16.9568  -33.7584  -42.6174 H         1 UNK         0.0612 
    117 H117       17.8827  -34.3253  -43.9779 H         1 UNK         0.0612 
@<TRIPOS>BOND
     1    1    2 1    
     2    1   62 1    
     3    1   63 1    
     4    1   64 1    
     5    2    3 2    
     6    2    4 am   BACKBONE|DICT|INTERRES
     7    4    5 1    
     8    4   65 1    
     9    5    6 1    
    10    5   25 1    
    11    5   66 1    
    12    6    7 1    
    13    6   67 1    
    14    6   68 1    
    15    7    8 1    
    16    8    9 1    
    17    8   69 1    
    18    8   70 1    
    19    9   10 ar   
    20    9   14 ar   
    21   10   11 ar   
    22   10   71 1    
    23   11   12 ar   
    24   11   61 1    
    25   12   13 ar   
    26   12   72 1    
    27   13   14 ar   
    28   13   15 1    
    29   14   73 1    
    30   15   16 1    
    31   15   74 1    
    32   15   75 1    
    33   16   17 1    
    34   17   18 1    
    35   17   76 1    
    36   17   77 1    
    37   18   19 1    
    38   18   27 1    
    39   18   78 1    
    40   19   20 am   BACKBONE|DICT|INTERRES
    41   19   79 1    
    42   20   21 2    
    43   20   22 1    
    44   22   23 1    
    45   22   24 1    
    46   22   80 1    
    47   23   81 1    
    48   23   82 1    
    49   23   83 1    
    50   24   25 am   BACKBONE|DICT|INTERRES
    51   24   84 1    
    52   25   26 2    
    53   27   28 2    
    54   27   29 am   BACKBONE|DICT|INTERRES
    55   29   30 1    
    56   29   85 1    
    57   30   31 1    
    58   30   32 1    
    59   30   86 1    
    60   31   87 1    
    61   31   88 1    
    62   31   89 1    
    63   32   33 2    
    64   32   34 am   BACKBONE|DICT|INTERRES
    65   34   35 1    
    66   34   90 1    
    67   35   36 1    
    68   35   37 1    
    69   35   91 1    
    70   36   92 1    
    71   36   93 1    
    72   36   94 1    
    73   37   38 2    
    74   37   39 am   BACKBONE|DICT|INTERRES
    75   39   40 1    
    76   39   95 1    
    77   40   41 1    
    78   40   42 1    
    79   40   96 1    
    80   41   97 1    
    81   41   98 1    
    82   41   99 1    
    83   42   43 2    
    84   42   44 am   BACKBONE|DICT|INTERRES
    85   44   45 1    
    86   44  100 1    
    87   45   46 1    
    88   45   47 1    
    89   45  101 1    
    90   46  102 1    
    91   46  103 1    
    92   46  104 1    
    93   47   48 2    
    94   47   49 am   BACKBONE|DICT|INTERRES
    95   49   50 1    
    96   49  105 1    
    97   50   51 1    
    98   50   52 1    
    99   50  106 1    
   100   51  107 1    
   101   51  108 1    
   102   51  109 1    
   103   52   53 2    
   104   52   54 am   BACKBONE|DICT|INTERRES
   105   54   55 1    
   106   54  110 1    
   107   55   56 1    
   108   55   59 1    
   109   55  111 1    
   110   56   57 am   BACKBONE|DICT|INTERRES
   111   56   58 2    
   112   57  112 1    
   113   57  113 1    
   114   59   60 1    
   115   59  114 1    
   116   59  115 1    
   117   60   61 1    
   118   61  116 1    
   119   61  117 1    
@<TRIPOS>SUBSTRUCTURE
     1 UNK         1 GROUP             0       ****    0 ROOT    
