@<TRIPOS>MOLECULE
3R8
117   119    1
SMALL
USER_CHARGES


@<TRIPOS>ATOM
      1 CA         19.4954  -23.9746  -50.2669 C.3       0 UNK        -0.2013 
      2 C          20.1453  -24.6296  -49.0572 C.2       0 UNK         0.4866 
      3 O          21.2781  -25.1034  -49.1510 O.2       0 UNK        -0.5176 
      4 N          19.4417  -24.6554  -47.9224 N.am      1 UNK        -0.4884 
      5 CA         19.8928  -25.2344  -46.6582 C.3       1 UNK         0.0853 
      6 C6         19.8270  -26.7909  -46.6260 C.3       10 UNK        -0.0849 
      7 S7         18.2356  -27.5247  -47.1621 S.3       10 UNK        -0.2776 
      8 C8         17.3019  -27.7063  -45.5966 C.3       10 UNK         0.0316 
      9 C9         17.7109  -28.8543  -44.6684 C.ar      10 UNK        -0.0863 
     10 C10        18.8441  -29.6518  -44.8788 C.ar      10 UNK        -0.1009 
     11 C11        19.1762  -30.6790  -43.9892 C.ar      10 UNK        -0.0712 
     12 C12        18.3564  -30.9150  -42.8806 C.ar      10 UNK        -0.0894 
     13 C13        17.2111  -30.1454  -42.6654 C.ar      10 UNK        -0.0745 
     14 C14        16.9015  -29.1144  -43.5570 C.ar      10 UNK        -0.0972 
     15 C15        16.2958  -30.4471  -41.4848 C.3       10 UNK         0.0209 
     16 S16        16.9792  -29.8575  -39.9020 S.3       10 UNK        -0.2568 
     17 C17        16.9367  -28.0489  -40.1311 C.3       10 UNK        -0.0983 
     18 CA         18.3180  -27.5022  -40.5680 C.3       3 UNK         0.0876 
     19 N          18.1885  -26.3210  -41.4251 N.am      3 UNK        -0.4424 
     20 C          19.1947  -25.8131  -42.1444 C.2       2 UNK         0.4918 
     21 O          20.3412  -26.2710  -42.1452 O.2       2 UNK        -0.4875 
     22 CA         18.8739  -24.6059  -43.0293 C.3       2 UNK         0.0481 
     23 CB         19.3361  -23.2926  -42.3786 C.3       2 UNK        -0.1831 
     24 N          19.5840  -24.8223  -44.2821 N.am      2 UNK        -0.4498 
     25 C          19.0958  -24.6042  -45.5056 C.2       1 UNK         0.5027 
     26 O          18.0498  -23.9897  -45.7367 O.2       1 UNK        -0.4969 
     27 C          19.2472  -27.2288  -39.3672 C.2       3 UNK         0.5005 
     28 O          19.3367  -26.0868  -38.9079 O.2       3 UNK        -0.5279 
     29 N          19.9543  -28.2733  -38.9140 N.am      4 UNK        -0.4463 
     30 CA         21.0109  -28.2923  -37.8894 C.3       4 UNK         0.0283 
     31 CB         20.5124  -27.7677  -36.5285 C.3       4 UNK        -0.1875 
     32 C          22.3146  -27.5918  -38.3189 C.2       4 UNK         0.4949 
     33 O          23.3914  -28.1035  -38.0130 O.2       4 UNK        -0.5039 
     34 N          22.2092  -26.4663  -39.0395 N.am      5 UNK        -0.4663 
     35 CA         23.3243  -25.7776  -39.6947 C.3       5 UNK         0.0242 
     36 CB         22.8565  -24.4087  -40.2125 C.3       5 UNK        -0.1982 
     37 C          23.9230  -26.6245  -40.8298 C.2       5 UNK         0.5017 
     38 O          25.1456  -26.7463  -40.9178 O.2       5 UNK        -0.5012 
     39 N          23.0499  -27.2367  -41.6426 N.am      6 UNK        -0.4439 
     40 CA         23.3914  -28.2936  -42.5909 C.3       6 UNK         0.0297 
     41 CB         22.2722  -28.4183  -43.6395 C.3       6 UNK        -0.2006 
     42 C          23.6186  -29.6084  -41.8257 C.2       6 UNK         0.4892 
     43 O          22.6741  -30.3671  -41.6035 O.2       6 UNK        -0.5089 
     44 N          24.8696  -29.8365  -41.4075 N.am      7 UNK        -0.4243 
     45 CA         25.2916  -30.9965  -40.6152 C.3       7 UNK         0.0196 
     46 CB         26.6988  -30.7321  -40.0559 C.3       7 UNK        -0.2007 
     47 C          25.2599  -32.3320  -41.3818 C.2       7 UNK         0.5020 
     48 O          25.2688  -33.3866  -40.7467 O.2       7 UNK        -0.5147 
     49 N          25.2167  -32.2751  -42.7214 N.am      8 UNK        -0.4734 
     50 CA         25.2078  -33.4273  -43.6319 C.3       8 UNK         0.0238 
     51 CB         25.2406  -32.9187  -45.0825 C.3       8 UNK        -0.1912 
     52 C          24.0285  -34.3985  -43.4349 C.2       8 UNK         0.5038 
     53 O          24.1739  -35.5825  -43.7426 O.2       8 UNK        -0.5046 
     54 N          22.9008  -33.8913  -42.9215 N.am      9 UNK        -0.4200 
     55 CA         21.7214  -34.6886  -42.5491 C.3       9 UNK         0.0839 
     56 C          21.8401  -35.3810  -41.1588 C.2       9 UNK         0.5513 
     57 N          22.8937  -35.1630  -40.3795 N.am      9 UNK        -0.7519 
     58 O          20.9568  -36.1466  -40.7816 O.2       9 UNK        -0.4960 
     59 C59        20.4128  -33.8639  -42.6609 C.3       10 UNK        -0.0876 
     60 S60        20.0988  -33.2904  -44.3679 S.3       10 UNK        -0.2414 
     61 C61        20.4348  -31.5067  -44.2276 C.3       10 UNK         0.0169 
     62 H62        20.1009  -23.1367  -50.6112 H         1 UNK         0.0903 
     63 H63        19.4116  -24.6930  -51.0819 H         1 UNK         0.0903 
     64 H64        18.4966  -23.6014  -50.0406 H         1 UNK         0.0903 
     65 H65        18.5262  -24.2248  -47.8642 H         1 UNK         0.3096 
     66 H66        20.9323  -24.9315  -46.5096 H         1 UNK         0.1121 
     67 H67        20.0906  -27.1734  -45.6390 H         1 UNK         0.0849 
     68 H68        20.5951  -27.1853  -47.2928 H         1 UNK         0.0849 
     69 H69        17.3380  -26.7716  -45.0383 H         1 UNK         0.0865 
     70 H70        16.2545  -27.8490  -45.8670 H         1 UNK         0.0865 
     71 H71        19.4815  -29.4808  -45.7334 H         1 UNK         0.1346 
     72 H72        18.5975  -31.7056  -42.1859 H         1 UNK         0.1412 
     73 H73        16.0175  -28.5142  -43.3888 H         1 UNK         0.1426 
     74 H74        16.1415  -31.5251  -41.4181 H         1 UNK         0.0716 
     75 H75        15.3073  -30.0110  -41.6379 H         1 UNK         0.0716 
     76 H76        16.5887  -27.5764  -39.2103 H         1 UNK         0.0695 
     77 H77        16.1764  -27.8213  -40.8797 H         1 UNK         0.0695 
     78 H78        18.8075  -28.2557  -41.1907 H         1 UNK         0.0983 
     79 H79        17.2886  -25.8649  -41.4370 H         1 UNK         0.3095 
     80 H80        17.7962  -24.5689  -43.2034 H         1 UNK         0.0454 
     81 H81        20.4136  -23.2798  -42.2135 H         1 UNK         0.0851 
     82 H82        18.8541  -23.1440  -41.4115 H         1 UNK         0.0851 
     83 H83        19.0852  -22.4351  -43.0028 H         1 UNK         0.0851 
     84 H84        20.4331  -25.3626  -44.1709 H         1 UNK         0.2976 
     85 H85        19.7999  -29.1634  -39.3692 H         1 UNK         0.3116 
     86 H86        21.2590  -29.3467  -37.7559 H         1 UNK         0.0646 
     87 H87        20.2915  -26.7004  -36.5538 H         1 UNK         0.0847 
     88 H88        21.2680  -27.9193  -35.7567 H         1 UNK         0.0847 
     89 H89        19.6115  -28.2900  -36.2070 H         1 UNK         0.0847 
     90 H90        21.2739  -26.1027  -39.1985 H         1 UNK         0.3040 
     91 H91        24.1076  -25.6162  -38.9507 H         1 UNK         0.1015 
     92 H92        22.0608  -24.5070  -40.9505 H         1 UNK         0.0786 
     93 H93        23.6778  -23.8702  -40.6875 H         1 UNK         0.0786 
     94 H94        22.4849  -23.7833  -39.4006 H         1 UNK         0.0786 
     95 H95        22.0608  -27.0310  -41.5374 H         1 UNK         0.3172 
     96 H96        24.3118  -28.0250  -43.1139 H         1 UNK         0.0595 
     97 H97        22.4982  -29.2047  -44.3601 H         1 UNK         0.0839 
     98 H98        22.1526  -27.4907  -44.1984 H         1 UNK         0.0839 
     99 H99        21.3108  -28.6573  -43.1823 H         1 UNK         0.0839 
    100 H100       25.5685  -29.1267  -41.5827 H         1 UNK         0.2998 
    101 H101       24.6025  -31.0935  -39.7732 H         1 UNK         0.0822 
    102 H102       27.0326  -31.5600  -39.4286 H         1 UNK         0.0787 
    103 H103       27.4337  -30.6093  -40.8525 H         1 UNK         0.0787 
    104 H104       26.7171  -29.8333  -39.4387 H         1 UNK         0.0787 
    105 H105       25.2175  -31.3609  -43.1492 H         1 UNK         0.3055 
    106 H106       26.1212  -33.9964  -43.4452 H         1 UNK         0.1106 
    107 H107       25.2628  -33.7510  -45.7878 H         1 UNK         0.0828 
    108 H108       24.3626  -32.3160  -45.3190 H         1 UNK         0.0828 
    109 H109       26.1272  -32.3137  -45.2733 H         1 UNK         0.0828 
    110 H110       22.8795  -32.9122  -42.6755 H         1 UNK         0.2931 
    111 H111       21.6365  -35.5073  -43.2666 H         1 UNK         0.0412 
    112 H112       22.9457  -35.6296  -39.4879 H         1 UNK         0.3472 
    113 H113       23.6476  -34.5473  -40.6652 H         1 UNK         0.3472 
    114 H114       20.4426  -33.0207  -41.9694 H         1 UNK         0.0970 
    115 H115       19.5524  -34.4666  -42.3636 H         1 UNK         0.0970 
    116 H116       20.9284  -31.1906  -45.1476 H         1 UNK         0.0612 
    117 H117       21.1490  -31.3220  -43.4276 H         1 UNK         0.0612 
@<TRIPOS>BOND
     1    1    2 1    
     2    1   62 1    
     3    1   63 1    
     4    1   64 1    
     5    2    3 2    
     6    2    4 am   BACKBONE|DICT|INTERRES
     7    4    5 1    
     8    4   65 1    
     9    5    6 1    
    10    5   25 1    
    11    5   66 1    
    12    6    7 1    
    13    6   67 1    
    14    6   68 1    
    15    7    8 1    
    16    8    9 1    
    17    8   69 1    
    18    8   70 1    
    19    9   10 ar   
    20    9   14 ar   
    21   10   11 ar   
    22   10   71 1    
    23   11   12 ar   
    24   11   61 1    
    25   12   13 ar   
    26   12   72 1    
    27   13   14 ar   
    28   13   15 1    
    29   14   73 1    
    30   15   16 1    
    31   15   74 1    
    32   15   75 1    
    33   16   17 1    
    34   17   18 1    
    35   17   76 1    
    36   17   77 1    
    37   18   19 1    
    38   18   27 1    
    39   18   78 1    
    40   19   20 am   BACKBONE|DICT|INTERRES
    41   19   79 1    
    42   20   21 2    
    43   20   22 1    
    44   22   23 1    
    45   22   24 1    
    46   22   80 1    
    47   23   81 1    
    48   23   82 1    
    49   23   83 1    
    50   24   25 am   BACKBONE|DICT|INTERRES
    51   24   84 1    
    52   25   26 2    
    53   27   28 2    
    54   27   29 am   BACKBONE|DICT|INTERRES
    55   29   30 1    
    56   29   85 1    
    57   30   31 1    
    58   30   32 1    
    59   30   86 1    
    60   31   87 1    
    61   31   88 1    
    62   31   89 1    
    63   32   33 2    
    64   32   34 am   BACKBONE|DICT|INTERRES
    65   34   35 1    
    66   34   90 1    
    67   35   36 1    
    68   35   37 1    
    69   35   91 1    
    70   36   92 1    
    71   36   93 1    
    72   36   94 1    
    73   37   38 2    
    74   37   39 am   BACKBONE|DICT|INTERRES
    75   39   40 1    
    76   39   95 1    
    77   40   41 1    
    78   40   42 1    
    79   40   96 1    
    80   41   97 1    
    81   41   98 1    
    82   41   99 1    
    83   42   43 2    
    84   42   44 am   BACKBONE|DICT|INTERRES
    85   44   45 1    
    86   44  100 1    
    87   45   46 1    
    88   45   47 1    
    89   45  101 1    
    90   46  102 1    
    91   46  103 1    
    92   46  104 1    
    93   47   48 2    
    94   47   49 am   BACKBONE|DICT|INTERRES
    95   49   50 1    
    96   49  105 1    
    97   50   51 1    
    98   50   52 1    
    99   50  106 1    
   100   51  107 1    
   101   51  108 1    
   102   51  109 1    
   103   52   53 2    
   104   52   54 am   BACKBONE|DICT|INTERRES
   105   54   55 1    
   106   54  110 1    
   107   55   56 1    
   108   55   59 1    
   109   55  111 1    
   110   56   57 am   BACKBONE|DICT|INTERRES
   111   56   58 2    
   112   57  112 1    
   113   57  113 1    
   114   59   60 1    
   115   59  114 1    
   116   59  115 1    
   117   60   61 1    
   118   61  116 1    
   119   61  117 1    
@<TRIPOS>SUBSTRUCTURE
     1 UNK         1 GROUP             0       ****    0 ROOT    
