@<TRIPOS>MOLECULE
3R8
117   119    1
SMALL
USER_CHARGES


@<TRIPOS>ATOM
      1 CA         19.3534  -28.2024  -41.6128 C.3       0 UNK        -0.2013 
      2 C          18.2724  -27.2584  -42.1042 C.2       0 UNK         0.4866 
      3 O          17.9627  -26.2805  -41.4235 O.2       0 UNK        -0.5176 
      4 N          17.7192  -27.5024  -43.3008 N.am      1 UNK        -0.4884 
      5 CA         16.7015  -26.6583  -43.9476 C.3       1 UNK         0.0853 
      6 C6         15.7540  -27.4844  -44.8616 C.3       10 UNK        -0.0849 
      7 S7         16.5198  -28.2387  -46.3423 S.3       10 UNK        -0.2776 
      8 C8         16.5647  -30.0127  -45.9260 C.3       10 UNK         0.0316 
      9 C9         17.7641  -30.3662  -45.0589 C.ar      10 UNK        -0.0863 
     10 C10        17.5907  -31.0049  -43.8274 C.ar      10 UNK        -0.1009 
     11 C11        18.6990  -31.3544  -43.0489 C.ar      10 UNK        -0.0712 
     12 C12        19.9857  -31.0459  -43.5016 C.ar      10 UNK        -0.0894 
     13 C13        20.1671  -30.3805  -44.7176 C.ar      10 UNK        -0.0745 
     14 C14        19.0558  -30.0690  -45.5024 C.ar      10 UNK        -0.0972 
     15 C15        21.5589  -29.9693  -45.1684 C.3       10 UNK         0.0209 
     16 S16        21.8756  -28.2240  -44.7609 S.3       10 UNK        -0.2568 
     17 C17        21.5002  -27.3820  -46.3442 C.3       10 UNK        -0.0983 
     18 CA         21.5457  -25.8294  -46.2873 C.3       3 UNK         0.0876 
     19 N          20.5260  -25.2849  -45.3850 N.am      3 UNK        -0.4424 
     20 C          20.1175  -24.0072  -45.3699 C.2       2 UNK         0.4918 
     21 O          20.5340  -23.1518  -46.1526 O.2       2 UNK        -0.4875 
     22 CA         19.0850  -23.6174  -44.2908 C.3       2 UNK         0.0481 
     23 CB         18.2514  -22.3762  -44.6746 C.3       2 UNK        -0.1831 
     24 N          18.2261  -24.7347  -43.8802 N.am      2 UNK        -0.4498 
     25 C          17.3259  -25.4054  -44.6162 C.2       1 UNK         0.5027 
     26 O          17.0124  -25.0823  -45.7627 O.2       1 UNK        -0.4969 
     27 C          22.9574  -25.3021  -45.9477 C.2       3 UNK         0.5005 
     28 O          23.7225  -24.9595  -46.8508 O.2       3 UNK        -0.5279 
     29 N          23.2518  -25.2553  -44.6440 N.am      4 UNK        -0.4463 
     30 CA         24.5125  -24.9618  -43.9718 C.3       4 UNK         0.0283 
     31 CB         25.6498  -25.8674  -44.5021 C.3       4 UNK        -0.1875 
     32 C          24.2646  -25.2252  -42.4759 C.2       4 UNK         0.4949 
     33 O          23.1467  -25.5832  -42.0913 O.2       4 UNK        -0.5039 
     34 N          25.3132  -25.0884  -41.6542 N.am      5 UNK        -0.4663 
     35 CA         25.2984  -25.4669  -40.2342 C.3       5 UNK         0.0242 
     36 CB         26.5251  -24.8540  -39.5388 C.3       5 UNK        -0.1982 
     37 C          25.2558  -26.9927  -40.0050 C.2       5 UNK         0.5017 
     38 O          24.9100  -27.4297  -38.9062 O.2       5 UNK        -0.5012 
     39 N          25.6104  -27.7748  -41.0346 N.am      6 UNK        -0.4439 
     40 CA         25.6175  -29.2376  -41.0537 C.3       6 UNK         0.0297 
     41 CB         26.5277  -29.7121  -42.2021 C.3       6 UNK        -0.2006 
     42 C          24.1958  -29.8238  -41.1557 C.2       6 UNK         0.4892 
     43 O          23.8389  -30.4174  -42.1758 O.2       6 UNK        -0.5089 
     44 N          23.4095  -29.6664  -40.0840 N.am      7 UNK        -0.4243 
     45 CA         22.0597  -30.2137  -39.9178 C.3       7 UNK         0.0196 
     46 CB         21.3439  -29.4294  -38.8025 C.3       7 UNK        -0.2007 
     47 C          22.0872  -31.7319  -39.6445 C.2       7 UNK         0.5020 
     48 O          21.6311  -32.1858  -38.5935 O.2       7 UNK        -0.5147 
     49 N          22.6425  -32.4972  -40.5907 N.am      8 UNK        -0.4734 
     50 CA         22.9102  -33.9375  -40.5120 C.3       8 UNK         0.0238 
     51 CB         23.9972  -34.2840  -41.5476 C.3       8 UNK        -0.1912 
     52 C          21.6534  -34.8247  -40.6512 C.2       8 UNK         0.5038 
     53 O          21.6649  -35.7837  -41.4259 O.2       8 UNK        -0.5046 
     54 N          20.6037  -34.4977  -39.8912 N.am      9 UNK        -0.4200 
     55 CA         19.3406  -35.2482  -39.7913 C.3       9 UNK         0.0839 
     56 C          19.1353  -35.9035  -38.3949 C.2       9 UNK         0.5513 
     57 N          20.0712  -35.7944  -37.4585 N.am      9 UNK        -0.7519 
     58 O          18.1128  -36.5419  -38.1587 O.2       9 UNK        -0.4960 
     59 C59        18.1206  -34.3781  -40.1960 C.3       10 UNK        -0.0876 
     60 S60        18.2056  -33.8240  -41.9322 S.3       10 UNK        -0.2414 
     61 C61        18.5033  -32.0466  -41.7103 C.3       10 UNK         0.0169 
     62 H62        19.9730  -28.5474  -42.4374 H         1 UNK         0.0903 
     63 H63        20.0063  -27.6904  -40.9072 H         1 UNK         0.0903 
     64 H64        18.9116  -29.0628  -41.1120 H         1 UNK         0.0903 
     65 H65        18.0148  -28.3096  -43.8367 H         1 UNK         0.3096 
     66 H66        16.0626  -26.2565  -43.1573 H         1 UNK         0.1121 
     67 H67        15.2744  -28.2651  -44.2695 H         1 UNK         0.0849 
     68 H68        14.9361  -26.8489  -45.2062 H         1 UNK         0.0849 
     69 H69        15.6269  -30.3080  -45.4530 H         1 UNK         0.0865 
     70 H70        16.6296  -30.5851  -46.8523 H         1 UNK         0.0865 
     71 H71        16.5959  -31.2439  -43.4764 H         1 UNK         0.1346 
     72 H72        20.8458  -31.3003  -42.8978 H         1 UNK         0.1412 
     73 H73        19.1921  -29.5734  -46.4535 H         1 UNK         0.1426 
     74 H74        21.6807  -30.1398  -46.2390 H         1 UNK         0.0716 
     75 H75        22.3119  -30.5840  -44.6723 H         1 UNK         0.0716 
     76 H76        20.5117  -27.6965  -46.6793 H         1 UNK         0.0695 
     77 H77        22.1987  -27.7472  -47.0994 H         1 UNK         0.0695 
     78 H78        21.3122  -25.4647  -47.2903 H         1 UNK         0.0983 
     79 H79        20.1326  -25.9289  -44.7155 H         1 UNK         0.3095 
     80 H80        19.6674  -23.3547  -43.4067 H         1 UNK         0.0454 
     81 H81        18.8913  -21.5043  -44.8146 H         1 UNK         0.0851 
     82 H82        17.5311  -22.1247  -43.8965 H         1 UNK         0.0851 
     83 H83        17.7032  -22.5254  -45.6051 H         1 UNK         0.0851 
     84 H84        18.3669  -25.0753  -42.9327 H         1 UNK         0.2976 
     85 H85        22.5434  -25.5610  -43.9844 H         1 UNK         0.3116 
     86 H86        24.7606  -23.9089  -44.1150 H         1 UNK         0.0646 
     87 H87        25.8551  -25.6840  -45.5561 H         1 UNK         0.0847 
     88 H88        25.4046  -26.9248  -44.3926 H         1 UNK         0.0847 
     89 H89        26.5882  -25.6900  -43.9765 H         1 UNK         0.0847 
     90 H90        26.1930  -24.7610  -42.0285 H         1 UNK         0.3040 
     91 H91        24.3994  -25.0485  -39.7755 H         1 UNK         0.1015 
     92 H92        26.5283  -25.0899  -38.4735 H         1 UNK         0.0786 
     93 H93        26.5300  -23.7674  -39.6270 H         1 UNK         0.0786 
     94 H94        27.4588  -25.2309  -39.9583 H         1 UNK         0.0786 
     95 H95        25.8537  -27.3157  -41.8988 H         1 UNK         0.3172 
     96 H96        26.0518  -29.5948  -40.1175 H         1 UNK         0.0595 
     97 H97        26.5780  -30.8014  -42.2344 H         1 UNK         0.0839 
     98 H98        27.5474  -29.3467  -42.0793 H         1 UNK         0.0839 
     99 H99        26.1639  -29.3752  -43.1738 H         1 UNK         0.0839 
    100 H100       23.7848  -29.1308  -39.3086 H         1 UNK         0.2998 
    101 H101       21.5082  -30.0582  -40.8466 H         1 UNK         0.0822 
    102 H102       21.3296  -28.3600  -39.0124 H         1 UNK         0.0787 
    103 H103       20.3079  -29.7549  -38.6989 H         1 UNK         0.0787 
    104 H104       21.8294  -29.5694  -37.8357 H         1 UNK         0.0787 
    105 H105       23.0065  -32.0147  -41.4081 H         1 UNK         0.3055 
    106 H106       23.3228  -34.1473  -39.5225 H         1 UNK         0.1106 
    107 H107       24.8979  -33.6895  -41.3930 H         1 UNK         0.0828 
    108 H108       24.2900  -35.3324  -41.4768 H         1 UNK         0.0828 
    109 H109       23.6509  -34.1086  -42.5670 H         1 UNK         0.0828 
    110 H110       20.7038  -33.6947  -39.2766 H         1 UNK         0.2931 
    111 H111       19.3719  -36.0918  -40.4830 H         1 UNK         0.0412 
    112 H112       20.9230  -35.2866  -37.6363 H         1 UNK         0.3472 
    113 H113       19.9236  -36.2317  -36.5620 H         1 UNK         0.3472 
    114 H114       17.1938  -34.9451  -40.0893 H         1 UNK         0.0970 
    115 H115       18.0241  -33.5193  -39.5294 H         1 UNK         0.0970 
    116 H116       19.3785  -31.9037  -41.0755 H         1 UNK         0.0612 
    117 H117       17.6591  -31.5994  -41.1833 H         1 UNK         0.0612 
@<TRIPOS>BOND
     1    1    2 1    
     2    1   62 1    
     3    1   63 1    
     4    1   64 1    
     5    2    3 2    
     6    2    4 am   BACKBONE|DICT|INTERRES
     7    4    5 1    
     8    4   65 1    
     9    5    6 1    
    10    5   25 1    
    11    5   66 1    
    12    6    7 1    
    13    6   67 1    
    14    6   68 1    
    15    7    8 1    
    16    8    9 1    
    17    8   69 1    
    18    8   70 1    
    19    9   10 ar   
    20    9   14 ar   
    21   10   11 ar   
    22   10   71 1    
    23   11   12 ar   
    24   11   61 1    
    25   12   13 ar   
    26   12   72 1    
    27   13   14 ar   
    28   13   15 1    
    29   14   73 1    
    30   15   16 1    
    31   15   74 1    
    32   15   75 1    
    33   16   17 1    
    34   17   18 1    
    35   17   76 1    
    36   17   77 1    
    37   18   19 1    
    38   18   27 1    
    39   18   78 1    
    40   19   20 am   BACKBONE|DICT|INTERRES
    41   19   79 1    
    42   20   21 2    
    43   20   22 1    
    44   22   23 1    
    45   22   24 1    
    46   22   80 1    
    47   23   81 1    
    48   23   82 1    
    49   23   83 1    
    50   24   25 am   BACKBONE|DICT|INTERRES
    51   24   84 1    
    52   25   26 2    
    53   27   28 2    
    54   27   29 am   BACKBONE|DICT|INTERRES
    55   29   30 1    
    56   29   85 1    
    57   30   31 1    
    58   30   32 1    
    59   30   86 1    
    60   31   87 1    
    61   31   88 1    
    62   31   89 1    
    63   32   33 2    
    64   32   34 am   BACKBONE|DICT|INTERRES
    65   34   35 1    
    66   34   90 1    
    67   35   36 1    
    68   35   37 1    
    69   35   91 1    
    70   36   92 1    
    71   36   93 1    
    72   36   94 1    
    73   37   38 2    
    74   37   39 am   BACKBONE|DICT|INTERRES
    75   39   40 1    
    76   39   95 1    
    77   40   41 1    
    78   40   42 1    
    79   40   96 1    
    80   41   97 1    
    81   41   98 1    
    82   41   99 1    
    83   42   43 2    
    84   42   44 am   BACKBONE|DICT|INTERRES
    85   44   45 1    
    86   44  100 1    
    87   45   46 1    
    88   45   47 1    
    89   45  101 1    
    90   46  102 1    
    91   46  103 1    
    92   46  104 1    
    93   47   48 2    
    94   47   49 am   BACKBONE|DICT|INTERRES
    95   49   50 1    
    96   49  105 1    
    97   50   51 1    
    98   50   52 1    
    99   50  106 1    
   100   51  107 1    
   101   51  108 1    
   102   51  109 1    
   103   52   53 2    
   104   52   54 am   BACKBONE|DICT|INTERRES
   105   54   55 1    
   106   54  110 1    
   107   55   56 1    
   108   55   59 1    
   109   55  111 1    
   110   56   57 am   BACKBONE|DICT|INTERRES
   111   56   58 2    
   112   57  112 1    
   113   57  113 1    
   114   59   60 1    
   115   59  114 1    
   116   59  115 1    
   117   60   61 1    
   118   61  116 1    
   119   61  117 1    
@<TRIPOS>SUBSTRUCTURE
     1 UNK         1 GROUP             0       ****    0 ROOT    
