@<TRIPOS>MOLECULE
3R8
117   119    1
SMALL
USER_CHARGES


@<TRIPOS>ATOM
      1 CA         19.0776  -22.8192  -43.6117 C.3       0 UNK        -0.2013 
      2 C          19.2623  -24.0407  -44.4993 C.2       0 UNK         0.4866 
      3 O          19.4942  -25.1300  -43.9725 O.2       0 UNK        -0.5176 
      4 N          19.1589  -23.8453  -45.8266 N.am      1 UNK        -0.4884 
      5 CA         19.2921  -24.8136  -46.9323 C.3       1 UNK         0.0853 
      6 C6         17.9554  -25.4954  -47.3667 C.3       10 UNK        -0.0849 
      7 S7         16.9728  -26.2519  -46.0254 S.3       10 UNK        -0.2776 
      8 C8         16.9870  -28.0464  -46.4040 C.3       10 UNK         0.0316 
      9 C9         16.8778  -28.9498  -45.1691 C.ar      10 UNK        -0.0863 
     10 C10        17.2772  -30.2892  -45.2577 C.ar      10 UNK        -0.1009 
     11 C11        17.2248  -31.1404  -44.1448 C.ar      10 UNK        -0.0712 
     12 C12        16.7473  -30.6363  -42.9272 C.ar      10 UNK        -0.0894 
     13 C13        16.3783  -29.2937  -42.8137 C.ar      10 UNK        -0.0745 
     14 C14        16.4105  -28.4723  -43.9394 C.ar      10 UNK        -0.0972 
     15 C15        16.0240  -28.6913  -41.4631 C.3       10 UNK         0.0209 
     16 S16        17.5085  -28.3990  -40.4378 S.3       10 UNK        -0.2568 
     17 C17        18.6784  -27.5401  -41.5641 C.3       10 UNK        -0.0983 
     18 CA         19.6444  -28.5194  -42.2923 C.3       3 UNK         0.0876 
     19 N          20.1399  -27.9718  -43.5592 N.am      3 UNK        -0.4424 
     20 C          20.6496  -28.7219  -44.5491 C.2       2 UNK         0.4918 
     21 O          20.7189  -29.9491  -44.5056 O.2       2 UNK        -0.4875 
     22 CA         21.1380  -27.9910  -45.8080 C.3       2 UNK         0.0481 
     23 CB         21.3471  -28.9298  -47.0133 C.3       2 UNK        -0.1831 
     24 N          20.1874  -26.9466  -46.1572 N.am      2 UNK        -0.4498 
     25 C          20.4719  -25.7907  -46.7585 C.2       1 UNK         0.5027 
     26 O          21.5947  -25.4726  -47.1551 O.2       1 UNK        -0.4969 
     27 C          20.7811  -29.0380  -41.3817 C.2       3 UNK         0.5005 
     28 O          21.9678  -28.8327  -41.6540 O.2       3 UNK        -0.5279 
     29 N          20.3900  -29.6870  -40.2771 N.am      4 UNK        -0.4463 
     30 CA         21.2716  -30.1647  -39.2076 C.3       4 UNK         0.0283 
     31 CB         20.4588  -31.0107  -38.2164 C.3       4 UNK        -0.1875 
     32 C          22.0074  -29.0268  -38.4764 C.2       4 UNK         0.4949 
     33 O          23.0814  -29.2634  -37.9274 O.2       4 UNK        -0.5039 
     34 N          21.4668  -27.8009  -38.5453 N.am      5 UNK        -0.4663 
     35 CA         22.1267  -26.5615  -38.1213 C.3       5 UNK         0.0242 
     36 CB         21.1199  -25.4031  -38.2087 C.3       5 UNK        -0.1982 
     37 C          23.3957  -26.2332  -38.9347 C.2       5 UNK         0.5017 
     38 O          24.2989  -25.5896  -38.4007 O.2       5 UNK        -0.5012 
     39 N          23.4531  -26.7020  -40.1903 N.am      6 UNK        -0.4439 
     40 CA         24.6268  -26.6431  -41.0653 C.3       6 UNK         0.0297 
     41 CB         24.1586  -26.3082  -42.4940 C.3       6 UNK        -0.2006 
     42 C          25.4256  -27.9631  -41.0461 C.2       6 UNK         0.4892 
     43 O          26.4004  -28.0786  -41.7892 O.2       6 UNK        -0.5089 
     44 N          24.9913  -28.9356  -40.2262 N.am      7 UNK        -0.4243 
     45 CA         25.5091  -30.3014  -40.0695 C.3       7 UNK         0.0196 
     46 CB         26.9476  -30.2807  -39.5104 C.3       7 UNK        -0.2007 
     47 C          25.3794  -31.1798  -41.3307 C.2       7 UNK         0.5020 
     48 O          26.0517  -32.2087  -41.4166 O.2       7 UNK        -0.5147 
     49 N          24.5323  -30.7760  -42.2872 N.am      8 UNK        -0.4734 
     50 CA         24.3798  -31.4536  -43.5761 C.3       8 UNK         0.0238 
     51 CB         24.1520  -30.4049  -44.6740 C.3       8 UNK        -0.1912 
     52 C          23.2691  -32.5154  -43.5627 C.2       8 UNK         0.5038 
     53 O          23.4375  -33.5579  -44.1971 O.2       8 UNK        -0.5046 
     54 N          22.1714  -32.2515  -42.8419 N.am      9 UNK        -0.4200 
     55 CA         21.0689  -33.2036  -42.6396 C.3       9 UNK         0.0839 
     56 C          21.4331  -34.2444  -41.5488 C.2       9 UNK         0.5513 
     57 N          21.1423  -35.5174  -41.7761 N.am      9 UNK        -0.7519 
     58 O          21.9461  -33.8984  -40.4866 O.2       9 UNK        -0.4960 
     59 C59        19.7425  -32.4695  -42.3153 C.3       10 UNK        -0.0876 
     60 S60        18.2526  -33.4226  -42.7654 S.3       10 UNK        -0.2414 
     61 C61        17.7031  -32.5880  -44.3010 C.3       10 UNK         0.0169 
     62 H62        18.8632  -21.9201  -44.1890 H         1 UNK         0.0903 
     63 H63        18.2517  -22.9831  -42.9199 H         1 UNK         0.0903 
     64 H64        19.9804  -22.6414  -43.0279 H         1 UNK         0.0903 
     65 H65        18.9842  -22.9002  -46.1389 H         1 UNK         0.3096 
     66 H66        19.5899  -24.2008  -47.7856 H         1 UNK         0.1121 
     67 H67        18.1315  -26.2261  -48.1585 H         1 UNK         0.0849 
     68 H68        17.3160  -24.7387  -47.8238 H         1 UNK         0.0849 
     69 H69        16.1567  -28.2672  -47.0762 H         1 UNK         0.0865 
     70 H70        17.8969  -28.2986  -46.9498 H         1 UNK         0.0865 
     71 H71        17.6485  -30.6710  -46.1992 H         1 UNK         0.1346 
     72 H72        16.7094  -31.2653  -42.0492 H         1 UNK         0.1412 
     73 H73        16.1078  -27.4416  -43.8277 H         1 UNK         0.1426 
     74 H74        15.3469  -29.3592  -40.9290 H         1 UNK         0.0716 
     75 H75        15.4886  -27.7487  -41.5878 H         1 UNK         0.0716 
     76 H76        18.0934  -26.9715  -42.2881 H         1 UNK         0.0695 
     77 H77        19.2361  -26.7917  -40.9982 H         1 UNK         0.0695 
     78 H78        19.0691  -29.3995  -42.5667 H         1 UNK         0.0983 
     79 H79        20.0889  -26.9618  -43.6706 H         1 UNK         0.3095 
     80 H80        22.0959  -27.5356  -45.5485 H         1 UNK         0.0454 
     81 H81        22.0733  -29.7097  -46.7852 H         1 UNK         0.0851 
     82 H82        21.7219  -28.3871  -47.8810 H         1 UNK         0.0851 
     83 H83        20.4184  -29.4238  -47.3009 H         1 UNK         0.0851 
     84 H84        19.2464  -27.0604  -45.7985 H         1 UNK         0.2976 
     85 H85        19.3940  -29.7640  -40.1082 H         1 UNK         0.3116 
     86 H86        22.0301  -30.8057  -39.6625 H         1 UNK         0.0646 
     87 H87        19.6588  -30.4336  -37.7508 H         1 UNK         0.0847 
     88 H88        20.0110  -31.8757  -38.7060 H         1 UNK         0.0847 
     89 H89        21.0952  -31.3908  -37.4160 H         1 UNK         0.0847 
     90 H90        20.5646  -27.7052  -38.9878 H         1 UNK         0.3040 
     91 H91        22.4294  -26.6816  -37.0786 H         1 UNK         0.1015 
     92 H92        21.5711  -24.4684  -37.8723 H         1 UNK         0.0786 
     93 H93        20.2490  -25.5847  -37.5784 H         1 UNK         0.0786 
     94 H94        20.7698  -25.2466  -39.2300 H         1 UNK         0.0786 
     95 H95        22.6781  -27.2524  -40.5454 H         1 UNK         0.3172 
     96 H96        25.3007  -25.8502  -40.7347 H         1 UNK         0.0595 
     97 H97        23.5287  -27.0943  -42.9117 H         1 UNK         0.0839 
     98 H98        25.0092  -26.1846  -43.1657 H         1 UNK         0.0839 
     99 H99        23.5918  -25.3774  -42.5185 H         1 UNK         0.0839 
    100 H100       24.2025  -28.7217  -39.6282 H         1 UNK         0.2998 
    101 H101       24.8761  -30.7762  -39.3187 H         1 UNK         0.0822 
    102 H102       27.2792  -31.2844  -39.2415 H         1 UNK         0.0787 
    103 H103       27.0140  -29.6691  -38.6106 H         1 UNK         0.0787 
    104 H104       27.6594  -29.8885  -40.2373 H         1 UNK         0.0787 
    105 H105       23.9872  -29.9362  -42.1338 H         1 UNK         0.3055 
    106 H106       25.3072  -31.9763  -43.8231 H         1 UNK         0.1106 
    107 H107       23.3309  -29.7363  -44.4258 H         1 UNK         0.0828 
    108 H108       25.0413  -29.7914  -44.8194 H         1 UNK         0.0828 
    109 H109       23.9233  -30.8773  -45.6301 H         1 UNK         0.0828 
    110 H110       22.1194  -31.3773  -42.3415 H         1 UNK         0.2931 
    111 H111       20.9265  -33.7299  -43.5862 H         1 UNK         0.0412 
    112 H112       21.3599  -36.2051  -41.0718 H         1 UNK         0.3472 
    113 H113       20.7005  -35.8020  -42.6367 H         1 UNK         0.3472 
    114 H114       19.6837  -32.2002  -41.2600 H         1 UNK         0.0970 
    115 H115       19.7013  -31.5336  -42.8641 H         1 UNK         0.0970 
    116 H116       16.8894  -33.1709  -44.7338 H         1 UNK         0.0612 
    117 H117       18.5266  -32.6271  -45.0163 H         1 UNK         0.0612 
@<TRIPOS>BOND
     1    1    2 1    
     2    1   62 1    
     3    1   63 1    
     4    1   64 1    
     5    2    3 2    
     6    2    4 am   BACKBONE|DICT|INTERRES
     7    4    5 1    
     8    4   65 1    
     9    5    6 1    
    10    5   25 1    
    11    5   66 1    
    12    6    7 1    
    13    6   67 1    
    14    6   68 1    
    15    7    8 1    
    16    8    9 1    
    17    8   69 1    
    18    8   70 1    
    19    9   10 ar   
    20    9   14 ar   
    21   10   11 ar   
    22   10   71 1    
    23   11   12 ar   
    24   11   61 1    
    25   12   13 ar   
    26   12   72 1    
    27   13   14 ar   
    28   13   15 1    
    29   14   73 1    
    30   15   16 1    
    31   15   74 1    
    32   15   75 1    
    33   16   17 1    
    34   17   18 1    
    35   17   76 1    
    36   17   77 1    
    37   18   19 1    
    38   18   27 1    
    39   18   78 1    
    40   19   20 am   BACKBONE|DICT|INTERRES
    41   19   79 1    
    42   20   21 2    
    43   20   22 1    
    44   22   23 1    
    45   22   24 1    
    46   22   80 1    
    47   23   81 1    
    48   23   82 1    
    49   23   83 1    
    50   24   25 am   BACKBONE|DICT|INTERRES
    51   24   84 1    
    52   25   26 2    
    53   27   28 2    
    54   27   29 am   BACKBONE|DICT|INTERRES
    55   29   30 1    
    56   29   85 1    
    57   30   31 1    
    58   30   32 1    
    59   30   86 1    
    60   31   87 1    
    61   31   88 1    
    62   31   89 1    
    63   32   33 2    
    64   32   34 am   BACKBONE|DICT|INTERRES
    65   34   35 1    
    66   34   90 1    
    67   35   36 1    
    68   35   37 1    
    69   35   91 1    
    70   36   92 1    
    71   36   93 1    
    72   36   94 1    
    73   37   38 2    
    74   37   39 am   BACKBONE|DICT|INTERRES
    75   39   40 1    
    76   39   95 1    
    77   40   41 1    
    78   40   42 1    
    79   40   96 1    
    80   41   97 1    
    81   41   98 1    
    82   41   99 1    
    83   42   43 2    
    84   42   44 am   BACKBONE|DICT|INTERRES
    85   44   45 1    
    86   44  100 1    
    87   45   46 1    
    88   45   47 1    
    89   45  101 1    
    90   46  102 1    
    91   46  103 1    
    92   46  104 1    
    93   47   48 2    
    94   47   49 am   BACKBONE|DICT|INTERRES
    95   49   50 1    
    96   49  105 1    
    97   50   51 1    
    98   50   52 1    
    99   50  106 1    
   100   51  107 1    
   101   51  108 1    
   102   51  109 1    
   103   52   53 2    
   104   52   54 am   BACKBONE|DICT|INTERRES
   105   54   55 1    
   106   54  110 1    
   107   55   56 1    
   108   55   59 1    
   109   55  111 1    
   110   56   57 am   BACKBONE|DICT|INTERRES
   111   56   58 2    
   112   57  112 1    
   113   57  113 1    
   114   59   60 1    
   115   59  114 1    
   116   59  115 1    
   117   60   61 1    
   118   61  116 1    
   119   61  117 1    
@<TRIPOS>SUBSTRUCTURE
     1 UNK         1 GROUP             0       ****    0 ROOT    
