@<TRIPOS>MOLECULE
3R8
117   119    1
SMALL
USER_CHARGES


@<TRIPOS>ATOM
      1 CA         14.5740  -21.7406  -47.3487 C.3       0 UNK        -0.2013 
      2 C          15.0623  -23.1598  -47.5984 C.2       0 UNK         0.4866 
      3 O          15.3842  -23.5053  -48.7360 O.2       0 UNK        -0.5176 
      4 N          15.1128  -23.9873  -46.5468 N.am      1 UNK        -0.4884 
      5 CA         15.6252  -25.3605  -46.5925 C.3       1 UNK         0.0853 
      6 C6         15.1474  -26.1732  -45.3628 C.3       10 UNK        -0.0849 
      7 S7         15.1432  -27.9706  -45.6753 S.3       10 UNK        -0.2776 
      8 C8         14.6424  -28.6119  -44.0476 C.3       10 UNK         0.0316 
      9 C9         15.8368  -28.8627  -43.1367 C.ar      10 UNK        -0.0863 
     10 C10        16.4291  -30.1287  -43.0938 C.ar      10 UNK        -0.1009 
     11 C11        17.4856  -30.4026  -42.2190 C.ar      10 UNK        -0.0712 
     12 C12        17.9524  -29.3765  -41.3846 C.ar      10 UNK        -0.0894 
     13 C13        17.3879  -28.0986  -41.4352 C.ar      10 UNK        -0.0745 
     14 C14        16.3251  -27.8492  -42.3078 C.ar      10 UNK        -0.0972 
     15 C15        17.9111  -26.9957  -40.5245 C.3       10 UNK         0.0209 
     16 S16        19.6290  -26.5301  -40.9150 S.3       10 UNK        -0.2568 
     17 C17        19.4730  -25.8652  -42.6092 C.3       10 UNK        -0.0983 
     18 CA         20.0732  -26.8171  -43.6741 C.3       3 UNK         0.0876 
     19 N          19.5901  -26.4849  -45.0125 N.am      3 UNK        -0.4424 
     20 C          19.6992  -27.2711  -46.0894 C.2       2 UNK         0.4918 
     21 O          20.1749  -28.4076  -46.0597 O.2       2 UNK        -0.4875 
     22 CA         19.1530  -26.6905  -47.4100 C.3       2 UNK         0.0481 
     23 CB         19.4088  -27.6155  -48.6142 C.3       2 UNK        -0.1831 
     24 N          17.7168  -26.4182  -47.3167 N.am      2 UNK        -0.4498 
     25 C          17.1644  -25.3679  -46.6961 C.2       1 UNK         0.5027 
     26 O          17.8228  -24.4666  -46.1669 O.2       1 UNK        -0.4969 
     27 C          21.6164  -26.8125  -43.6397 C.2       3 UNK         0.5005 
     28 O          22.2461  -25.9491  -44.2574 O.2       3 UNK        -0.5279 
     29 N          22.1858  -27.7593  -42.8893 N.am      4 UNK        -0.4463 
     30 CA         23.6158  -27.9131  -42.6390 C.3       4 UNK         0.0283 
     31 CB         24.3174  -28.5662  -43.8476 C.3       4 UNK        -0.1875 
     32 C          23.7778  -28.7126  -41.3424 C.2       4 UNK         0.4949 
     33 O          24.4036  -29.7731  -41.3401 O.2       4 UNK        -0.5039 
     34 N          23.1560  -28.2183  -40.2618 N.am      5 UNK        -0.4663 
     35 CA         23.0519  -28.8864  -38.9566 C.3       5 UNK         0.0242 
     36 CB         22.2144  -28.0159  -38.0072 C.3       5 UNK        -0.1982 
     37 C          24.3993  -29.2550  -38.3084 C.2       5 UNK         0.5017 
     38 O          24.4694  -30.2614  -37.6036 O.2       5 UNK        -0.5012 
     39 N          25.4537  -28.4832  -38.6090 N.am      6 UNK        -0.4439 
     40 CA         26.8416  -28.7594  -38.2191 C.3       6 UNK         0.0297 
     41 CB         27.7184  -27.5513  -38.5858 C.3       6 UNK        -0.2006 
     42 C          27.4207  -30.0492  -38.8374 C.2       6 UNK         0.4892 
     43 O          28.3390  -30.6297  -38.2581 O.2       6 UNK        -0.5089 
     44 N          26.8671  -30.4805  -39.9788 N.am      7 UNK        -0.4243 
     45 CA         27.1785  -31.7363  -40.6644 C.3       7 UNK         0.0196 
     46 CB         27.4582  -31.4240  -42.1463 C.3       7 UNK        -0.2007 
     47 C          26.0310  -32.7555  -40.5134 C.2       7 UNK         0.5020 
     48 O          25.9741  -33.7162  -41.2819 O.2       7 UNK        -0.5147 
     49 N          25.1202  -32.5205  -39.5538 N.am      8 UNK        -0.4734 
     50 CA         23.9017  -33.2895  -39.2612 C.3       8 UNK         0.0238 
     51 CB         24.2506  -34.7147  -38.7804 C.3       8 UNK        -0.1912 
     52 C          22.8623  -33.2837  -40.4029 C.2       8 UNK         0.5038 
     53 O          22.0203  -34.1810  -40.4483 O.2       8 UNK        -0.5046 
     54 N          22.9419  -32.2748  -41.2844 N.am      9 UNK        -0.4200 
     55 CA         22.0797  -31.9960  -42.4460 C.3       9 UNK         0.0839 
     56 C          21.8666  -33.1533  -43.4686 C.2       9 UNK         0.5513 
     57 N          22.7512  -34.1413  -43.5287 N.am      9 UNK        -0.7519 
     58 O          20.9211  -33.1341  -44.2522 O.2       9 UNK        -0.4960 
     59 C59        20.8039  -31.1863  -42.0761 C.3       10 UNK        -0.0876 
     60 S60        19.5228  -32.0968  -41.1483 S.3       10 UNK        -0.2414 
     61 C61        18.0563  -31.8253  -42.2036 C.3       10 UNK         0.0169 
     62 H62        13.6936  -21.5341  -47.9568 H         1 UNK         0.0903 
     63 H63        14.3099  -21.5774  -46.3040 H         1 UNK         0.0903 
     64 H64        15.3500  -21.0246  -47.6179 H         1 UNK         0.0903 
     65 H65        14.8719  -23.6373  -45.6303 H         1 UNK         0.3096 
     66 H66        15.2205  -25.8230  -47.4964 H         1 UNK         0.1121 
     67 H67        15.7484  -25.9464  -44.4806 H         1 UNK         0.0849 
     68 H68        14.1228  -25.8955  -45.1088 H         1 UNK         0.0849 
     69 H69        13.9386  -27.9262  -43.5730 H         1 UNK         0.0865 
     70 H70        14.0929  -29.5427  -44.1968 H         1 UNK         0.0865 
     71 H71        16.0514  -30.9145  -43.7344 H         1 UNK         0.1346 
     72 H72        18.7562  -29.5537  -40.6854 H         1 UNK         0.1412 
     73 H73        15.8678  -26.8699  -42.3300 H         1 UNK         0.1426 
     74 H74        17.8669  -27.3385  -39.4899 H         1 UNK         0.0716 
     75 H75        17.2794  -26.1077  -40.5794 H         1 UNK         0.0716 
     76 H76        18.4160  -25.6907  -42.8166 H         1 UNK         0.0695 
     77 H77        19.9461  -24.8819  -42.6488 H         1 UNK         0.0695 
     78 H78        19.7220  -27.8304  -43.4632 H         1 UNK         0.0983 
     79 H79        19.1815  -25.5656  -45.1402 H         1 UNK         0.3095 
     80 H80        19.6799  -25.7524  -47.5967 H         1 UNK         0.0454 
     81 H81        18.9050  -28.5764  -48.5018 H         1 UNK         0.0851 
     82 H82        19.0639  -27.1622  -49.5436 H         1 UNK         0.0851 
     83 H83        20.4743  -27.8180  -48.7310 H         1 UNK         0.0851 
     84 H84        17.1046  -27.1450  -47.6611 H         1 UNK         0.2976 
     85 H85        21.5873  -28.3905  -42.3763 H         1 UNK         0.3116 
     86 H86        24.0588  -26.9298  -42.4676 H         1 UNK         0.0646 
     87 H87        25.3804  -28.7113  -43.6510 H         1 UNK         0.0847 
     88 H88        24.2378  -27.9432  -44.7384 H         1 UNK         0.0847 
     89 H89        23.8930  -29.5414  -44.0852 H         1 UNK         0.0847 
     90 H90        22.6661  -27.3386  -40.3531 H         1 UNK         0.3040 
     91 H91        22.5148  -29.8239  -39.1175 H         1 UNK         0.1015 
     92 H92        21.2114  -27.8502  -38.4013 H         1 UNK         0.0786 
     93 H93        22.6753  -27.0417  -37.8396 H         1 UNK         0.0786 
     94 H94        22.1014  -28.4955  -37.0337 H         1 UNK         0.0786 
     95 H95        25.2949  -27.6781  -39.1977 H         1 UNK         0.3172 
     96 H96        26.8628  -28.8805  -37.1340 H         1 UNK         0.0595 
     97 H97        27.3752  -26.6441  -38.0881 H         1 UNK         0.0839 
     98 H98        27.7228  -27.3658  -39.6607 H         1 UNK         0.0839 
     99 H99        28.7531  -27.7133  -38.2799 H         1 UNK         0.0839 
    100 H100       26.0880  -29.9612  -40.3732 H         1 UNK         0.2998 
    101 H101       28.0718  -32.1943  -40.2353 H         1 UNK         0.0822 
    102 H102       28.2626  -30.6961  -42.2525 H         1 UNK         0.0787 
    103 H103       27.7622  -32.3206  -42.6881 H         1 UNK         0.0787 
    104 H104       26.5751  -31.0231  -42.6460 H         1 UNK         0.0787 
    105 H105       25.2518  -31.7016  -38.9704 H         1 UNK         0.3055 
    106 H106       23.4185  -32.7758  -38.4283 H         1 UNK         0.1106 
    107 H107       24.6644  -35.3245  -39.5840 H         1 UNK         0.0828 
    108 H108       24.9756  -34.6931  -37.9670 H         1 UNK         0.0828 
    109 H109       23.3650  -35.2305  -38.4072 H         1 UNK         0.0828 
    110 H110       23.6893  -31.6006  -41.1566 H         1 UNK         0.2931 
    111 H111       22.6859  -31.2987  -43.0236 H         1 UNK         0.0412 
    112 H112       22.6225  -34.8819  -44.2000 H         1 UNK         0.3472 
    113 H113       23.5333  -34.1631  -42.8920 H         1 UNK         0.3472 
    114 H114       20.3644  -30.7657  -42.9826 H         1 UNK         0.0970 
    115 H115       21.0869  -30.3275  -41.4678 H         1 UNK         0.0970 
    116 H116       18.3017  -32.1284  -43.2228 H         1 UNK         0.0612 
    117 H117       17.2724  -32.5027  -41.8625 H         1 UNK         0.0612 
@<TRIPOS>BOND
     1    1    2 1    
     2    1   62 1    
     3    1   63 1    
     4    1   64 1    
     5    2    3 2    
     6    2    4 am   BACKBONE|DICT|INTERRES
     7    4    5 1    
     8    4   65 1    
     9    5    6 1    
    10    5   25 1    
    11    5   66 1    
    12    6    7 1    
    13    6   67 1    
    14    6   68 1    
    15    7    8 1    
    16    8    9 1    
    17    8   69 1    
    18    8   70 1    
    19    9   10 ar   
    20    9   14 ar   
    21   10   11 ar   
    22   10   71 1    
    23   11   12 ar   
    24   11   61 1    
    25   12   13 ar   
    26   12   72 1    
    27   13   14 ar   
    28   13   15 1    
    29   14   73 1    
    30   15   16 1    
    31   15   74 1    
    32   15   75 1    
    33   16   17 1    
    34   17   18 1    
    35   17   76 1    
    36   17   77 1    
    37   18   19 1    
    38   18   27 1    
    39   18   78 1    
    40   19   20 am   BACKBONE|DICT|INTERRES
    41   19   79 1    
    42   20   21 2    
    43   20   22 1    
    44   22   23 1    
    45   22   24 1    
    46   22   80 1    
    47   23   81 1    
    48   23   82 1    
    49   23   83 1    
    50   24   25 am   BACKBONE|DICT|INTERRES
    51   24   84 1    
    52   25   26 2    
    53   27   28 2    
    54   27   29 am   BACKBONE|DICT|INTERRES
    55   29   30 1    
    56   29   85 1    
    57   30   31 1    
    58   30   32 1    
    59   30   86 1    
    60   31   87 1    
    61   31   88 1    
    62   31   89 1    
    63   32   33 2    
    64   32   34 am   BACKBONE|DICT|INTERRES
    65   34   35 1    
    66   34   90 1    
    67   35   36 1    
    68   35   37 1    
    69   35   91 1    
    70   36   92 1    
    71   36   93 1    
    72   36   94 1    
    73   37   38 2    
    74   37   39 am   BACKBONE|DICT|INTERRES
    75   39   40 1    
    76   39   95 1    
    77   40   41 1    
    78   40   42 1    
    79   40   96 1    
    80   41   97 1    
    81   41   98 1    
    82   41   99 1    
    83   42   43 2    
    84   42   44 am   BACKBONE|DICT|INTERRES
    85   44   45 1    
    86   44  100 1    
    87   45   46 1    
    88   45   47 1    
    89   45  101 1    
    90   46  102 1    
    91   46  103 1    
    92   46  104 1    
    93   47   48 2    
    94   47   49 am   BACKBONE|DICT|INTERRES
    95   49   50 1    
    96   49  105 1    
    97   50   51 1    
    98   50   52 1    
    99   50  106 1    
   100   51  107 1    
   101   51  108 1    
   102   51  109 1    
   103   52   53 2    
   104   52   54 am   BACKBONE|DICT|INTERRES
   105   54   55 1    
   106   54  110 1    
   107   55   56 1    
   108   55   59 1    
   109   55  111 1    
   110   56   57 am   BACKBONE|DICT|INTERRES
   111   56   58 2    
   112   57  112 1    
   113   57  113 1    
   114   59   60 1    
   115   59  114 1    
   116   59  115 1    
   117   60   61 1    
   118   61  116 1    
   119   61  117 1    
@<TRIPOS>SUBSTRUCTURE
     1 UNK         1 GROUP             0       ****    0 ROOT    
