@<TRIPOS>MOLECULE
3R8
117   119    1
SMALL
USER_CHARGES


@<TRIPOS>ATOM
      1 CA         15.9387  -23.7007  -41.8632 C.3       0 UNK        -0.2013 
      2 C          16.6487  -24.7411  -42.7153 C.2       0 UNK         0.4866 
      3 O          16.7432  -24.5789  -43.9327 O.2       0 UNK        -0.5176 
      4 N          17.1629  -25.8072  -42.0896 N.am      1 UNK        -0.4884 
      5 CA         17.8592  -26.9276  -42.7362 C.3       1 UNK         0.0853 
      6 C6         17.7814  -28.2189  -41.8828 C.3       10 UNK        -0.0849 
      7 S7         16.0787  -28.7892  -41.5414 S.3       10 UNK        -0.2776 
      8 C8         15.3932  -29.1084  -43.2080 C.3       10 UNK         0.0316 
      9 C9         16.3225  -29.9020  -44.1228 C.ar      10 UNK        -0.0863 
     10 C10        16.9492  -31.0683  -43.6702 C.ar      10 UNK        -0.1009 
     11 C11        17.8283  -31.7692  -44.4989 C.ar      10 UNK        -0.0712 
     12 C12        18.0500  -31.3238  -45.8036 C.ar      10 UNK        -0.0894 
     13 C13        17.4219  -30.1673  -46.2740 C.ar      10 UNK        -0.0745 
     14 C14        16.5583  -29.4617  -45.4304 C.ar      10 UNK        -0.0972 
     15 C15        17.6843  -29.6794  -47.6922 C.3       10 UNK         0.0209 
     16 S16        18.8251  -28.2598  -47.7334 S.3       10 UNK        -0.2568 
     17 C17        20.3671  -29.0016  -47.0949 C.3       10 UNK        -0.0983 
     18 CA         21.4342  -27.9454  -46.7185 C.3       3 UNK         0.0876 
     19 N          20.8925  -26.9329  -45.8053 N.am      3 UNK        -0.4424 
     20 C          21.5163  -25.8311  -45.3672 C.2       2 UNK         0.4918 
     21 O          22.6451  -25.4984  -45.7297 O.2       2 UNK        -0.4875 
     22 CA         20.7588  -24.9417  -44.3589 C.3       2 UNK         0.0481 
     23 CB         20.5059  -23.5454  -44.9511 C.3       2 UNK        -0.1831 
     24 N          19.4797  -25.4910  -43.8921 N.am      2 UNK        -0.4498 
     25 C          19.3151  -26.5638  -43.1066 C.2       1 UNK         0.5027 
     26 O          20.2511  -27.2521  -42.6995 O.2       1 UNK        -0.4969 
     27 C          22.6926  -28.6439  -46.1567 C.2       3 UNK         0.5005 
     28 O          23.5595  -29.0442  -46.9357 O.2       3 UNK        -0.5279 
     29 N          22.7764  -28.7546  -44.8244 N.am      4 UNK        -0.4463 
     30 CA         23.9664  -29.1494  -44.0791 C.3       4 UNK         0.0283 
     31 CB         23.6342  -30.3619  -43.1932 C.3       4 UNK        -0.1875 
     32 C          24.3728  -27.9418  -43.2288 C.2       4 UNK         0.4949 
     33 O          23.5023  -27.3211  -42.6173 O.2       4 UNK        -0.5039 
     34 N          25.6756  -27.6337  -43.1854 N.am      5 UNK        -0.4663 
     35 CA         26.2318  -26.4203  -42.5659 C.3       5 UNK         0.0242 
     36 CB         27.7499  -26.3803  -42.8063 C.3       5 UNK        -0.1982 
     37 C          25.9227  -26.2482  -41.0667 C.2       5 UNK         0.5017 
     38 O          25.8059  -25.1135  -40.6028 O.2       5 UNK        -0.5012 
     39 N          25.7851  -27.3712  -40.3523 N.am      6 UNK        -0.4439 
     40 CA         25.4228  -27.4341  -38.9342 C.3       6 UNK         0.0297 
     41 CB         26.4675  -28.2994  -38.2042 C.3       6 UNK        -0.2006 
     42 C          23.9992  -27.9835  -38.7133 C.2       6 UNK         0.4892 
     43 O          23.6581  -28.2837  -37.5686 O.2       6 UNK        -0.5089 
     44 N          23.2096  -28.1475  -39.7913 N.am      7 UNK        -0.4243 
     45 CA         21.8842  -28.7910  -39.8296 C.3       7 UNK         0.0196 
     46 CB         20.8359  -27.9379  -39.0843 C.3       7 UNK        -0.2007 
     47 C          21.9058  -30.2620  -39.3555 C.2       7 UNK         0.5020 
     48 O          20.9160  -30.7548  -38.8119 O.2       7 UNK        -0.5147 
     49 N          23.0470  -30.9367  -39.5636 N.am      8 UNK        -0.4734 
     50 CA         23.3804  -32.2575  -39.0177 C.3       8 UNK         0.0238 
     51 CB         24.8438  -32.5826  -39.3601 C.3       8 UNK        -0.1912 
     52 C          22.4584  -33.4061  -39.4605 C.2       8 UNK         0.5038 
     53 O          22.3421  -34.3913  -38.7303 O.2       8 UNK        -0.5046 
     54 N          21.8255  -33.2646  -40.6311 N.am      9 UNK        -0.4200 
     55 CA         20.8208  -34.2025  -41.1499 C.3       9 UNK         0.0839 
     56 C          19.4195  -34.0924  -40.4766 C.2       9 UNK         0.5513 
     57 N          19.1552  -33.1027  -39.6302 N.am      9 UNK        -0.7519 
     58 O          18.5590  -34.9346  -40.7193 O.2       9 UNK        -0.4960 
     59 C59        20.7512  -34.1613  -42.6984 C.3       10 UNK        -0.0876 
     60 S60        20.2144  -32.5517  -43.3733 S.3       10 UNK        -0.2414 
     61 C61        18.5566  -32.9945  -43.9780 C.3       10 UNK         0.0169 
     62 H62        16.4349  -22.7353  -41.9592 H         1 UNK         0.0903 
     63 H63        14.9064  -23.5878  -42.1932 H         1 UNK         0.0903 
     64 H64        15.9294  -23.9746  -40.8084 H         1 UNK         0.0903 
     65 H65        17.0665  -25.8833  -41.0867 H         1 UNK         0.3096 
     66 H66        17.3630  -27.1327  -43.6864 H         1 UNK         0.1121 
     67 H67        18.2752  -28.0626  -40.9231 H         1 UNK         0.0849 
     68 H68        18.3266  -29.0340  -42.3623 H         1 UNK         0.0849 
     69 H69        14.4564  -29.6565  -43.1012 H         1 UNK         0.0865 
     70 H70        15.1322  -28.1506  -43.6610 H         1 UNK         0.0865 
     71 H71        16.7778  -31.4126  -42.6592 H         1 UNK         0.1346 
     72 H72        18.7314  -31.8667  -46.4446 H         1 UNK         0.1412 
     73 H73        16.0784  -28.5633  -45.7950 H         1 UNK         0.1426 
     74 H74        16.7405  -29.3865  -48.1542 H         1 UNK         0.0716 
     75 H75        18.0889  -30.4828  -48.3099 H         1 UNK         0.0716 
     76 H76        20.7543  -29.6867  -47.8517 H         1 UNK         0.0695 
     77 H77        20.1314  -29.6085  -46.2198 H         1 UNK         0.0695 
     78 H78        21.7376  -27.4246  -47.6292 H         1 UNK         0.0983 
     79 H79        19.9522  -27.1000  -45.4816 H         1 UNK         0.3095 
     80 H80        21.4077  -24.8299  -43.4879 H         1 UNK         0.0454 
     81 H81        21.4391  -23.0764  -45.2662 H         1 UNK         0.0851 
     82 H82        20.0445  -22.8812  -44.2201 H         1 UNK         0.0851 
     83 H83        19.8529  -23.5906  -45.8236 H         1 UNK         0.0851 
     84 H84        18.6374  -24.9895  -44.1625 H         1 UNK         0.2976 
     85 H85        22.0506  -28.3233  -44.2635 H         1 UNK         0.3116 
     86 H86        24.7855  -29.4110  -44.7524 H         1 UNK         0.0646 
     87 H87        24.4929  -30.6559  -42.5888 H         1 UNK         0.0847 
     88 H88        22.8054  -30.1536  -42.5170 H         1 UNK         0.0847 
     89 H89        23.3540  -31.2241  -43.7989 H         1 UNK         0.0847 
     90 H90        26.3253  -28.2089  -43.7036 H         1 UNK         0.3040 
     91 H91        25.7839  -25.5654  -43.0778 H         1 UNK         0.1015 
     92 H92        28.1900  -25.4780  -42.3787 H         1 UNK         0.0786 
     93 H93        27.9843  -26.3772  -43.8710 H         1 UNK         0.0786 
     94 H94        28.2536  -27.2347  -42.3524 H         1 UNK         0.0786 
     95 H95        25.9146  -28.2506  -40.8319 H         1 UNK         0.3172 
     96 H96        25.4447  -26.4366  -38.4911 H         1 UNK         0.0595 
     97 H97        26.4585  -29.3308  -38.5582 H         1 UNK         0.0839 
     98 H98        26.2801  -28.3222  -37.1297 H         1 UNK         0.0839 
     99 H99        27.4745  -27.9057  -38.3435 H         1 UNK         0.0839 
    100 H100       23.5388  -27.8018  -40.6885 H         1 UNK         0.2998 
    101 H101       21.5889  -28.8192  -40.8793 H         1 UNK         0.0822 
    102 H102       19.8398  -28.3709  -39.1765 H         1 UNK         0.0787 
    103 H103       21.0550  -27.8612  -38.0193 H         1 UNK         0.0787 
    104 H104       20.7878  -26.9289  -39.4939 H         1 UNK         0.0787 
    105 H105       23.7988  -30.4424  -40.0186 H         1 UNK         0.3055 
    106 H106       23.2915  -32.1873  -37.9312 H         1 UNK         0.1106 
    107 H107       25.5249  -31.8395  -38.9451 H         1 UNK         0.0828 
    108 H108       25.1363  -33.5495  -38.9477 H         1 UNK         0.0828 
    109 H109       25.0066  -32.6265  -40.4378 H         1 UNK         0.0828 
    110 H110       21.9546  -32.4132  -41.1561 H         1 UNK         0.2931 
    111 H111       21.1709  -35.2057  -40.8982 H         1 UNK         0.0412 
    112 H112       19.8486  -32.3943  -39.4163 H         1 UNK         0.3472 
    113 H113       18.2449  -33.0541  -39.2017 H         1 UNK         0.3472 
    114 H114       21.7365  -34.3826  -43.1113 H         1 UNK         0.0970 
    115 H115       20.1023  -34.9571  -43.0689 H         1 UNK         0.0970 
    116 H116       18.6445  -33.7414  -44.7686 H         1 UNK         0.0612 
    117 H117       17.9847  -33.4579  -43.1726 H         1 UNK         0.0612 
@<TRIPOS>BOND
     1    1    2 1    
     2    1   62 1    
     3    1   63 1    
     4    1   64 1    
     5    2    3 2    
     6    2    4 am   BACKBONE|DICT|INTERRES
     7    4    5 1    
     8    4   65 1    
     9    5    6 1    
    10    5   25 1    
    11    5   66 1    
    12    6    7 1    
    13    6   67 1    
    14    6   68 1    
    15    7    8 1    
    16    8    9 1    
    17    8   69 1    
    18    8   70 1    
    19    9   10 ar   
    20    9   14 ar   
    21   10   11 ar   
    22   10   71 1    
    23   11   12 ar   
    24   11   61 1    
    25   12   13 ar   
    26   12   72 1    
    27   13   14 ar   
    28   13   15 1    
    29   14   73 1    
    30   15   16 1    
    31   15   74 1    
    32   15   75 1    
    33   16   17 1    
    34   17   18 1    
    35   17   76 1    
    36   17   77 1    
    37   18   19 1    
    38   18   27 1    
    39   18   78 1    
    40   19   20 am   BACKBONE|DICT|INTERRES
    41   19   79 1    
    42   20   21 2    
    43   20   22 1    
    44   22   23 1    
    45   22   24 1    
    46   22   80 1    
    47   23   81 1    
    48   23   82 1    
    49   23   83 1    
    50   24   25 am   BACKBONE|DICT|INTERRES
    51   24   84 1    
    52   25   26 2    
    53   27   28 2    
    54   27   29 am   BACKBONE|DICT|INTERRES
    55   29   30 1    
    56   29   85 1    
    57   30   31 1    
    58   30   32 1    
    59   30   86 1    
    60   31   87 1    
    61   31   88 1    
    62   31   89 1    
    63   32   33 2    
    64   32   34 am   BACKBONE|DICT|INTERRES
    65   34   35 1    
    66   34   90 1    
    67   35   36 1    
    68   35   37 1    
    69   35   91 1    
    70   36   92 1    
    71   36   93 1    
    72   36   94 1    
    73   37   38 2    
    74   37   39 am   BACKBONE|DICT|INTERRES
    75   39   40 1    
    76   39   95 1    
    77   40   41 1    
    78   40   42 1    
    79   40   96 1    
    80   41   97 1    
    81   41   98 1    
    82   41   99 1    
    83   42   43 2    
    84   42   44 am   BACKBONE|DICT|INTERRES
    85   44   45 1    
    86   44  100 1    
    87   45   46 1    
    88   45   47 1    
    89   45  101 1    
    90   46  102 1    
    91   46  103 1    
    92   46  104 1    
    93   47   48 2    
    94   47   49 am   BACKBONE|DICT|INTERRES
    95   49   50 1    
    96   49  105 1    
    97   50   51 1    
    98   50   52 1    
    99   50  106 1    
   100   51  107 1    
   101   51  108 1    
   102   51  109 1    
   103   52   53 2    
   104   52   54 am   BACKBONE|DICT|INTERRES
   105   54   55 1    
   106   54  110 1    
   107   55   56 1    
   108   55   59 1    
   109   55  111 1    
   110   56   57 am   BACKBONE|DICT|INTERRES
   111   56   58 2    
   112   57  112 1    
   113   57  113 1    
   114   59   60 1    
   115   59  114 1    
   116   59  115 1    
   117   60   61 1    
   118   61  116 1    
   119   61  117 1    
@<TRIPOS>SUBSTRUCTURE
     1 UNK         1 GROUP             0       ****    0 ROOT    
