@<TRIPOS>MOLECULE
3R8
117   119    1
SMALL
USER_CHARGES


@<TRIPOS>ATOM
      1 CA         17.7752  -28.2366  -47.8452 C.3       0 UNK        -0.2013 
      2 C          16.7354  -27.1522  -47.5831 C.2       0 UNK         0.4866 
      3 O          16.1056  -26.6820  -48.5282 O.2       0 UNK        -0.5176 
      4 N          16.5165  -26.7113  -46.3371 N.am      1 UNK        -0.4884 
      5 CA         17.1844  -27.1414  -45.0972 C.3       1 UNK         0.0853 
      6 C6         16.1861  -27.8013  -44.1111 C.3       10 UNK        -0.0849 
      7 S7         15.6854  -29.4447  -44.7378 S.3       10 UNK        -0.2776 
      8 C8         16.3013  -30.6082  -43.4689 C.3       10 UNK         0.0316 
      9 C9         17.7161  -30.3180  -42.9747 C.ar      10 UNK        -0.0863 
     10 C10        17.9511  -30.2018  -41.6019 C.ar      10 UNK        -0.1009 
     11 C11        19.2384  -29.9585  -41.1181 C.ar      10 UNK        -0.0712 
     12 C12        20.2911  -29.7846  -42.0196 C.ar      10 UNK        -0.0894 
     13 C13        20.0730  -29.8873  -43.3959 C.ar      10 UNK        -0.0745 
     14 C14        18.7871  -30.1833  -43.8659 C.ar      10 UNK        -0.0972 
     15 C15        21.2350  -29.7001  -44.3636 C.3       10 UNK         0.0209 
     16 S16        20.8941  -28.3789  -45.5705 S.3       10 UNK        -0.2568 
     17 C17        22.4153  -27.3623  -45.5368 C.3       10 UNK        -0.0983 
     18 CA         22.2689  -26.0166  -44.7748 C.3       3 UNK         0.0876 
     19 N          21.0011  -25.3501  -45.0848 N.am      3 UNK        -0.4424 
     20 C          20.5915  -24.1468  -44.6601 C.2       2 UNK         0.4918 
     21 O          21.3130  -23.3447  -44.0676 O.2       2 UNK        -0.4875 
     22 CA         19.1133  -23.7855  -44.9187 C.3       2 UNK         0.0481 
     23 CB         19.0063  -22.7278  -46.0289 C.3       2 UNK        -0.1831 
     24 N          18.2639  -24.9338  -45.2668 N.am      2 UNK        -0.4498 
     25 C          17.9870  -25.9809  -44.4710 C.2       1 UNK         0.5027 
     26 O          18.3994  -26.0730  -43.3142 O.2       1 UNK        -0.4969 
     27 C          22.5125  -26.1737  -43.2575 C.2       3 UNK         0.5005 
     28 O          23.6564  -26.0132  -42.8311 O.2       3 UNK        -0.5279 
     29 N          21.4367  -26.4215  -42.4883 N.am      4 UNK        -0.4463 
     30 CA         21.3054  -26.3536  -41.0257 C.3       4 UNK         0.0283 
     31 CB         20.8790  -24.9252  -40.6284 C.3       4 UNK        -0.1875 
     32 C          22.5248  -26.8582  -40.2271 C.2       4 UNK         0.4949 
     33 O          22.6334  -28.0575  -39.9736 O.2       4 UNK        -0.5039 
     34 N          23.4294  -25.9352  -39.8665 N.am      5 UNK        -0.4663 
     35 CA         24.6701  -26.1693  -39.1185 C.3       5 UNK         0.0242 
     36 CB         25.3467  -24.8161  -38.8450 C.3       5 UNK        -0.1982 
     37 C          25.6639  -27.1433  -39.7821 C.2       5 UNK         0.5017 
     38 O          26.5315  -27.6696  -39.0843 O.2       5 UNK        -0.5012 
     39 N          25.5136  -27.3969  -41.0911 N.am      6 UNK        -0.4439 
     40 CA         26.2294  -28.4437  -41.8294 C.3       6 UNK         0.0297 
     41 CB         25.9913  -28.2511  -43.3353 C.3       6 UNK        -0.2006 
     42 C          25.8428  -29.8789  -41.4102 C.2       6 UNK         0.4892 
     43 O          26.5742  -30.8091  -41.7533 O.2       6 UNK        -0.5089 
     44 N          24.7244  -30.0305  -40.6830 N.am      7 UNK        -0.4243 
     45 CA         24.1403  -31.2784  -40.1868 C.3       7 UNK         0.0196 
     46 CB         25.1026  -32.0067  -39.2196 C.3       7 UNK        -0.2007 
     47 C          23.5950  -32.1597  -41.3268 C.2       7 UNK         0.5020 
     48 O          23.1920  -31.6274  -42.3621 O.2       7 UNK        -0.5147 
     49 N          23.5402  -33.4811  -41.0928 N.am      8 UNK        -0.4734 
     50 CA         22.8848  -34.5007  -41.9290 C.3       8 UNK         0.0238 
     51 CB         23.5873  -34.6409  -43.2972 C.3       8 UNK        -0.1912 
     52 C          21.3660  -34.2537  -42.0463 C.2       8 UNK         0.5038 
     53 O          20.7988  -34.3578  -43.1354 O.2       8 UNK        -0.5046 
     54 N          20.7524  -33.9058  -40.9073 N.am      9 UNK        -0.4200 
     55 CA         19.3553  -33.4630  -40.7821 C.3       9 UNK         0.0839 
     56 C          18.2787  -34.5606  -41.0218 C.2       9 UNK         0.5513 
     57 N          18.6303  -35.8396  -41.0781 N.am      9 UNK        -0.7519 
     58 O          17.0999  -34.2435  -41.1565 O.2       9 UNK        -0.4960 
     59 C59        19.1035  -32.7328  -39.4315 C.3       10 UNK        -0.0876 
     60 S60        20.3339  -31.4334  -39.0488 S.3       10 UNK        -0.2414 
     61 C61        19.4971  -29.9203  -39.6204 C.3       10 UNK         0.0169 
     62 H62        17.7526  -28.5422  -48.8910 H         1 UNK         0.0903 
     63 H63        18.7772  -27.8688  -47.6298 H         1 UNK         0.0903 
     64 H64        17.5816  -29.1224  -47.2411 H         1 UNK         0.0903 
     65 H65        15.8054  -26.0044  -46.2065 H         1 UNK         0.3096 
     66 H66        17.9533  -27.8811  -45.3143 H         1 UNK         0.1121 
     67 H67        16.6120  -27.9086  -43.1126 H         1 UNK         0.0849 
     68 H68        15.2968  -27.1812  -43.9878 H         1 UNK         0.0849 
     69 H69        15.5967  -30.5996  -42.6358 H         1 UNK         0.0865 
     70 H70        16.2732  -31.6197  -43.8760 H         1 UNK         0.0865 
     71 H71        17.1351  -30.3284  -40.9038 H         1 UNK         0.1346 
     72 H72        21.2875  -29.5958  -41.6439 H         1 UNK         0.1412 
     73 H73        18.6156  -30.2857  -44.9285 H         1 UNK         0.1426 
     74 H74        21.4158  -30.6359  -44.8939 H         1 UNK         0.0716 
     75 H75        22.1514  -29.4759  -43.8155 H         1 UNK         0.0716 
     76 H76        23.2585  -27.9476  -45.1680 H         1 UNK         0.0695 
     77 H77        22.6608  -27.1445  -46.5773 H         1 UNK         0.0695 
     78 H78        23.0587  -25.3522  -45.1323 H         1 UNK         0.0983 
     79 H79        20.3358  -25.9237  -45.5806 H         1 UNK         0.3095 
     80 H80        18.7220  -23.3533  -43.9956 H         1 UNK         0.0454 
     81 H81        19.5980  -21.8441  -45.7854 H         1 UNK         0.0851 
     82 H82        19.3675  -23.1072  -46.9855 H         1 UNK         0.0851 
     83 H83        17.9768  -22.3960  -46.1647 H         1 UNK         0.0851 
     84 H84        17.8892  -24.9491  -46.2052 H         1 UNK         0.2976 
     85 H85        20.5564  -26.5587  -42.9717 H         1 UNK         0.3116 
     86 H86        20.4797  -27.0178  -40.7674 H         1 UNK         0.0646 
     87 H87        20.7997  -24.8195  -39.5454 H         1 UNK         0.0847 
     88 H88        19.9003  -24.6844  -41.0447 H         1 UNK         0.0847 
     89 H89        21.5786  -24.1706  -40.9897 H         1 UNK         0.0847 
     90 H90        23.2686  -24.9862  -40.1715 H         1 UNK         0.3040 
     91 H91        24.3900  -26.6133  -38.1609 H         1 UNK         0.1015 
     92 H92        24.6935  -24.1512  -38.2794 H         1 UNK         0.0786 
     93 H93        25.6233  -24.3104  -39.7712 H         1 UNK         0.0786 
     94 H94        26.2583  -24.9448  -38.2593 H         1 UNK         0.0786 
     95 H95        24.7916  -26.8905  -41.6021 H         1 UNK         0.3172 
     96 H96        27.2964  -28.3207  -41.6335 H         1 UNK         0.0595 
     97 H97        26.5844  -28.9570  -43.9182 H         1 UNK         0.0839 
     98 H98        26.2672  -27.2477  -43.6603 H         1 UNK         0.0839 
     99 H99        24.9455  -28.4148  -43.5941 H         1 UNK         0.0839 
    100 H100       24.1624  -29.2041  -40.4996 H         1 UNK         0.2998 
    101 H101       23.2685  -30.9711  -39.6079 H         1 UNK         0.0822 
    102 H102       25.5186  -31.3150  -38.4867 H         1 UNK         0.0787 
    103 H103       24.5885  -32.7869  -38.6577 H         1 UNK         0.0787 
    104 H104       25.9371  -32.4712  -39.7463 H         1 UNK         0.0787 
    105 H105       23.9167  -33.8130  -40.2153 H         1 UNK         0.3055 
    106 H106       22.9964  -35.4526  -41.4070 H         1 UNK         0.1106 
    107 H107       23.4577  -33.7522  -43.9154 H         1 UNK         0.0828 
    108 H108       24.6567  -34.8139  -43.1787 H         1 UNK         0.0828 
    109 H109       23.1826  -35.4846  -43.8575 H         1 UNK         0.0828 
    110 H110       21.3050  -33.8373  -40.0665 H         1 UNK         0.2931 
    111 H111       19.2030  -32.7361  -41.5806 H         1 UNK         0.0412 
    112 H112       19.5953  -36.1089  -40.9748 H         1 UNK         0.3472 
    113 H113       17.9232  -36.5408  -41.2355 H         1 UNK         0.3472 
    114 H114       18.1052  -32.2918  -39.4154 H         1 UNK         0.0970 
    115 H115       19.1220  -33.4517  -38.6104 H         1 UNK         0.0970 
    116 H116       20.1223  -29.0603  -39.3793 H         1 UNK         0.0612 
    117 H117       18.5670  -29.7892  -39.0654 H         1 UNK         0.0612 
@<TRIPOS>BOND
     1    1    2 1    
     2    1   62 1    
     3    1   63 1    
     4    1   64 1    
     5    2    3 2    
     6    2    4 am   BACKBONE|DICT|INTERRES
     7    4    5 1    
     8    4   65 1    
     9    5    6 1    
    10    5   25 1    
    11    5   66 1    
    12    6    7 1    
    13    6   67 1    
    14    6   68 1    
    15    7    8 1    
    16    8    9 1    
    17    8   69 1    
    18    8   70 1    
    19    9   10 ar   
    20    9   14 ar   
    21   10   11 ar   
    22   10   71 1    
    23   11   12 ar   
    24   11   61 1    
    25   12   13 ar   
    26   12   72 1    
    27   13   14 ar   
    28   13   15 1    
    29   14   73 1    
    30   15   16 1    
    31   15   74 1    
    32   15   75 1    
    33   16   17 1    
    34   17   18 1    
    35   17   76 1    
    36   17   77 1    
    37   18   19 1    
    38   18   27 1    
    39   18   78 1    
    40   19   20 am   BACKBONE|DICT|INTERRES
    41   19   79 1    
    42   20   21 2    
    43   20   22 1    
    44   22   23 1    
    45   22   24 1    
    46   22   80 1    
    47   23   81 1    
    48   23   82 1    
    49   23   83 1    
    50   24   25 am   BACKBONE|DICT|INTERRES
    51   24   84 1    
    52   25   26 2    
    53   27   28 2    
    54   27   29 am   BACKBONE|DICT|INTERRES
    55   29   30 1    
    56   29   85 1    
    57   30   31 1    
    58   30   32 1    
    59   30   86 1    
    60   31   87 1    
    61   31   88 1    
    62   31   89 1    
    63   32   33 2    
    64   32   34 am   BACKBONE|DICT|INTERRES
    65   34   35 1    
    66   34   90 1    
    67   35   36 1    
    68   35   37 1    
    69   35   91 1    
    70   36   92 1    
    71   36   93 1    
    72   36   94 1    
    73   37   38 2    
    74   37   39 am   BACKBONE|DICT|INTERRES
    75   39   40 1    
    76   39   95 1    
    77   40   41 1    
    78   40   42 1    
    79   40   96 1    
    80   41   97 1    
    81   41   98 1    
    82   41   99 1    
    83   42   43 2    
    84   42   44 am   BACKBONE|DICT|INTERRES
    85   44   45 1    
    86   44  100 1    
    87   45   46 1    
    88   45   47 1    
    89   45  101 1    
    90   46  102 1    
    91   46  103 1    
    92   46  104 1    
    93   47   48 2    
    94   47   49 am   BACKBONE|DICT|INTERRES
    95   49   50 1    
    96   49  105 1    
    97   50   51 1    
    98   50   52 1    
    99   50  106 1    
   100   51  107 1    
   101   51  108 1    
   102   51  109 1    
   103   52   53 2    
   104   52   54 am   BACKBONE|DICT|INTERRES
   105   54   55 1    
   106   54  110 1    
   107   55   56 1    
   108   55   59 1    
   109   55  111 1    
   110   56   57 am   BACKBONE|DICT|INTERRES
   111   56   58 2    
   112   57  112 1    
   113   57  113 1    
   114   59   60 1    
   115   59  114 1    
   116   59  115 1    
   117   60   61 1    
   118   61  116 1    
   119   61  117 1    
@<TRIPOS>SUBSTRUCTURE
     1 UNK         1 GROUP             0       ****    0 ROOT    
