@<TRIPOS>MOLECULE
3R8
117   119    1
SMALL
USER_CHARGES


@<TRIPOS>ATOM
      1 CA         14.8752  -22.8109  -44.5947 C.3       0 UNK        -0.2013 
      2 C          15.9139  -23.9050  -44.7886 C.2       0 UNK         0.4866 
      3 O          16.6201  -23.9099  -45.7984 O.2       0 UNK        -0.5176 
      4 N          16.0189  -24.8341  -43.8300 N.am      1 UNK        -0.4884 
      5 CA         16.9624  -25.9573  -43.8410 C.3       1 UNK         0.0853 
      6 C6         16.4812  -27.1316  -42.9508 C.3       10 UNK        -0.0849 
      7 S7         14.9782  -27.9109  -43.6294 S.3       10 UNK        -0.2776 
      8 C8         15.1542  -29.6308  -43.0342 C.3       10 UNK         0.0316 
      9 C9         16.2231  -30.4941  -43.7144 C.ar      10 UNK        -0.0863 
     10 C10        16.4539  -31.7720  -43.1934 C.ar      10 UNK        -0.1009 
     11 C11        17.3958  -32.6278  -43.7707 C.ar      10 UNK        -0.0712 
     12 C12        18.1294  -32.1914  -44.8758 C.ar      10 UNK        -0.0894 
     13 C13        17.9290  -30.9134  -45.4035 C.ar      10 UNK        -0.0745 
     14 C14        16.9616  -30.0775  -44.8324 C.ar      10 UNK        -0.0972 
     15 C15        18.7568  -30.4556  -46.6002 C.3       10 UNK         0.0209 
     16 S16        19.6235  -28.8753  -46.3218 S.3       10 UNK        -0.2568 
     17 C17        20.5281  -29.2019  -44.7674 C.3       10 UNK        -0.0983 
     18 CA         21.5285  -28.0821  -44.3746 C.3       3 UNK         0.0876 
     19 N          20.9417  -26.7538  -44.5732 N.am      3 UNK        -0.4424 
     20 C          21.4294  -25.5520  -44.2364 C.2       2 UNK         0.4918 
     21 O          22.5608  -25.3668  -43.7889 O.2       2 UNK        -0.4875 
     22 CA         20.4472  -24.3672  -44.3499 C.3       2 UNK         0.0481 
     23 CB         20.7738  -23.5167  -45.5866 C.3       2 UNK        -0.1831 
     24 N          19.0328  -24.7719  -44.3995 N.am      2 UNK        -0.4498 
     25 C          18.3819  -25.4846  -43.4666 C.2       1 UNK         0.5027 
     26 O          18.8808  -25.8041  -42.3850 O.2       1 UNK        -0.4969 
     27 C          22.0289  -28.3196  -42.9316 C.2       3 UNK         0.5005 
     28 O          22.9928  -29.0605  -42.7452 O.2       3 UNK        -0.5279 
     29 N          21.4103  -27.6463  -41.9458 N.am      4 UNK        -0.4463 
     30 CA         21.8004  -27.6299  -40.5326 C.3       4 UNK         0.0283 
     31 CB         20.7895  -26.7853  -39.7424 C.3       4 UNK        -0.1875 
     32 C          23.2379  -27.1465  -40.2619 C.2       4 UNK         0.4949 
     33 O          23.7859  -27.4737  -39.2097 O.2       4 UNK        -0.5039 
     34 N          23.8423  -26.4144  -41.2112 N.am      5 UNK        -0.4663 
     35 CA         25.2656  -26.0627  -41.2019 C.3       5 UNK         0.0242 
     36 CB         25.5427  -25.0383  -42.3131 C.3       5 UNK        -0.1982 
     37 C          26.1927  -27.2851  -41.3540 C.2       5 UNK         0.5017 
     38 O          27.3287  -27.2361  -40.8818 O.2       5 UNK        -0.5012 
     39 N          25.6923  -28.3623  -41.9750 N.am      6 UNK        -0.4439 
     40 CA         26.3486  -29.6607  -42.0898 C.3       6 UNK         0.0297 
     41 CB         26.2430  -30.1493  -43.5453 C.3       6 UNK        -0.2006 
     42 C          25.6955  -30.6196  -41.0824 C.2       6 UNK         0.4892 
     43 O          25.0178  -31.5742  -41.4724 O.2       6 UNK        -0.5089 
     44 N          25.8861  -30.3078  -39.7927 N.am      7 UNK        -0.4243 
     45 CA         25.4227  -31.0061  -38.5849 C.3       7 UNK         0.0196 
     46 CB         26.0019  -32.4324  -38.5049 C.3       7 UNK        -0.2007 
     47 C          23.8971  -31.0202  -38.3770 C.2       7 UNK         0.5020 
     48 O          23.4427  -30.7194  -37.2727 O.2       7 UNK        -0.5147 
     49 N          23.1383  -31.3784  -39.4160 N.am      8 UNK        -0.4734 
     50 CA         21.6794  -31.4755  -39.4077 C.3       8 UNK         0.0238 
     51 CB         21.2078  -32.7024  -38.6003 C.3       8 UNK        -0.1912 
     52 C          21.1216  -31.5249  -40.8332 C.2       8 UNK         0.5038 
     53 O          20.1869  -30.7822  -41.1326 O.2       8 UNK        -0.5046 
     54 N          21.6854  -32.4119  -41.6639 N.am      9 UNK        -0.4200 
     55 CA         21.1822  -32.7405  -43.0077 C.3       9 UNK         0.0839 
     56 C          22.2734  -32.7079  -44.1137 C.2       9 UNK         0.5513 
     57 N          23.5263  -32.3818  -43.8272 N.am      9 UNK        -0.7519 
     58 O          21.9718  -32.9747  -45.2739 O.2       9 UNK        -0.4960 
     59 C59        20.4223  -34.0979  -43.0142 C.3       10 UNK        -0.0876 
     60 S60        18.9217  -34.1042  -41.9719 S.3       10 UNK        -0.2414 
     61 C61        17.5947  -34.0323  -43.2168 C.3       10 UNK         0.0169 
     62 H62        14.1605  -22.8230  -45.4172 H         1 UNK         0.0903 
     63 H63        14.3224  -22.9332  -43.6634 H         1 UNK         0.0903 
     64 H64        15.3582  -21.8343  -44.5771 H         1 UNK         0.0903 
     65 H65        15.4200  -24.7785  -43.0180 H         1 UNK         0.3096 
     66 H66        17.0278  -26.3398  -44.8629 H         1 UNK         0.1121 
     67 H67        16.2825  -26.7959  -41.9313 H         1 UNK         0.0849 
     68 H68        17.2588  -27.8948  -42.8736 H         1 UNK         0.0849 
     69 H69        14.1902  -30.1256  -43.1608 H         1 UNK         0.0865 
     70 H70        15.3437  -29.6055  -41.9599 H         1 UNK         0.0865 
     71 H71        15.8871  -32.1102  -42.3363 H         1 UNK         0.1346 
     72 H72        18.8606  -32.8486  -45.3256 H         1 UNK         0.1412 
     73 H73        16.8024  -29.1002  -45.2640 H         1 UNK         0.1426 
     74 H74        18.1001  -30.3497  -47.4644 H         1 UNK         0.0716 
     75 H75        19.4994  -31.2091  -46.8682 H         1 UNK         0.0716 
     76 H76        21.0562  -30.1499  -44.8717 H         1 UNK         0.0695 
     77 H77        19.7859  -29.3477  -43.9790 H         1 UNK         0.0695 
     78 H78        22.3968  -28.1439  -45.0335 H         1 UNK         0.0983 
     79 H79        20.0192  -26.7724  -44.9813 H         1 UNK         0.3095 
     80 H80        20.5811  -23.7485  -43.4605 H         1 UNK         0.0454 
     81 H81        20.6360  -24.0786  -46.5113 H         1 UNK         0.0851 
     82 H82        21.8099  -23.1756  -45.5636 H         1 UNK         0.0851 
     83 H83        20.1436  -22.6285  -45.6359 H         1 UNK         0.0851 
     84 H84        18.5027  -24.4935  -45.2199 H         1 UNK         0.2976 
     85 H85        20.6199  -27.0604  -42.1920 H         1 UNK         0.3116 
     86 H86        21.7435  -28.6557  -40.1719 H         1 UNK         0.0646 
     87 H87        19.7790  -27.1826  -39.8403 H         1 UNK         0.0847 
     88 H88        20.7764  -25.7496  -40.0843 H         1 UNK         0.0847 
     89 H89        21.0318  -26.7766  -38.6787 H         1 UNK         0.0847 
     90 H90        23.3188  -26.1621  -42.0438 H         1 UNK         0.3040 
     91 H91        25.4921  -25.5981  -40.2397 H         1 UNK         0.1015 
     92 H92        26.5867  -24.7220  -42.3019 H         1 UNK         0.0786 
     93 H93        24.9314  -24.1439  -42.1905 H         1 UNK         0.0786 
     94 H94        25.3368  -25.4509  -43.3018 H         1 UNK         0.0786 
     95 H95        24.7163  -28.3529  -42.2641 H         1 UNK         0.3172 
     96 H96        27.4085  -29.5879  -41.8377 H         1 UNK         0.0595 
     97 H97        25.2085  -30.1813  -43.8868 H         1 UNK         0.0839 
     98 H98        26.6587  -31.1518  -43.6545 H         1 UNK         0.0839 
     99 H99        26.7933  -29.4940  -44.2203 H         1 UNK         0.0839 
    100 H100       26.4074  -29.4605  -39.6102 H         1 UNK         0.2998 
    101 H101       25.8395  -30.4411  -37.7493 H         1 UNK         0.0822 
    102 H102       27.0907  -32.4212  -38.5545 H         1 UNK         0.0787 
    103 H103       25.7253  -32.9117  -37.5648 H         1 UNK         0.0787 
    104 H104       25.6364  -33.0690  -39.3112 H         1 UNK         0.0787 
    105 H105       23.6166  -31.5387  -40.3010 H         1 UNK         0.3055 
    106 H106       21.2776  -30.5795  -38.9299 H         1 UNK         0.1106 
    107 H107       20.1234  -32.8107  -38.6540 H         1 UNK         0.0828 
    108 H108       21.4679  -32.6135  -37.5457 H         1 UNK         0.0828 
    109 H109       21.6462  -33.6275  -38.9756 H         1 UNK         0.0828 
    110 H110       22.4557  -32.9757  -41.3366 H         1 UNK         0.2931 
    111 H111       20.4755  -31.9683  -43.3135 H         1 UNK         0.0412 
    112 H112       23.8191  -32.0950  -42.8993 H         1 UNK         0.3472 
    113 H113       24.1997  -32.3757  -44.5754 H         1 UNK         0.3472 
    114 H114       20.1424  -34.3870  -44.0281 H         1 UNK         0.0970 
    115 H115       21.0804  -34.8929  -42.6596 H         1 UNK         0.0970 
    116 H116       17.8013  -34.7358  -44.0247 H         1 UNK         0.0612 
    117 H117       16.6698  -34.3769  -42.7519 H         1 UNK         0.0612 
@<TRIPOS>BOND
     1    1    2 1    
     2    1   62 1    
     3    1   63 1    
     4    1   64 1    
     5    2    3 2    
     6    2    4 am   BACKBONE|DICT|INTERRES
     7    4    5 1    
     8    4   65 1    
     9    5    6 1    
    10    5   25 1    
    11    5   66 1    
    12    6    7 1    
    13    6   67 1    
    14    6   68 1    
    15    7    8 1    
    16    8    9 1    
    17    8   69 1    
    18    8   70 1    
    19    9   10 ar   
    20    9   14 ar   
    21   10   11 ar   
    22   10   71 1    
    23   11   12 ar   
    24   11   61 1    
    25   12   13 ar   
    26   12   72 1    
    27   13   14 ar   
    28   13   15 1    
    29   14   73 1    
    30   15   16 1    
    31   15   74 1    
    32   15   75 1    
    33   16   17 1    
    34   17   18 1    
    35   17   76 1    
    36   17   77 1    
    37   18   19 1    
    38   18   27 1    
    39   18   78 1    
    40   19   20 am   BACKBONE|DICT|INTERRES
    41   19   79 1    
    42   20   21 2    
    43   20   22 1    
    44   22   23 1    
    45   22   24 1    
    46   22   80 1    
    47   23   81 1    
    48   23   82 1    
    49   23   83 1    
    50   24   25 am   BACKBONE|DICT|INTERRES
    51   24   84 1    
    52   25   26 2    
    53   27   28 2    
    54   27   29 am   BACKBONE|DICT|INTERRES
    55   29   30 1    
    56   29   85 1    
    57   30   31 1    
    58   30   32 1    
    59   30   86 1    
    60   31   87 1    
    61   31   88 1    
    62   31   89 1    
    63   32   33 2    
    64   32   34 am   BACKBONE|DICT|INTERRES
    65   34   35 1    
    66   34   90 1    
    67   35   36 1    
    68   35   37 1    
    69   35   91 1    
    70   36   92 1    
    71   36   93 1    
    72   36   94 1    
    73   37   38 2    
    74   37   39 am   BACKBONE|DICT|INTERRES
    75   39   40 1    
    76   39   95 1    
    77   40   41 1    
    78   40   42 1    
    79   40   96 1    
    80   41   97 1    
    81   41   98 1    
    82   41   99 1    
    83   42   43 2    
    84   42   44 am   BACKBONE|DICT|INTERRES
    85   44   45 1    
    86   44  100 1    
    87   45   46 1    
    88   45   47 1    
    89   45  101 1    
    90   46  102 1    
    91   46  103 1    
    92   46  104 1    
    93   47   48 2    
    94   47   49 am   BACKBONE|DICT|INTERRES
    95   49   50 1    
    96   49  105 1    
    97   50   51 1    
    98   50   52 1    
    99   50  106 1    
   100   51  107 1    
   101   51  108 1    
   102   51  109 1    
   103   52   53 2    
   104   52   54 am   BACKBONE|DICT|INTERRES
   105   54   55 1    
   106   54  110 1    
   107   55   56 1    
   108   55   59 1    
   109   55  111 1    
   110   56   57 am   BACKBONE|DICT|INTERRES
   111   56   58 2    
   112   57  112 1    
   113   57  113 1    
   114   59   60 1    
   115   59  114 1    
   116   59  115 1    
   117   60   61 1    
   118   61  116 1    
   119   61  117 1    
@<TRIPOS>SUBSTRUCTURE
     1 UNK         1 GROUP             0       ****    0 ROOT    
