@<TRIPOS>MOLECULE
3R8
117   119    1
SMALL
USER_CHARGES


@<TRIPOS>ATOM
      1 CA         18.7416  -27.4438  -41.3777 C.3       0 UNK        -0.2013 
      2 C          18.3185  -26.8176  -42.6964 C.2       0 UNK         0.4866 
      3 O          19.0446  -26.9203  -43.6852 O.2       0 UNK        -0.5176 
      4 N          17.1559  -26.1515  -42.7050 N.am      1 UNK        -0.4884 
      5 CA         16.5275  -25.5019  -43.8661 C.3       1 UNK         0.0853 
      6 C6         15.9794  -26.5205  -44.9094 C.3       10 UNK        -0.0849 
      7 S7         14.8580  -27.7602  -44.1752 S.3       10 UNK        -0.2776 
      8 C8         15.1864  -29.2224  -45.2149 C.3       10 UNK         0.0316 
      9 C9         16.6161  -29.7328  -45.0803 C.ar      10 UNK        -0.0863 
     10 C10        17.0473  -30.3117  -43.8835 C.ar      10 UNK        -0.1009 
     11 C11        18.3519  -30.7993  -43.7565 C.ar      10 UNK        -0.0712 
     12 C12        19.2289  -30.7023  -44.8430 C.ar      10 UNK        -0.0894 
     13 C13        18.8121  -30.1205  -46.0452 C.ar      10 UNK        -0.0745 
     14 C14        17.5021  -29.6451  -46.1589 C.ar      10 UNK        -0.0972 
     15 C15        19.7647  -30.0331  -47.2320 C.3       10 UNK         0.0209 
     16 S16        20.1348  -28.3148  -47.7163 S.3       10 UNK        -0.2568 
     17 C17        21.1431  -27.7559  -46.3054 C.3       10 UNK        -0.0983 
     18 CA         21.3456  -26.2187  -46.2849 C.3       3 UNK         0.0876 
     19 N          20.0795  -25.4800  -46.2815 N.am      3 UNK        -0.4424 
     20 C          19.9510  -24.1801  -46.5865 C.2       2 UNK         0.4918 
     21 O          20.8954  -23.4609  -46.9138 O.2       2 UNK        -0.4875 
     22 CA         18.5350  -23.5718  -46.5501 C.3       2 UNK         0.0481 
     23 CB         18.0114  -23.3567  -47.9797 C.3       2 UNK        -0.1831 
     24 N          17.5772  -24.3988  -45.8137 N.am      2 UNK        -0.4498 
     25 C          17.4630  -24.4292  -44.4781 C.2       1 UNK         0.5027 
     26 O          18.0745  -23.6627  -43.7296 O.2       1 UNK        -0.4969 
     27 C          22.2221  -25.8135  -45.0866 C.2       3 UNK         0.5005 
     28 O          23.4169  -25.5699  -45.2614 O.2       3 UNK        -0.5279 
     29 N          21.6020  -25.7640  -43.8960 N.am      4 UNK        -0.4463 
     30 CA         22.1981  -25.4770  -42.5837 C.3       4 UNK         0.0283 
     31 CB         22.7058  -24.0220  -42.5150 C.3       4 UNK        -0.1875 
     32 C          23.2718  -26.5029  -42.1644 C.2       4 UNK         0.4949 
     33 O          24.1646  -26.1800  -41.3784 O.2       4 UNK        -0.5039 
     34 N          23.1648  -27.7324  -42.6848 N.am      5 UNK        -0.4663 
     35 CA         24.1056  -28.8344  -42.4855 C.3       5 UNK         0.0242 
     36 CB         23.9780  -29.8040  -43.6765 C.3       5 UNK        -0.1982 
     37 C          23.8775  -29.5316  -41.1340 C.2       5 UNK         0.5017 
     38 O          23.5736  -30.7233  -41.1061 O.2       5 UNK        -0.5012 
     39 N          24.0170  -28.7776  -40.0350 N.am      6 UNK        -0.4439 
     40 CA         23.7131  -29.1800  -38.6542 C.3       6 UNK         0.0297 
     41 CB         24.1019  -28.0419  -37.6979 C.3       6 UNK        -0.2006 
     42 C          24.3462  -30.5068  -38.1934 C.2       6 UNK         0.4892 
     43 O          23.7154  -31.2391  -37.4312 O.2       6 UNK        -0.5089 
     44 N          25.5536  -30.8108  -38.6897 N.am      7 UNK        -0.4243 
     45 CA         26.2634  -32.0700  -38.4456 C.3       7 UNK         0.0196 
     46 CB         27.7073  -31.9405  -38.9571 C.3       7 UNK        -0.2007 
     47 C          25.5807  -33.3022  -39.0716 C.2       7 UNK         0.5020 
     48 O          25.7547  -34.4063  -38.5549 O.2       7 UNK        -0.5147 
     49 N          24.8273  -33.1023  -40.1609 N.am      8 UNK        -0.4734 
     50 CA         24.0369  -34.1359  -40.8301 C.3       8 UNK         0.0238 
     51 CB         24.1126  -33.9336  -42.3532 C.3       8 UNK        -0.1912 
     52 C          22.5768  -34.1068  -40.3558 C.2       8 UNK         0.5038 
     53 O          21.9968  -35.1719  -40.1399 O.2       8 UNK        -0.5046 
     54 N          22.0112  -32.9004  -40.2094 N.am      9 UNK        -0.4200 
     55 CA         20.6301  -32.6716  -39.7601 C.3       9 UNK         0.0839 
     56 C          20.3642  -33.0768  -38.2835 C.2       9 UNK         0.5513 
     57 N          21.3345  -32.9727  -37.3837 N.am      9 UNK        -0.7519 
     58 O          19.2574  -33.4935  -37.9519 O.2       9 UNK        -0.4960 
     59 C59        20.1611  -31.2145  -40.0093 C.3       10 UNK        -0.0876 
     60 S60        20.2795  -30.6827  -41.7507 S.3       10 UNK        -0.2414 
     61 C61        18.7916  -31.4582  -42.4549 C.3       10 UNK         0.0169 
     62 H62        18.2859  -28.4278  -41.2723 H         1 UNK         0.0903 
     63 H63        19.8238  -27.5656  -41.3400 H         1 UNK         0.0903 
     64 H64        18.4401  -26.8294  -40.5298 H         1 UNK         0.0903 
     65 H65        16.6278  -26.0845  -41.8463 H         1 UNK         0.3096 
     66 H66        15.6739  -24.9464  -43.4740 H         1 UNK         0.1121 
     67 H67        15.4171  -26.0100  -45.6933 H         1 UNK         0.0849 
     68 H68        16.8081  -27.0324  -45.3996 H         1 UNK         0.0849 
     69 H69        14.4972  -30.0185  -44.9297 H         1 UNK         0.0865 
     70 H70        14.9553  -28.9801  -46.2534 H         1 UNK         0.0865 
     71 H71        16.3598  -30.3831  -43.0517 H         1 UNK         0.1346 
     72 H72        20.2368  -31.0824  -44.7480 H         1 UNK         0.1412 
     73 H73        17.1774  -29.2027  -47.0909 H         1 UNK         0.1426 
     74 H74        19.3144  -30.5466  -48.0825 H         1 UNK         0.0716 
     75 H75        20.7008  -30.5531  -47.0219 H         1 UNK         0.0716 
     76 H76        20.6677  -28.0954  -45.3840 H         1 UNK         0.0695 
     77 H77        22.1066  -28.2666  -46.3584 H         1 UNK         0.0695 
     78 H78        21.8888  -25.9422  -47.1916 H         1 UNK         0.0983 
     79 H79        19.2672  -26.0010  -45.9841 H         1 UNK         0.3095 
     80 H80        18.6070  -22.5953  -46.0665 H         1 UNK         0.0454 
     81 H81        18.6831  -22.7121  -48.5484 H         1 UNK         0.0851 
     82 H82        17.9246  -24.2970  -48.5257 H         1 UNK         0.0851 
     83 H83        17.0326  -22.8769  -47.9768 H         1 UNK         0.0851 
     84 H84        17.0279  -25.0436  -46.3632 H         1 UNK         0.2976 
     85 H85        20.6204  -26.0437  -43.8754 H         1 UNK         0.3116 
     86 H86        21.3893  -25.5757  -41.8588 H         1 UNK         0.0646 
     87 H87        23.0129  -23.7616  -41.5014 H         1 UNK         0.0847 
     88 H88        21.9277  -23.3168  -42.8075 H         1 UNK         0.0847 
     89 H89        23.5663  -23.8617  -43.1651 H         1 UNK         0.0847 
     90 H90        22.3690  -27.9251  -43.2751 H         1 UNK         0.3040 
     91 H91        25.1235  -28.4382  -42.4815 H         1 UNK         0.1015 
     92 H92        24.1806  -29.3005  -44.6219 H         1 UNK         0.0786 
     93 H93        22.9802  -30.2418  -43.7359 H         1 UNK         0.0786 
     94 H94        24.6899  -30.6260  -43.5896 H         1 UNK         0.0786 
     95 H95        24.2448  -27.7992  -40.1868 H         1 UNK         0.3172 
     96 H96        22.6312  -29.3080  -38.5974 H         1 UNK         0.0595 
     97 H97        23.5634  -27.1234  -37.9326 H         1 UNK         0.0839 
     98 H98        25.1701  -27.8255  -37.7413 H         1 UNK         0.0839 
     99 H99        23.8629  -28.2997  -36.6650 H         1 UNK         0.0839 
    100 H100       25.9929  -30.1498  -39.3136 H         1 UNK         0.2998 
    101 H101       26.2957  -32.2305  -37.3657 H         1 UNK         0.0822 
    102 H102       28.2334  -31.1246  -38.4610 H         1 UNK         0.0787 
    103 H103       28.2729  -32.8532  -38.7635 H         1 UNK         0.0787 
    104 H104       27.7400  -31.7591  -40.0322 H         1 UNK         0.0787 
    105 H105       24.6804  -32.1513  -40.4869 H         1 UNK         0.3055 
    106 H106       24.4429  -35.1238  -40.6005 H         1 UNK         0.1106 
    107 H107       23.7023  -32.9701  -42.6582 H         1 UNK         0.0828 
    108 H108       25.1417  -33.9861  -42.7084 H         1 UNK         0.0828 
    109 H109       23.5490  -34.7070  -42.8766 H         1 UNK         0.0828 
    110 H110       22.5454  -32.0729  -40.4628 H         1 UNK         0.2931 
    111 H111       19.9970  -33.3188  -40.3703 H         1 UNK         0.0412 
    112 H112       21.1497  -33.2434  -36.4311 H         1 UNK         0.3472 
    113 H113       22.2279  -32.5533  -37.6187 H         1 UNK         0.3472 
    114 H114       20.7586  -30.5244  -39.4125 H         1 UNK         0.0970 
    115 H115       19.1309  -31.0772  -39.6753 H         1 UNK         0.0970 
    116 H116       17.9850  -31.4172  -41.7216 H         1 UNK         0.0612 
    117 H117       18.9933  -32.5145  -42.6368 H         1 UNK         0.0612 
@<TRIPOS>BOND
     1    1    2 1    
     2    1   62 1    
     3    1   63 1    
     4    1   64 1    
     5    2    3 2    
     6    2    4 am   BACKBONE|DICT|INTERRES
     7    4    5 1    
     8    4   65 1    
     9    5    6 1    
    10    5   25 1    
    11    5   66 1    
    12    6    7 1    
    13    6   67 1    
    14    6   68 1    
    15    7    8 1    
    16    8    9 1    
    17    8   69 1    
    18    8   70 1    
    19    9   10 ar   
    20    9   14 ar   
    21   10   11 ar   
    22   10   71 1    
    23   11   12 ar   
    24   11   61 1    
    25   12   13 ar   
    26   12   72 1    
    27   13   14 ar   
    28   13   15 1    
    29   14   73 1    
    30   15   16 1    
    31   15   74 1    
    32   15   75 1    
    33   16   17 1    
    34   17   18 1    
    35   17   76 1    
    36   17   77 1    
    37   18   19 1    
    38   18   27 1    
    39   18   78 1    
    40   19   20 am   BACKBONE|DICT|INTERRES
    41   19   79 1    
    42   20   21 2    
    43   20   22 1    
    44   22   23 1    
    45   22   24 1    
    46   22   80 1    
    47   23   81 1    
    48   23   82 1    
    49   23   83 1    
    50   24   25 am   BACKBONE|DICT|INTERRES
    51   24   84 1    
    52   25   26 2    
    53   27   28 2    
    54   27   29 am   BACKBONE|DICT|INTERRES
    55   29   30 1    
    56   29   85 1    
    57   30   31 1    
    58   30   32 1    
    59   30   86 1    
    60   31   87 1    
    61   31   88 1    
    62   31   89 1    
    63   32   33 2    
    64   32   34 am   BACKBONE|DICT|INTERRES
    65   34   35 1    
    66   34   90 1    
    67   35   36 1    
    68   35   37 1    
    69   35   91 1    
    70   36   92 1    
    71   36   93 1    
    72   36   94 1    
    73   37   38 2    
    74   37   39 am   BACKBONE|DICT|INTERRES
    75   39   40 1    
    76   39   95 1    
    77   40   41 1    
    78   40   42 1    
    79   40   96 1    
    80   41   97 1    
    81   41   98 1    
    82   41   99 1    
    83   42   43 2    
    84   42   44 am   BACKBONE|DICT|INTERRES
    85   44   45 1    
    86   44  100 1    
    87   45   46 1    
    88   45   47 1    
    89   45  101 1    
    90   46  102 1    
    91   46  103 1    
    92   46  104 1    
    93   47   48 2    
    94   47   49 am   BACKBONE|DICT|INTERRES
    95   49   50 1    
    96   49  105 1    
    97   50   51 1    
    98   50   52 1    
    99   50  106 1    
   100   51  107 1    
   101   51  108 1    
   102   51  109 1    
   103   52   53 2    
   104   52   54 am   BACKBONE|DICT|INTERRES
   105   54   55 1    
   106   54  110 1    
   107   55   56 1    
   108   55   59 1    
   109   55  111 1    
   110   56   57 am   BACKBONE|DICT|INTERRES
   111   56   58 2    
   112   57  112 1    
   113   57  113 1    
   114   59   60 1    
   115   59  114 1    
   116   59  115 1    
   117   60   61 1    
   118   61  116 1    
   119   61  117 1    
@<TRIPOS>SUBSTRUCTURE
     1 UNK         1 GROUP             0       ****    0 ROOT    
