@<TRIPOS>MOLECULE
3R8
117   119    1
SMALL
USER_CHARGES


@<TRIPOS>ATOM
      1 CA         23.8036  -31.6485  -43.7573 C.3       0 UNK        -0.2013 
      2 C          22.5122  -30.8658  -43.5785 C.2       0 UNK         0.4866 
      3 O          21.7579  -31.1303  -42.6416 O.2       0 UNK        -0.5176 
      4 N          22.2343  -29.9076  -44.4708 N.am      1 UNK        -0.4884 
      5 CA         21.0314  -29.0759  -44.4180 C.3       1 UNK         0.0853 
      6 C6         20.6502  -28.4671  -45.7916 C.3       10 UNK        -0.0849 
      7 S7         20.1223  -29.7625  -46.9663 S.3       10 UNK        -0.2776 
      8 C8         18.2975  -29.6054  -46.9430 C.3       10 UNK         0.0316 
      9 C9         17.6889  -29.7286  -45.5473 C.ar      10 UNK        -0.0863 
     10 C10        18.0348  -30.7940  -44.7099 C.ar      10 UNK        -0.1009 
     11 C11        17.5614  -30.8580  -43.3951 C.ar      10 UNK        -0.0712 
     12 C12        16.6486  -29.8922  -42.9568 C.ar      10 UNK        -0.0894 
     13 C13        16.2422  -28.8550  -43.8027 C.ar      10 UNK        -0.0745 
     14 C14        16.7816  -28.7677  -45.0899 C.ar      10 UNK        -0.0972 
     15 C15        15.1950  -27.8515  -43.3352 C.3       10 UNK         0.0209 
     16 S16        15.8175  -26.7196  -42.0517 S.3       10 UNK        -0.2568 
     17 C17        16.8360  -25.5580  -43.0235 C.3       10 UNK        -0.0983 
     18 CA         18.1122  -25.1242  -42.2603 C.3       3 UNK         0.0876 
     19 N          18.9402  -26.2798  -41.9167 N.am      3 UNK        -0.4424 
     20 C          19.9034  -26.3006  -40.9883 C.2       2 UNK         0.4918 
     21 O          20.1690  -25.3480  -40.2562 O.2       2 UNK        -0.4875 
     22 CA         20.7004  -27.6138  -40.8569 C.3       2 UNK         0.0481 
     23 CB         20.0823  -28.4728  -39.7415 C.3       2 UNK        -0.1831 
     24 N          20.7663  -28.4210  -42.0826 N.am      2 UNK        -0.4498 
     25 C          21.1359  -28.0192  -43.3077 C.2       1 UNK         0.5027 
     26 O          21.4945  -26.8744  -43.5835 O.2       1 UNK        -0.4969 
     27 C          18.8816  -24.0479  -43.0608 C.2       3 UNK         0.5005 
     28 O          18.4268  -22.9028  -43.0942 O.2       3 UNK        -0.5279 
     29 N          20.0003  -24.4181  -43.7035 N.am      4 UNK        -0.4463 
     30 CA         20.7958  -23.5494  -44.5756 C.3       4 UNK         0.0283 
     31 CB         20.7905  -24.1329  -45.9989 C.3       4 UNK        -0.1875 
     32 C          22.2409  -23.3787  -44.0815 C.2       4 UNK         0.4949 
     33 O          22.7920  -22.2860  -44.2191 O.2       4 UNK        -0.5039 
     34 N          22.8382  -24.4446  -43.5370 N.am      5 UNK        -0.4663 
     35 CA         24.2263  -24.4987  -43.0832 C.3       5 UNK         0.0242 
     36 CB         25.1347  -24.9193  -44.2598 C.3       5 UNK        -0.1982 
     37 C          24.3274  -25.4093  -41.8471 C.2       5 UNK         0.5017 
     38 O          23.4570  -25.3435  -40.9781 O.2       5 UNK        -0.5012 
     39 N          25.3936  -26.2156  -41.7634 N.am      6 UNK        -0.4439 
     40 CA         25.6328  -27.1787  -40.6868 C.3       6 UNK         0.0297 
     41 CB         27.1095  -27.6060  -40.7160 C.3       6 UNK        -0.2006 
     42 C          24.7193  -28.4093  -40.8106 C.2       6 UNK         0.4892 
     43 O          24.3984  -28.8204  -41.9262 O.2       6 UNK        -0.5089 
     44 N          24.3556  -28.9843  -39.6584 N.am      7 UNK        -0.4243 
     45 CA         23.5609  -30.2094  -39.5314 C.3       7 UNK         0.0196 
     46 CB         22.9232  -30.1962  -38.1292 C.3       7 UNK        -0.2007 
     47 C          24.4301  -31.4727  -39.7452 C.2       7 UNK         0.5020 
     48 O          25.6569  -31.3646  -39.7220 O.2       7 UNK        -0.5147 
     49 N          23.8594  -32.6732  -39.9229 N.am      8 UNK        -0.4734 
     50 CA         22.4414  -33.0354  -39.9896 C.3       8 UNK         0.0238 
     51 CB         22.0468  -33.7673  -38.6934 C.3       8 UNK        -0.1912 
     52 C          22.2259  -33.9638  -41.1935 C.2       8 UNK         0.5038 
     53 O          23.1582  -34.6662  -41.5948 O.2       8 UNK        -0.5046 
     54 N          21.0019  -33.9563  -41.7336 N.am      9 UNK        -0.4200 
     55 CA         20.6070  -34.7065  -42.9356 C.3       9 UNK         0.0839 
     56 C          20.1669  -36.1769  -42.6780 C.2       9 UNK         0.5513 
     57 N          20.1015  -36.6443  -41.4368 N.am      9 UNK        -0.7519 
     58 O          19.8990  -36.9130  -43.6242 O.2       9 UNK        -0.4960 
     59 C59        19.5921  -33.9020  -43.7931 C.3       10 UNK        -0.0876 
     60 S60        17.9615  -33.6248  -43.0050 S.3       10 UNK        -0.2414 
     61 C61        18.0861  -31.9045  -42.4132 C.3       10 UNK         0.0169 
     62 H62        23.5871  -32.7119  -43.8546 H         1 UNK         0.0903 
     63 H63        24.3548  -31.3286  -44.6411 H         1 UNK         0.0903 
     64 H64        24.4453  -31.5091  -42.8879 H         1 UNK         0.0903 
     65 H65        22.8855  -29.7031  -45.2150 H         1 UNK         0.3096 
     66 H66        20.2130  -29.7222  -44.1176 H         1 UNK         0.1121 
     67 H67        21.4937  -27.9219  -46.2189 H         1 UNK         0.0849 
     68 H68        19.8426  -27.7394  -45.6879 H         1 UNK         0.0849 
     69 H69        18.0275  -28.6515  -47.3989 H         1 UNK         0.0865 
     70 H70        17.8701  -30.3803  -47.5807 H         1 UNK         0.0865 
     71 H71        18.7324  -31.5333  -45.0716 H         1 UNK         0.1346 
     72 H72        16.2573  -29.9363  -41.9494 H         1 UNK         0.1412 
     73 H73        16.4853  -27.9553  -45.7398 H         1 UNK         0.1426 
     74 H74        14.3426  -28.3984  -42.9297 H         1 UNK         0.0716 
     75 H75        14.8076  -27.2693  -44.1729 H         1 UNK         0.0716 
     76 H76        16.2141  -24.6919  -43.2584 H         1 UNK         0.0695 
     77 H77        17.1010  -26.0132  -43.9795 H         1 UNK         0.0695 
     78 H78        17.8008  -24.6506  -41.3264 H         1 UNK         0.0983 
     79 H79        18.7519  -27.1272  -42.4306 H         1 UNK         0.3095 
     80 H80        21.7248  -27.3634  -40.5784 H         1 UNK         0.0454 
     81 H81        20.1226  -27.9535  -38.7831 H         1 UNK         0.0851 
     82 H82        20.6066  -29.4187  -39.6199 H         1 UNK         0.0851 
     83 H83        19.0350  -28.7017  -39.9440 H         1 UNK         0.0851 
     84 H84        20.5956  -29.4132  -41.9723 H         1 UNK         0.2976 
     85 H85        20.3421  -25.3674  -43.5859 H         1 UNK         0.3116 
     86 H86        20.3560  -22.5510  -44.6233 H         1 UNK         0.0646 
     87 H87        21.2199  -25.1353  -46.0268 H         1 UNK         0.0847 
     88 H88        21.3722  -23.5094  -46.6793 H         1 UNK         0.0847 
     89 H89        19.7782  -24.1911  -46.3990 H         1 UNK         0.0847 
     90 H90        22.3216  -25.3184  -43.4451 H         1 UNK         0.3040 
     91 H91        24.5330  -23.5054  -42.7479 H         1 UNK         0.1015 
     92 H92        26.1904  -24.8708  -43.9906 H         1 UNK         0.0786 
     93 H93        25.0014  -24.2558  -45.1147 H         1 UNK         0.0786 
     94 H94        24.9156  -25.9343  -44.5951 H         1 UNK         0.0786 
     95 H95        26.0362  -26.2396  -42.5412 H         1 UNK         0.3172 
     96 H96        25.4333  -26.6849  -39.7331 H         1 UNK         0.0595 
     97 H97        27.3681  -28.1003  -41.6535 H         1 UNK         0.0839 
     98 H98        27.3293  -28.3077  -39.9100 H         1 UNK         0.0839 
     99 H99        27.7748  -26.7515  -40.5903 H         1 UNK         0.0839 
    100 H100       24.7225  -28.6053  -38.7977 H         1 UNK         0.2998 
    101 H101       22.7829  -30.1747  -40.2949 H         1 UNK         0.0822 
    102 H102       22.4778  -29.2275  -37.9010 H         1 UNK         0.0787 
    103 H103       22.1241  -30.9298  -38.0451 H         1 UNK         0.0787 
    104 H104       23.6549  -30.4152  -37.3502 H         1 UNK         0.0787 
    105 H105       24.4700  -33.4518  -40.1337 H         1 UNK         0.3055 
    106 H106       21.8122  -32.1552  -40.1214 H         1 UNK         0.1106 
    107 H107       22.5649  -34.7228  -38.5981 H         1 UNK         0.0828 
    108 H108       20.9762  -33.9746  -38.6707 H         1 UNK         0.0828 
    109 H109       22.2816  -33.1838  -37.8043 H         1 UNK         0.0828 
    110 H110       20.2856  -33.3712  -41.3322 H         1 UNK         0.2931 
    111 H111       21.4999  -34.7986  -43.5575 H         1 UNK         0.0412 
    112 H112       19.8220  -37.6005  -41.2824 H         1 UNK         0.3472 
    113 H113       20.3269  -36.0508  -40.6553 H         1 UNK         0.3472 
    114 H114       20.0439  -32.9450  -44.0533 H         1 UNK         0.0970 
    115 H115       19.4231  -34.4083  -44.7452 H         1 UNK         0.0970 
    116 H116       19.1216  -31.6702  -42.1663 H         1 UNK         0.0612 
    117 H117       17.5342  -31.8435  -41.4741 H         1 UNK         0.0612 
@<TRIPOS>BOND
     1    1    2 1    
     2    1   62 1    
     3    1   63 1    
     4    1   64 1    
     5    2    3 2    
     6    2    4 am   BACKBONE|DICT|INTERRES
     7    4    5 1    
     8    4   65 1    
     9    5    6 1    
    10    5   25 1    
    11    5   66 1    
    12    6    7 1    
    13    6   67 1    
    14    6   68 1    
    15    7    8 1    
    16    8    9 1    
    17    8   69 1    
    18    8   70 1    
    19    9   10 ar   
    20    9   14 ar   
    21   10   11 ar   
    22   10   71 1    
    23   11   12 ar   
    24   11   61 1    
    25   12   13 ar   
    26   12   72 1    
    27   13   14 ar   
    28   13   15 1    
    29   14   73 1    
    30   15   16 1    
    31   15   74 1    
    32   15   75 1    
    33   16   17 1    
    34   17   18 1    
    35   17   76 1    
    36   17   77 1    
    37   18   19 1    
    38   18   27 1    
    39   18   78 1    
    40   19   20 am   BACKBONE|DICT|INTERRES
    41   19   79 1    
    42   20   21 2    
    43   20   22 1    
    44   22   23 1    
    45   22   24 1    
    46   22   80 1    
    47   23   81 1    
    48   23   82 1    
    49   23   83 1    
    50   24   25 am   BACKBONE|DICT|INTERRES
    51   24   84 1    
    52   25   26 2    
    53   27   28 2    
    54   27   29 am   BACKBONE|DICT|INTERRES
    55   29   30 1    
    56   29   85 1    
    57   30   31 1    
    58   30   32 1    
    59   30   86 1    
    60   31   87 1    
    61   31   88 1    
    62   31   89 1    
    63   32   33 2    
    64   32   34 am   BACKBONE|DICT|INTERRES
    65   34   35 1    
    66   34   90 1    
    67   35   36 1    
    68   35   37 1    
    69   35   91 1    
    70   36   92 1    
    71   36   93 1    
    72   36   94 1    
    73   37   38 2    
    74   37   39 am   BACKBONE|DICT|INTERRES
    75   39   40 1    
    76   39   95 1    
    77   40   41 1    
    78   40   42 1    
    79   40   96 1    
    80   41   97 1    
    81   41   98 1    
    82   41   99 1    
    83   42   43 2    
    84   42   44 am   BACKBONE|DICT|INTERRES
    85   44   45 1    
    86   44  100 1    
    87   45   46 1    
    88   45   47 1    
    89   45  101 1    
    90   46  102 1    
    91   46  103 1    
    92   46  104 1    
    93   47   48 2    
    94   47   49 am   BACKBONE|DICT|INTERRES
    95   49   50 1    
    96   49  105 1    
    97   50   51 1    
    98   50   52 1    
    99   50  106 1    
   100   51  107 1    
   101   51  108 1    
   102   51  109 1    
   103   52   53 2    
   104   52   54 am   BACKBONE|DICT|INTERRES
   105   54   55 1    
   106   54  110 1    
   107   55   56 1    
   108   55   59 1    
   109   55  111 1    
   110   56   57 am   BACKBONE|DICT|INTERRES
   111   56   58 2    
   112   57  112 1    
   113   57  113 1    
   114   59   60 1    
   115   59  114 1    
   116   59  115 1    
   117   60   61 1    
   118   61  116 1    
   119   61  117 1    
@<TRIPOS>SUBSTRUCTURE
     1 UNK         1 GROUP             0       ****    0 ROOT    
