@<TRIPOS>MOLECULE
3R8
117   119    1
SMALL
USER_CHARGES


@<TRIPOS>ATOM
      1 CA         13.8031  -24.2360  -47.4846 C.3       0 UNK        -0.2013 
      2 C          15.1431  -24.9228  -47.7028 C.2       0 UNK         0.4866 
      3 O          15.8272  -24.6336  -48.6854 O.2       0 UNK        -0.5176 
      4 N          15.5189  -25.8366  -46.7998 N.am      1 UNK        -0.4884 
      5 CA         16.7945  -26.5610  -46.8242 C.3       1 UNK         0.0853 
      6 C6         16.7957  -27.7669  -45.8520 C.3       10 UNK        -0.0849 
      7 S7         15.4781  -28.9821  -46.1926 S.3       10 UNK        -0.2776 
      8 C8         14.6864  -29.1361  -44.5566 C.3       10 UNK         0.0316 
      9 C9         15.6310  -29.7309  -43.5191 C.ar      10 UNK        -0.0863 
     10 C10        15.9217  -31.0984  -43.5378 C.ar      10 UNK        -0.1009 
     11 C11        16.7908  -31.6529  -42.5935 C.ar      10 UNK        -0.0712 
     12 C12        17.3685  -30.8299  -41.6224 C.ar      10 UNK        -0.0894 
     13 C13        17.0879  -29.4610  -41.5938 C.ar      10 UNK        -0.0745 
     14 C14        16.2104  -28.9188  -42.5379 C.ar      10 UNK        -0.0972 
     15 C15        17.7262  -28.5771  -40.5319 C.3       10 UNK         0.0209 
     16 S16        19.4470  -28.1514  -40.9474 S.3       10 UNK        -0.2568 
     17 C17        19.2055  -26.8466  -42.1983 C.3       10 UNK        -0.0983 
     18 CA         20.5024  -26.5334  -42.9856 C.3       3 UNK         0.0876 
     19 N          20.1906  -25.9350  -44.2823 N.am      3 UNK        -0.4424 
     20 C          20.9947  -25.9357  -45.3512 C.2       2 UNK         0.4918 
     21 O          22.1077  -26.4643  -45.3672 O.2       2 UNK        -0.4875 
     22 CA         20.4241  -25.2797  -46.6272 C.3       2 UNK         0.0481 
     23 CB         21.3988  -25.3500  -47.8175 C.3       2 UNK        -0.1831 
     24 N          19.1525  -25.9030  -47.0118 N.am      2 UNK        -0.4498 
     25 C          17.9647  -25.6280  -46.4562 C.2       1 UNK         0.5027 
     26 O          17.8020  -24.7469  -45.6066 O.2       1 UNK        -0.4969 
     27 C          21.4649  -25.6307  -42.1863 C.2       3 UNK         0.5005 
     28 O          21.4496  -24.4068  -42.3474 O.2       3 UNK        -0.5279 
     29 N          22.2674  -26.2581  -41.3240 N.am      4 UNK        -0.4463 
     30 CA         23.2575  -25.6544  -40.4404 C.3       4 UNK         0.0283 
     31 CB         24.4903  -25.2050  -41.2504 C.3       4 UNK        -0.1875 
     32 C          23.6453  -26.7126  -39.4020 C.2       4 UNK         0.4949 
     33 O          23.3407  -27.8922  -39.5922 O.2       4 UNK        -0.5039 
     34 N          24.3606  -26.2990  -38.3487 N.am      5 UNK        -0.4663 
     35 CA         24.8755  -27.1936  -37.3006 C.3       5 UNK         0.0242 
     36 CB         25.4941  -26.3494  -36.1745 C.3       5 UNK        -0.1982 
     37 C          25.8896  -28.2385  -37.8104 C.2       5 UNK         0.5017 
     38 O          26.0298  -29.2956  -37.1951 O.2       5 UNK        -0.5012 
     39 N          26.5631  -27.9246  -38.9249 N.am      6 UNK        -0.4439 
     40 CA         27.5213  -28.7895  -39.6131 C.3       6 UNK         0.0297 
     41 CB         28.6394  -27.9065  -40.1960 C.3       6 UNK        -0.2006 
     42 C          26.8852  -29.6565  -40.7192 C.2       6 UNK         0.4892 
     43 O          27.6153  -30.4253  -41.3476 O.2       6 UNK        -0.5089 
     44 N          25.5736  -29.5192  -40.9769 N.am      7 UNK        -0.4243 
     45 CA         24.8648  -30.2787  -42.0128 C.3       7 UNK         0.0196 
     46 CB         23.5020  -29.6264  -42.3017 C.3       7 UNK        -0.2007 
     47 C          24.6840  -31.7540  -41.6185 C.2       7 UNK         0.5020 
     48 O          24.5105  -32.0628  -40.4378 O.2       7 UNK        -0.5147 
     49 N          24.7026  -32.6364  -42.6248 N.am      8 UNK        -0.4734 
     50 CA         24.5614  -34.0870  -42.4551 C.3       8 UNK         0.0238 
     51 CB         25.1820  -34.7937  -43.6723 C.3       8 UNK        -0.1912 
     52 C          23.1075  -34.5514  -42.2508 C.2       8 UNK         0.5038 
     53 O          22.9039  -35.6798  -41.8006 O.2       8 UNK        -0.5046 
     54 N          22.1328  -33.7030  -42.6066 N.am      9 UNK        -0.4200 
     55 CA         20.6942  -33.9687  -42.4721 C.3       9 UNK         0.0839 
     56 C          20.2590  -34.0742  -40.9850 C.2       9 UNK         0.5513 
     57 N          19.5648  -35.1393  -40.6086 N.am      9 UNK        -0.7519 
     58 O          20.5145  -33.1776  -40.1849 O.2       9 UNK        -0.4960 
     59 C59        19.8566  -32.9115  -43.2424 C.3       10 UNK        -0.0876 
     60 S60        18.2959  -33.5986  -43.8951 S.3       10 UNK        -0.2414 
     61 C61        17.0866  -33.1447  -42.6108 C.3       10 UNK         0.0169 
     62 H62        13.2998  -24.5983  -46.5883 H         1 UNK         0.0903 
     63 H63        13.9455  -23.1605  -47.3821 H         1 UNK         0.0903 
     64 H64        13.1473  -24.4136  -48.3365 H         1 UNK         0.0903 
     65 H65        14.9240  -26.0278  -46.0069 H         1 UNK         0.3096 
     66 H66        16.9524  -26.9300  -47.8404 H         1 UNK         0.1121 
     67 H67        17.7471  -28.3010  -45.8997 H         1 UNK         0.0849 
     68 H68        16.7062  -27.4109  -44.8250 H         1 UNK         0.0849 
     69 H69        14.3200  -28.1597  -44.2356 H         1 UNK         0.0865 
     70 H70        13.8056  -29.7733  -44.6493 H         1 UNK         0.0865 
     71 H71        15.4765  -31.7314  -44.2935 H         1 UNK         0.1346 
     72 H72        18.0423  -31.2524  -40.8888 H         1 UNK         0.1412 
     73 H73        15.9853  -27.8613  -42.5119 H         1 UNK         0.1426 
     74 H74        17.7168  -29.1000  -39.5744 H         1 UNK         0.0716 
     75 H75        17.1475  -27.6638  -40.3843 H         1 UNK         0.0716 
     76 H76        18.7955  -25.9529  -41.7236 H         1 UNK         0.0695 
     77 H77        18.4393  -27.2003  -42.8890 H         1 UNK         0.0695 
     78 H78        21.0162  -27.4765  -43.1891 H         1 UNK         0.0983 
     79 H79        19.3110  -25.4372  -44.3563 H         1 UNK         0.3095 
     80 H80        20.2543  -24.2246  -46.4027 H         1 UNK         0.0454 
     81 H81        21.6242  -26.3798  -48.0975 H         1 UNK         0.0851 
     82 H82        22.3448  -24.8635  -47.5763 H         1 UNK         0.0851 
     83 H83        20.9921  -24.8450  -48.6937 H         1 UNK         0.0851 
     84 H84        19.2159  -26.6678  -47.6693 H         1 UNK         0.2976 
     85 H85        22.1653  -27.2567  -41.1755 H         1 UNK         0.3116 
     86 H86        22.8100  -24.8016  -39.9260 H         1 UNK         0.0646 
     87 H87        24.9579  -26.0429  -41.7695 H         1 UNK         0.0847 
     88 H88        25.2461  -24.7541  -40.6066 H         1 UNK         0.0847 
     89 H89        24.2261  -24.4577  -41.9986 H         1 UNK         0.0847 
     90 H90        24.5736  -25.3155  -38.2543 H         1 UNK         0.3040 
     91 H91        24.0277  -27.7465  -36.8893 H         1 UNK         0.1015 
     92 H92        24.7616  -25.6692  -35.7392 H         1 UNK         0.0786 
     93 H93        26.3366  -25.7551  -36.5306 H         1 UNK         0.0786 
     94 H94        25.8619  -26.9847  -35.3673 H         1 UNK         0.0786 
     95 H95        26.3765  -27.0274  -39.3481 H         1 UNK         0.3172 
     96 H96        27.9752  -29.4725  -38.8920 H         1 UNK         0.0595 
     97 H97        28.2588  -27.2164  -40.9502 H         1 UNK         0.0839 
     98 H98        29.4120  -28.5129  -40.6710 H         1 UNK         0.0839 
     99 H99        29.1280  -27.3192  -39.4183 H         1 UNK         0.0839 
    100 H100       25.0057  -28.9307  -40.3785 H         1 UNK         0.2998 
    101 H101       25.4627  -30.2321  -42.9260 H         1 UNK         0.0822 
    102 H102       23.6138  -28.5737  -42.5611 H         1 UNK         0.0787 
    103 H103       23.0055  -30.1132  -43.1419 H         1 UNK         0.0787 
    104 H104       22.8306  -29.6982  -41.4451 H         1 UNK         0.0787 
    105 H105       24.8495  -32.3024  -43.5674 H         1 UNK         0.3055 
    106 H106       25.1201  -34.3895  -41.5661 H         1 UNK         0.1106 
    107 H107       25.1277  -35.8781  -43.5646 H         1 UNK         0.0828 
    108 H108       24.6678  -34.5332  -44.5983 H         1 UNK         0.0828 
    109 H109       26.2351  -34.5359  -43.7874 H         1 UNK         0.0828 
    110 H110       22.3973  -32.7873  -42.9343 H         1 UNK         0.2931 
    111 H111       20.5310  -34.9389  -42.9470 H         1 UNK         0.0412 
    112 H112       19.3489  -35.8754  -41.2632 H         1 UNK         0.3472 
    113 H113       19.2662  -35.2181  -39.6491 H         1 UNK         0.3472 
    114 H114       19.6751  -32.0173  -42.6444 H         1 UNK         0.0970 
    115 H115       20.4100  -32.5622  -44.1154 H         1 UNK         0.0970 
    116 H116       17.4385  -33.4797  -41.6349 H         1 UNK         0.0612 
    117 H117       16.1611  -33.6907  -42.7990 H         1 UNK         0.0612 
@<TRIPOS>BOND
     1    1    2 1    
     2    1   62 1    
     3    1   63 1    
     4    1   64 1    
     5    2    3 2    
     6    2    4 am   BACKBONE|DICT|INTERRES
     7    4    5 1    
     8    4   65 1    
     9    5    6 1    
    10    5   25 1    
    11    5   66 1    
    12    6    7 1    
    13    6   67 1    
    14    6   68 1    
    15    7    8 1    
    16    8    9 1    
    17    8   69 1    
    18    8   70 1    
    19    9   10 ar   
    20    9   14 ar   
    21   10   11 ar   
    22   10   71 1    
    23   11   12 ar   
    24   11   61 1    
    25   12   13 ar   
    26   12   72 1    
    27   13   14 ar   
    28   13   15 1    
    29   14   73 1    
    30   15   16 1    
    31   15   74 1    
    32   15   75 1    
    33   16   17 1    
    34   17   18 1    
    35   17   76 1    
    36   17   77 1    
    37   18   19 1    
    38   18   27 1    
    39   18   78 1    
    40   19   20 am   BACKBONE|DICT|INTERRES
    41   19   79 1    
    42   20   21 2    
    43   20   22 1    
    44   22   23 1    
    45   22   24 1    
    46   22   80 1    
    47   23   81 1    
    48   23   82 1    
    49   23   83 1    
    50   24   25 am   BACKBONE|DICT|INTERRES
    51   24   84 1    
    52   25   26 2    
    53   27   28 2    
    54   27   29 am   BACKBONE|DICT|INTERRES
    55   29   30 1    
    56   29   85 1    
    57   30   31 1    
    58   30   32 1    
    59   30   86 1    
    60   31   87 1    
    61   31   88 1    
    62   31   89 1    
    63   32   33 2    
    64   32   34 am   BACKBONE|DICT|INTERRES
    65   34   35 1    
    66   34   90 1    
    67   35   36 1    
    68   35   37 1    
    69   35   91 1    
    70   36   92 1    
    71   36   93 1    
    72   36   94 1    
    73   37   38 2    
    74   37   39 am   BACKBONE|DICT|INTERRES
    75   39   40 1    
    76   39   95 1    
    77   40   41 1    
    78   40   42 1    
    79   40   96 1    
    80   41   97 1    
    81   41   98 1    
    82   41   99 1    
    83   42   43 2    
    84   42   44 am   BACKBONE|DICT|INTERRES
    85   44   45 1    
    86   44  100 1    
    87   45   46 1    
    88   45   47 1    
    89   45  101 1    
    90   46  102 1    
    91   46  103 1    
    92   46  104 1    
    93   47   48 2    
    94   47   49 am   BACKBONE|DICT|INTERRES
    95   49   50 1    
    96   49  105 1    
    97   50   51 1    
    98   50   52 1    
    99   50  106 1    
   100   51  107 1    
   101   51  108 1    
   102   51  109 1    
   103   52   53 2    
   104   52   54 am   BACKBONE|DICT|INTERRES
   105   54   55 1    
   106   54  110 1    
   107   55   56 1    
   108   55   59 1    
   109   55  111 1    
   110   56   57 am   BACKBONE|DICT|INTERRES
   111   56   58 2    
   112   57  112 1    
   113   57  113 1    
   114   59   60 1    
   115   59  114 1    
   116   59  115 1    
   117   60   61 1    
   118   61  116 1    
   119   61  117 1    
@<TRIPOS>SUBSTRUCTURE
     1 UNK         1 GROUP             0       ****    0 ROOT    
