@<TRIPOS>MOLECULE
3R8
117   119    1
SMALL
USER_CHARGES


@<TRIPOS>ATOM
      1 CA         20.1221  -25.3688  -39.0999 C.3       0 UNK        -0.2013 
      2 C          19.2343  -25.2293  -40.3276 C.2       0 UNK         0.4866 
      3 O          18.4920  -24.2530  -40.4402 O.2       0 UNK        -0.5176 
      4 N          19.3024  -26.1998  -41.2440 N.am      1 UNK        -0.4884 
      5 CA         18.5772  -26.2148  -42.5177 C.3       1 UNK         0.0853 
      6 C6         18.4823  -27.6529  -43.0885 C.3       10 UNK        -0.0849 
      7 S7         17.5885  -28.7999  -41.9857 S.3       10 UNK        -0.2776 
      8 C8         17.2705  -30.1986  -43.1121 C.3       10 UNK         0.0316 
      9 C9         18.5544  -30.7272  -43.7370 C.ar      10 UNK        -0.0863 
     10 C10        19.4911  -31.4026  -42.9506 C.ar      10 UNK        -0.1009 
     11 C11        20.6917  -31.8531  -43.5063 C.ar      10 UNK        -0.0712 
     12 C12        20.9540  -31.6201  -44.8597 C.ar      10 UNK        -0.0894 
     13 C13        20.0190  -30.9566  -45.6608 C.ar      10 UNK        -0.0745 
     14 C14        18.8171  -30.5200  -45.0948 C.ar      10 UNK        -0.0972 
     15 C15        20.3084  -30.7128  -47.1372 C.3       10 UNK         0.0209 
     16 S16        20.3425  -28.9411  -47.5663 S.3       10 UNK        -0.2568 
     17 C17        21.7126  -28.3457  -46.5206 C.3       10 UNK        -0.0983 
     18 CA         21.8966  -26.8065  -46.5871 C.3       3 UNK         0.0876 
     19 N          20.6644  -26.1086  -46.2137 N.am      3 UNK        -0.4424 
     20 C          20.3541  -24.8301  -46.4632 C.2       2 UNK         0.4918 
     21 O          21.0627  -24.0761  -47.1316 O.2       2 UNK        -0.4875 
     22 CA         19.0546  -24.2863  -45.8327 C.3       2 UNK         0.0481 
     23 CB         17.9459  -24.1993  -46.8934 C.3       2 UNK        -0.1831 
     24 N          18.5632  -25.0601  -44.6826 N.am      2 UNK        -0.4498 
     25 C          19.2439  -25.2746  -43.5456 C.2       1 UNK         0.5027 
     26 O          20.3692  -24.8121  -43.3392 O.2       1 UNK        -0.4969 
     27 C          23.0843  -26.3349  -45.7144 C.2       3 UNK         0.5005 
     28 O          23.6359  -27.1248  -44.9476 O.2       3 UNK        -0.5279 
     29 N          23.4408  -25.0462  -45.8213 N.am      4 UNK        -0.4463 
     30 CA         24.5742  -24.3762  -45.1671 C.3       4 UNK         0.0283 
     31 CB         25.9009  -24.8418  -45.8041 C.3       4 UNK        -0.1875 
     32 C          24.5840  -24.4991  -43.6273 C.2       4 UNK         0.4949 
     33 O          25.6542  -24.6364  -43.0327 O.2       4 UNK        -0.5039 
     34 N          23.3918  -24.4512  -43.0135 N.am      5 UNK        -0.4663 
     35 CA         23.1304  -24.5719  -41.5728 C.3       5 UNK         0.0242 
     36 CB         23.8053  -23.4333  -40.7768 C.3       5 UNK        -0.1982 
     37 C          23.4236  -25.9686  -40.9879 C.2       5 UNK         0.5017 
     38 O          23.5809  -26.0856  -39.7709 O.2       5 UNK        -0.5012 
     39 N          23.4629  -27.0083  -41.8357 N.am      6 UNK        -0.4439 
     40 CA         23.5384  -28.4100  -41.4133 C.3       6 UNK         0.0297 
     41 CB         23.8795  -29.2897  -42.6253 C.3       6 UNK        -0.2006 
     42 C          22.2230  -28.8729  -40.7611 C.2       6 UNK         0.4892 
     43 O          21.1663  -28.2977  -41.0290 O.2       6 UNK        -0.5089 
     44 N          22.3101  -29.9098  -39.9241 N.am      7 UNK        -0.4243 
     45 CA         21.1928  -30.4941  -39.1875 C.3       7 UNK         0.0196 
     46 CB         20.8864  -29.6406  -37.9404 C.3       7 UNK        -0.2007 
     47 C          21.5413  -31.9396  -38.8086 C.2       7 UNK         0.5020 
     48 O          22.6848  -32.3623  -38.9962 O.2       7 UNK        -0.5147 
     49 N          20.5435  -32.6622  -38.2810 N.am      8 UNK        -0.4734 
     50 CA         20.6093  -34.0520  -37.8014 C.3       8 UNK         0.0238 
     51 CB         21.6239  -34.2014  -36.6456 C.3       8 UNK        -0.1912 
     52 C          20.8083  -35.1024  -38.9148 C.2       8 UNK         0.5038 
     53 O          21.3378  -36.1819  -38.6435 O.2       8 UNK        -0.5046 
     54 N          20.3412  -34.7928  -40.1324 N.am      9 UNK        -0.4200 
     55 CA         20.2559  -35.7416  -41.2581 C.3       9 UNK         0.0839 
     56 C          19.0576  -36.7326  -41.1581 C.2       9 UNK         0.5513 
     57 N          18.1054  -36.5476  -40.2507 N.am      9 UNK        -0.7519 
     58 O          18.9965  -37.6969  -41.9164 O.2       9 UNK        -0.4960 
     59 C59        20.2606  -35.0147  -42.6294 C.3       10 UNK        -0.0876 
     60 S60        21.8968  -34.3267  -43.0517 S.3       10 UNK        -0.2414 
     61 C61        21.7161  -32.5656  -42.6366 C.3       10 UNK         0.0169 
     62 H62        20.7379  -26.2670  -39.1445 H         1 UNK         0.0903 
     63 H63        20.7866  -24.5094  -39.0159 H         1 UNK         0.0903 
     64 H64        19.5125  -25.4201  -38.1983 H         1 UNK         0.0903 
     65 H65        19.9498  -26.9783  -41.1125 H         1 UNK         0.3096 
     66 H66        17.5658  -25.8417  -42.3411 H         1 UNK         0.1121 
     67 H67        19.4810  -28.0581  -43.2678 H         1 UNK         0.0849 
     68 H68        17.9703  -27.6589  -44.0522 H         1 UNK         0.0849 
     69 H69        16.7812  -30.9999  -42.5565 H         1 UNK         0.0865 
     70 H70        16.5635  -29.8853  -43.8819 H         1 UNK         0.0865 
     71 H71        19.2881  -31.5578  -41.9004 H         1 UNK         0.1346 
     72 H72        21.8873  -31.9614  -45.2864 H         1 UNK         0.1412 
     73 H73        18.0977  -29.9986  -45.7116 H         1 UNK         0.1426 
     74 H74        19.5397  -31.2050  -47.7343 H         1 UNK         0.0716 
     75 H75        21.2585  -31.1637  -47.4281 H         1 UNK         0.0716 
     76 H76        22.6252  -28.8550  -46.8362 H         1 UNK         0.0695 
     77 H77        21.5243  -28.6577  -45.4913 H         1 UNK         0.0695 
     78 H78        22.1372  -26.5442  -47.6198 H         1 UNK         0.0983 
     79 H79        20.0150  -26.6486  -45.6643 H         1 UNK         0.3095 
     80 H80        19.2679  -23.2758  -45.4787 H         1 UNK         0.0454 
     81 H81        17.6693  -25.1845  -47.2711 H         1 UNK         0.0851 
     82 H82        18.2688  -23.6029  -47.7480 H         1 UNK         0.0851 
     83 H83        17.0484  -23.7265  -46.4943 H         1 UNK         0.0851 
     84 H84        17.6430  -25.4652  -44.7814 H         1 UNK         0.2976 
     85 H85        22.8639  -24.4629  -46.4218 H         1 UNK         0.3116 
     86 H86        24.4623  -23.3124  -45.3810 H         1 UNK         0.0646 
     87 H87        25.8887  -24.7154  -46.8865 H         1 UNK         0.0847 
     88 H88        26.1023  -25.8923  -45.5908 H         1 UNK         0.0847 
     89 H89        26.7445  -24.2647  -45.4233 H         1 UNK         0.0847 
     90 H90        22.5578  -24.3810  -43.5859 H         1 UNK         0.3040 
     91 H91        22.0554  -24.4375  -41.4550 H         1 UNK         0.1015 
     92 H92        24.8898  -23.5406  -40.7515 H         1 UNK         0.0786 
     93 H93        23.4591  -23.4214  -39.7426 H         1 UNK         0.0786 
     94 H94        23.5726  -22.4579  -41.2040 H         1 UNK         0.0786 
     95 H95        23.3438  -26.8394  -42.8285 H         1 UNK         0.3172 
     96 H96        24.3437  -28.5001  -40.6811 H         1 UNK         0.0595 
     97 H97        23.0568  -29.3286  -43.3414 H         1 UNK         0.0839 
     98 H98        24.0968  -30.3111  -42.3142 H         1 UNK         0.0839 
     99 H99        24.7621  -28.9221  -43.1492 H         1 UNK         0.0839 
    100 H100       23.1911  -30.3920  -39.7916 H         1 UNK         0.2998 
    101 H101       20.3146  -30.5190  -39.8365 H         1 UNK         0.0822 
    102 H102       20.6178  -28.6203  -38.2138 H         1 UNK         0.0787 
    103 H103       20.0492  -30.0474  -37.3725 H         1 UNK         0.0787 
    104 H104       21.7444  -29.5908  -37.2688 H         1 UNK         0.0787 
    105 H105       19.6436  -32.2131  -38.1713 H         1 UNK         0.3055 
    106 H106       19.6242  -34.2665  -37.3836 H         1 UNK         0.1106 
    107 H107       21.4536  -33.4571  -35.8678 H         1 UNK         0.0828 
    108 H108       22.6529  -34.0980  -36.9908 H         1 UNK         0.0828 
    109 H109       21.5399  -35.1819  -36.1751 H         1 UNK         0.0828 
    110 H110       19.9135  -33.8906  -40.2688 H         1 UNK         0.2931 
    111 H111       21.1469  -36.3722  -41.2262 H         1 UNK         0.0412 
    112 H112       17.3414  -37.2036  -40.1996 H         1 UNK         0.3472 
    113 H113       18.1358  -35.7619  -39.6220 H         1 UNK         0.3472 
    114 H114       19.4919  -34.2422  -42.6642 H         1 UNK         0.0970 
    115 H115       20.0120  -35.7087  -43.4348 H         1 UNK         0.0970 
    116 H116       21.4597  -32.4754  -41.5832 H         1 UNK         0.0612 
    117 H117       22.6852  -32.0838  -42.7589 H         1 UNK         0.0612 
@<TRIPOS>BOND
     1    1    2 1    
     2    1   62 1    
     3    1   63 1    
     4    1   64 1    
     5    2    3 2    
     6    2    4 am   BACKBONE|DICT|INTERRES
     7    4    5 1    
     8    4   65 1    
     9    5    6 1    
    10    5   25 1    
    11    5   66 1    
    12    6    7 1    
    13    6   67 1    
    14    6   68 1    
    15    7    8 1    
    16    8    9 1    
    17    8   69 1    
    18    8   70 1    
    19    9   10 ar   
    20    9   14 ar   
    21   10   11 ar   
    22   10   71 1    
    23   11   12 ar   
    24   11   61 1    
    25   12   13 ar   
    26   12   72 1    
    27   13   14 ar   
    28   13   15 1    
    29   14   73 1    
    30   15   16 1    
    31   15   74 1    
    32   15   75 1    
    33   16   17 1    
    34   17   18 1    
    35   17   76 1    
    36   17   77 1    
    37   18   19 1    
    38   18   27 1    
    39   18   78 1    
    40   19   20 am   BACKBONE|DICT|INTERRES
    41   19   79 1    
    42   20   21 2    
    43   20   22 1    
    44   22   23 1    
    45   22   24 1    
    46   22   80 1    
    47   23   81 1    
    48   23   82 1    
    49   23   83 1    
    50   24   25 am   BACKBONE|DICT|INTERRES
    51   24   84 1    
    52   25   26 2    
    53   27   28 2    
    54   27   29 am   BACKBONE|DICT|INTERRES
    55   29   30 1    
    56   29   85 1    
    57   30   31 1    
    58   30   32 1    
    59   30   86 1    
    60   31   87 1    
    61   31   88 1    
    62   31   89 1    
    63   32   33 2    
    64   32   34 am   BACKBONE|DICT|INTERRES
    65   34   35 1    
    66   34   90 1    
    67   35   36 1    
    68   35   37 1    
    69   35   91 1    
    70   36   92 1    
    71   36   93 1    
    72   36   94 1    
    73   37   38 2    
    74   37   39 am   BACKBONE|DICT|INTERRES
    75   39   40 1    
    76   39   95 1    
    77   40   41 1    
    78   40   42 1    
    79   40   96 1    
    80   41   97 1    
    81   41   98 1    
    82   41   99 1    
    83   42   43 2    
    84   42   44 am   BACKBONE|DICT|INTERRES
    85   44   45 1    
    86   44  100 1    
    87   45   46 1    
    88   45   47 1    
    89   45  101 1    
    90   46  102 1    
    91   46  103 1    
    92   46  104 1    
    93   47   48 2    
    94   47   49 am   BACKBONE|DICT|INTERRES
    95   49   50 1    
    96   49  105 1    
    97   50   51 1    
    98   50   52 1    
    99   50  106 1    
   100   51  107 1    
   101   51  108 1    
   102   51  109 1    
   103   52   53 2    
   104   52   54 am   BACKBONE|DICT|INTERRES
   105   54   55 1    
   106   54  110 1    
   107   55   56 1    
   108   55   59 1    
   109   55  111 1    
   110   56   57 am   BACKBONE|DICT|INTERRES
   111   56   58 2    
   112   57  112 1    
   113   57  113 1    
   114   59   60 1    
   115   59  114 1    
   116   59  115 1    
   117   60   61 1    
   118   61  116 1    
   119   61  117 1    
@<TRIPOS>SUBSTRUCTURE
     1 UNK         1 GROUP             0       ****    0 ROOT    
