@<TRIPOS>MOLECULE
3R8
117   119    1
SMALL
USER_CHARGES


@<TRIPOS>ATOM
      1 CA         15.4571  -29.3525  -39.8739 C.3       0 UNK        -0.2013 
      2 C          16.2065  -28.0838  -40.2470 C.2       0 UNK         0.4866 
      3 O          16.4756  -27.2569  -39.3751 O.2       0 UNK        -0.5176 
      4 N          16.5335  -27.9135  -41.5335 N.am      1 UNK        -0.4884 
      5 CA         17.2398  -26.7398  -42.0602 C.3       1 UNK         0.0853 
      6 C6         17.1214  -26.5953  -43.6051 C.3       10 UNK        -0.0849 
      7 S7         15.4691  -26.9842  -44.2858 S.3       10 UNK        -0.2776 
      8 C8         15.8779  -28.0166  -45.7389 C.3       10 UNK         0.0316 
      9 C9         16.7732  -29.2031  -45.3971 C.ar      10 UNK        -0.0863 
     10 C10        16.3149  -30.2117  -44.5449 C.ar      10 UNK        -0.1009 
     11 C11        17.1446  -31.2842  -44.2053 C.ar      10 UNK        -0.0712 
     12 C12        18.4361  -31.3512  -44.7352 C.ar      10 UNK        -0.0894 
     13 C13        18.9108  -30.3456  -45.5812 C.ar      10 UNK        -0.0745 
     14 C14        18.0694  -29.2816  -45.9206 C.ar      10 UNK        -0.0972 
     15 C15        20.3324  -30.4169  -46.1221 C.3       10 UNK         0.0209 
     16 S16        21.5059  -29.5076  -45.0652 S.3       10 UNK        -0.2568 
     17 C17        21.3709  -27.8226  -45.7586 C.3       10 UNK        -0.0983 
     18 CA         22.3545  -26.7866  -45.1426 C.3       3 UNK         0.0876 
     19 N          22.0476  -26.5069  -43.7418 N.am      3 UNK        -0.4424 
     20 C          21.1450  -25.6072  -43.3491 C.2       2 UNK         0.4918 
     21 O          20.5312  -24.8627  -44.1181 O.2       2 UNK        -0.4875 
     22 CA         20.8375  -25.5393  -41.8488 C.3       2 UNK         0.0481 
     23 CB         21.3687  -24.2418  -41.2206 C.3       2 UNK        -0.1831 
     24 N          19.3872  -25.6189  -41.6881 N.am      2 UNK        -0.4498 
     25 C          18.7320  -26.7853  -41.6794 C.2       1 UNK         0.5027 
     26 O          19.2821  -27.8703  -41.4763 O.2       1 UNK        -0.4969 
     27 C          23.8465  -27.1309  -45.3022 C.2       3 UNK         0.5005 
     28 O          24.6334  -26.9230  -44.3747 O.2       3 UNK        -0.5279 
     29 N          24.2153  -27.6427  -46.4853 N.am      4 UNK        -0.4463 
     30 CA         25.5777  -28.0516  -46.8403 C.3       4 UNK         0.0283 
     31 CB         25.6353  -28.3589  -48.3457 C.3       4 UNK        -0.1875 
     32 C          26.1047  -29.2494  -46.0284 C.2       4 UNK         0.4949 
     33 O          27.3214  -29.4131  -45.9340 O.2       4 UNK        -0.5039 
     34 N          25.1969  -30.0613  -45.4661 N.am      5 UNK        -0.4663 
     35 CA         25.5251  -31.1723  -44.5730 C.3       5 UNK         0.0242 
     36 CB         24.3009  -32.0891  -44.4072 C.3       5 UNK        -0.1982 
     37 C          26.0415  -30.6680  -43.2159 C.2       5 UNK         0.5017 
     38 O          27.1759  -30.9789  -42.8515 O.2       5 UNK        -0.5012 
     39 N          25.2072  -29.8862  -42.5186 N.am      6 UNK        -0.4439 
     40 CA         25.4417  -29.2590  -41.2181 C.3       6 UNK         0.0297 
     41 CB         25.7752  -30.3108  -40.1294 C.3       6 UNK        -0.2006 
     42 C          24.1836  -28.4547  -40.8442 C.2       6 UNK         0.4892 
     43 O          23.2702  -28.3125  -41.6645 O.2       6 UNK        -0.5089 
     44 N          24.1497  -27.9672  -39.5971 N.am      7 UNK        -0.4243 
     45 CA         22.9478  -27.4651  -38.9309 C.3       7 UNK         0.0196 
     46 CB         23.3571  -26.7217  -37.6494 C.3       7 UNK        -0.2007 
     47 C          21.9925  -28.6249  -38.5965 C.2       7 UNK         0.5020 
     48 O          22.4645  -29.7252  -38.3012 O.2       7 UNK        -0.5147 
     49 N          20.6797  -28.3532  -38.6215 N.am      8 UNK        -0.4734 
     50 CA         19.5810  -29.2799  -38.3008 C.3       8 UNK         0.0238 
     51 CB         19.5201  -29.5270  -36.7785 C.3       8 UNK        -0.1912 
     52 C          19.6381  -30.5882  -39.1175 C.2       8 UNK         0.5038 
     53 O          19.6595  -31.6783  -38.5426 O.2       8 UNK        -0.5046 
     54 N          19.7048  -30.4339  -40.4442 N.am      9 UNK        -0.4200 
     55 CA         19.9014  -31.4828  -41.4582 C.3       9 UNK         0.0839 
     56 C          21.3358  -32.0883  -41.5083 C.2       9 UNK         0.5513 
     57 N          22.2897  -31.6526  -40.6955 N.am      9 UNK        -0.7519 
     58 O          21.5984  -32.9678  -42.3241 O.2       9 UNK        -0.4960 
     59 C59        18.8174  -32.6028  -41.4424 C.3       10 UNK        -0.0876 
     60 S60        17.0992  -31.9932  -41.5351 S.3       10 UNK        -0.2414 
     61 C61        16.6457  -32.3631  -43.2582 C.3       10 UNK         0.0169 
     62 H62        14.6026  -29.1135  -39.2414 H         1 UNK         0.0903 
     63 H63        15.0855  -29.8757  -40.7546 H         1 UNK         0.0903 
     64 H64        16.1117  -30.0271  -39.3227 H         1 UNK         0.0903 
     65 H65        16.3253  -28.6320  -42.2123 H         1 UNK         0.3096 
     66 H66        16.7956  -25.8545  -41.5990 H         1 UNK         0.1121 
     67 H67        17.3674  -25.5733  -43.8995 H         1 UNK         0.0849 
     68 H68        17.8673  -27.2160  -44.1023 H         1 UNK         0.0849 
     69 H69        14.9519  -28.3848  -46.1828 H         1 UNK         0.0865 
     70 H70        16.3462  -27.3849  -46.4953 H         1 UNK         0.0865 
     71 H71        15.3158  -30.1523  -44.1348 H         1 UNK         0.1346 
     72 H72        19.0821  -32.1774  -44.4721 H         1 UNK         0.1412 
     73 H73        18.4319  -28.5050  -46.5797 H         1 UNK         0.1426 
     74 H74        20.3712  -30.0364  -47.1437 H         1 UNK         0.0716 
     75 H75        20.6544  -31.4580  -46.1771 H         1 UNK         0.0716 
     76 H76        21.4996  -27.8754  -46.8405 H         1 UNK         0.0695 
     77 H77        20.3479  -27.4766  -45.6067 H         1 UNK         0.0695 
     78 H78        22.2379  -25.8573  -45.7051 H         1 UNK         0.0983 
     79 H79        22.5393  -27.0813  -43.0603 H         1 UNK         0.3095 
     80 H80        21.3116  -26.3874  -41.3589 H         1 UNK         0.0454 
     81 H81        22.4526  -24.1774  -41.3237 H         1 UNK         0.0851 
     82 H82        20.9425  -23.3567  -41.6945 H         1 UNK         0.0851 
     83 H83        21.1410  -24.1951  -40.1557 H         1 UNK         0.0851 
     84 H84        18.8756  -24.7745  -41.9031 H         1 UNK         0.2976 
     85 H85        23.5078  -27.7809  -47.1926 H         1 UNK         0.3116 
     86 H86        26.2407  -27.2074  -46.6388 H         1 UNK         0.0646 
     87 H87        26.6460  -28.6365  -48.6485 H         1 UNK         0.0847 
     88 H88        25.3494  -27.4918  -48.9412 H         1 UNK         0.0847 
     89 H89        24.9774  -29.1861  -48.6153 H         1 UNK         0.0847 
     90 H90        24.2180  -29.8481  -45.5950 H         1 UNK         0.3040 
     91 H91        26.3231  -31.7583  -45.0350 H         1 UNK         0.1015 
     92 H92        23.9833  -32.5039  -45.3639 H         1 UNK         0.0786 
     93 H93        23.4493  -31.5644  -43.9734 H         1 UNK         0.0786 
     94 H94        24.5293  -32.9296  -43.7504 H         1 UNK         0.0786 
     95 H95        24.3047  -29.6441  -42.9122 H         1 UNK         0.3172 
     96 H96        26.2730  -28.5597  -41.3211 H         1 UNK         0.0595 
     97 H97        26.6617  -30.8942  -40.3726 H         1 UNK         0.0839 
     98 H98        24.9516  -31.0080  -39.9780 H         1 UNK         0.0839 
     99 H99        25.9832  -29.8441  -39.1666 H         1 UNK         0.0839 
    100 H100       24.9382  -28.1543  -38.9958 H         1 UNK         0.2998 
    101 H101       22.4506  -26.7568  -39.5892 H         1 UNK         0.0822 
    102 H102       24.0261  -25.8894  -37.8694 H         1 UNK         0.0787 
    103 H103       22.4841  -26.3090  -37.1420 H         1 UNK         0.0787 
    104 H104       23.8620  -27.3819  -36.9427 H         1 UNK         0.0787 
    105 H105       20.3898  -27.4306  -38.9155 H         1 UNK         0.3055 
    106 H106       18.6555  -28.7804  -38.5898 H         1 UNK         0.1106 
    107 H107       20.4125  -30.0382  -36.4156 H         1 UNK         0.0828 
    108 H108       19.4225  -28.5913  -36.2283 H         1 UNK         0.0828 
    109 H109       18.6612  -30.1465  -36.5176 H         1 UNK         0.0828 
    110 H110       19.6694  -29.4856  -40.8171 H         1 UNK         0.2931 
    111 H111       19.8036  -30.9474  -42.4016 H         1 UNK         0.0412 
    112 H112       23.2029  -32.0698  -40.7580 H         1 UNK         0.3472 
    113 H113       22.1002  -30.9537  -39.9881 H         1 UNK         0.3472 
    114 H114       18.9087  -33.2017  -40.5354 H         1 UNK         0.0970 
    115 H115       18.9829  -33.3029  -42.2625 H         1 UNK         0.0970 
    116 H116       15.5589  -32.4353  -43.3211 H         1 UNK         0.0612 
    117 H117       17.0291  -33.3413  -43.5515 H         1 UNK         0.0612 
@<TRIPOS>BOND
     1    1    2 1    
     2    1   62 1    
     3    1   63 1    
     4    1   64 1    
     5    2    3 2    
     6    2    4 am   BACKBONE|DICT|INTERRES
     7    4    5 1    
     8    4   65 1    
     9    5    6 1    
    10    5   25 1    
    11    5   66 1    
    12    6    7 1    
    13    6   67 1    
    14    6   68 1    
    15    7    8 1    
    16    8    9 1    
    17    8   69 1    
    18    8   70 1    
    19    9   10 ar   
    20    9   14 ar   
    21   10   11 ar   
    22   10   71 1    
    23   11   12 ar   
    24   11   61 1    
    25   12   13 ar   
    26   12   72 1    
    27   13   14 ar   
    28   13   15 1    
    29   14   73 1    
    30   15   16 1    
    31   15   74 1    
    32   15   75 1    
    33   16   17 1    
    34   17   18 1    
    35   17   76 1    
    36   17   77 1    
    37   18   19 1    
    38   18   27 1    
    39   18   78 1    
    40   19   20 am   BACKBONE|DICT|INTERRES
    41   19   79 1    
    42   20   21 2    
    43   20   22 1    
    44   22   23 1    
    45   22   24 1    
    46   22   80 1    
    47   23   81 1    
    48   23   82 1    
    49   23   83 1    
    50   24   25 am   BACKBONE|DICT|INTERRES
    51   24   84 1    
    52   25   26 2    
    53   27   28 2    
    54   27   29 am   BACKBONE|DICT|INTERRES
    55   29   30 1    
    56   29   85 1    
    57   30   31 1    
    58   30   32 1    
    59   30   86 1    
    60   31   87 1    
    61   31   88 1    
    62   31   89 1    
    63   32   33 2    
    64   32   34 am   BACKBONE|DICT|INTERRES
    65   34   35 1    
    66   34   90 1    
    67   35   36 1    
    68   35   37 1    
    69   35   91 1    
    70   36   92 1    
    71   36   93 1    
    72   36   94 1    
    73   37   38 2    
    74   37   39 am   BACKBONE|DICT|INTERRES
    75   39   40 1    
    76   39   95 1    
    77   40   41 1    
    78   40   42 1    
    79   40   96 1    
    80   41   97 1    
    81   41   98 1    
    82   41   99 1    
    83   42   43 2    
    84   42   44 am   BACKBONE|DICT|INTERRES
    85   44   45 1    
    86   44  100 1    
    87   45   46 1    
    88   45   47 1    
    89   45  101 1    
    90   46  102 1    
    91   46  103 1    
    92   46  104 1    
    93   47   48 2    
    94   47   49 am   BACKBONE|DICT|INTERRES
    95   49   50 1    
    96   49  105 1    
    97   50   51 1    
    98   50   52 1    
    99   50  106 1    
   100   51  107 1    
   101   51  108 1    
   102   51  109 1    
   103   52   53 2    
   104   52   54 am   BACKBONE|DICT|INTERRES
   105   54   55 1    
   106   54  110 1    
   107   55   56 1    
   108   55   59 1    
   109   55  111 1    
   110   56   57 am   BACKBONE|DICT|INTERRES
   111   56   58 2    
   112   57  112 1    
   113   57  113 1    
   114   59   60 1    
   115   59  114 1    
   116   59  115 1    
   117   60   61 1    
   118   61  116 1    
   119   61  117 1    
@<TRIPOS>SUBSTRUCTURE
     1 UNK         1 GROUP             0       ****    0 ROOT    
