@<TRIPOS>MOLECULE
3R8
117   119    1
SMALL
USER_CHARGES


@<TRIPOS>ATOM
      1 CA         16.6036  -24.8979  -48.4555 C.3       0 UNK        -0.2013 
      2 C          17.1432  -25.7133  -47.2907 C.2       0 UNK         0.4866 
      3 O          18.3156  -25.5784  -46.9393 O.2       0 UNK        -0.5176 
      4 N          16.2958  -26.5500  -46.6779 N.am      1 UNK        -0.4884 
      5 CA         16.6131  -27.4419  -45.5529 C.3       1 UNK         0.0853 
      6 C6         15.6016  -28.6192  -45.4762 C.3       10 UNK        -0.0849 
      7 S7         15.9876  -29.8876  -46.7330 S.3       10 UNK        -0.2776 
      8 C8         16.8242  -31.1748  -45.7393 C.3       10 UNK         0.0316 
      9 C9         17.9447  -30.6043  -44.8784 C.ar      10 UNK        -0.0863 
     10 C10        17.7491  -30.4250  -43.5048 C.ar      10 UNK        -0.1009 
     11 C11        18.7379  -29.8283  -42.7203 C.ar      10 UNK        -0.0712 
     12 C12        19.9426  -29.4451  -43.3115 C.ar      10 UNK        -0.0894 
     13 C13        20.1540  -29.6158  -44.6817 C.ar      10 UNK        -0.0745 
     14 C14        19.1543  -30.2088  -45.4596 C.ar      10 UNK        -0.0972 
     15 C15        21.4417  -29.1277  -45.3296 C.3       10 UNK         0.0209 
     16 S16        21.2287  -27.4496  -45.9922 S.3       10 UNK        -0.2568 
     17 C17        22.3577  -26.4414  -44.9580 C.3       10 UNK        -0.0983 
     18 CA         21.8188  -26.0099  -43.5577 C.3       3 UNK         0.0876 
     19 N          20.3650  -25.7941  -43.5828 N.am      3 UNK        -0.4424 
     20 C          19.6295  -25.0336  -42.7607 C.2       2 UNK         0.4918 
     21 O          20.1055  -24.4354  -41.7958 O.2       2 UNK        -0.4875 
     22 CA         18.1182  -24.9300  -43.0379 C.3       2 UNK         0.0481 
     23 CB         17.7053  -23.4685  -43.2800 C.3       2 UNK        -0.1831 
     24 N          17.7166  -25.7331  -44.1947 N.am      2 UNK        -0.4498 
     25 C          16.7652  -26.6730  -44.2189 C.2       1 UNK         0.5027 
     26 O          16.0357  -26.9311  -43.2597 O.2       1 UNK        -0.4969 
     27 C          22.3015  -26.9077  -42.3876 C.2       3 UNK         0.5005 
     28 O          23.2072  -27.7279  -42.5586 O.2       3 UNK        -0.5279 
     29 N          21.7012  -26.7396  -41.2009 N.am      4 UNK        -0.4463 
     30 CA         21.9549  -27.5155  -39.9793 C.3       4 UNK         0.0283 
     31 CB         20.8952  -27.1490  -38.9274 C.3       4 UNK        -0.1875 
     32 C          23.3698  -27.3441  -39.3947 C.2       4 UNK         0.4949 
     33 O          23.7898  -28.1576  -38.5727 O.2       4 UNK        -0.5039 
     34 N          24.0834  -26.2949  -39.8225 N.am      5 UNK        -0.4663 
     35 CA         25.4982  -26.0788  -39.5197 C.3       5 UNK         0.0242 
     36 CB         25.8328  -24.5944  -39.7409 C.3       5 UNK        -0.1982 
     37 C          26.4335  -26.9708  -40.3590 C.2       5 UNK         0.5017 
     38 O          27.5872  -27.1479  -39.9658 O.2       5 UNK        -0.5012 
     39 N          25.9438  -27.4898  -41.4951 N.am      6 UNK        -0.4439 
     40 CA         26.7099  -28.3029  -42.4385 C.3       6 UNK         0.0297 
     41 CB         26.5088  -27.7604  -43.8640 C.3       6 UNK        -0.2006 
     42 C          26.3109  -29.7824  -42.3637 C.2       6 UNK         0.4892 
     43 O          27.1980  -30.6326  -42.2741 O.2       6 UNK        -0.5089 
     44 N          25.0034  -30.0694  -42.4204 N.am      7 UNK        -0.4243 
     45 CA         24.4629  -31.4308  -42.4378 C.3       7 UNK         0.0196 
     46 CB         23.3627  -31.5159  -43.5076 C.3       7 UNK        -0.2007 
     47 C          23.8825  -31.8194  -41.0733 C.2       7 UNK         0.5020 
     48 O          23.5451  -30.9529  -40.2673 O.2       7 UNK        -0.5147 
     49 N          23.7133  -33.1325  -40.8736 N.am      8 UNK        -0.4734 
     50 CA         23.0376  -33.7223  -39.7112 C.3       8 UNK         0.0238 
     51 CB         23.5496  -35.1607  -39.5189 C.3       8 UNK        -0.1912 
     52 C          21.4981  -33.7019  -39.8200 C.2       8 UNK         0.5038 
     53 O          20.8300  -34.0974  -38.8638 O.2       8 UNK        -0.5046 
     54 N          20.9702  -33.2655  -40.9731 N.am      9 UNK        -0.4200 
     55 CA         19.5389  -33.1529  -41.3101 C.3       9 UNK         0.0839 
     56 C          18.8166  -34.5159  -41.5338 C.2       9 UNK         0.5513 
     57 N          19.5294  -35.6243  -41.6967 N.am      9 UNK        -0.7519 
     58 O          17.5908  -34.5704  -41.5922 O.2       9 UNK        -0.4960 
     59 C59        18.7442  -32.2108  -40.3580 C.3       10 UNK        -0.0876 
     60 S60        19.5144  -30.5678  -40.1558 S.3       10 UNK        -0.2414 
     61 C61        18.4881  -29.5391  -41.2480 C.3       10 UNK         0.0169 
     62 H62        16.6894  -23.8333  -48.2392 H         1 UNK         0.0903 
     63 H63        17.1771  -25.1096  -49.3576 H         1 UNK         0.0903 
     64 H64        15.5563  -25.1200  -48.6596 H         1 UNK         0.0903 
     65 H65        15.3415  -26.5998  -47.0056 H         1 UNK         0.3096 
     66 H66        17.6024  -27.8659  -45.7390 H         1 UNK         0.1121 
     67 H67        15.5934  -29.0969  -44.4965 H         1 UNK         0.0849 
     68 H68        14.5810  -28.2638  -45.6274 H         1 UNK         0.0849 
     69 H69        16.0839  -31.6822  -45.1186 H         1 UNK         0.0865 
     70 H70        17.2298  -31.9347  -46.4088 H         1 UNK         0.0865 
     71 H71        16.8107  -30.7146  -43.0520 H         1 UNK         0.1346 
     72 H72        20.7082  -29.0040  -42.6955 H         1 UNK         0.1412 
     73 H73        19.3015  -30.3275  -46.5246 H         1 UNK         0.1426 
     74 H74        22.2648  -29.1377  -44.6173 H         1 UNK         0.0716 
     75 H75        21.7292  -29.7989  -46.1401 H         1 UNK         0.0716 
     76 H76        22.5394  -25.5344  -45.5364 H         1 UNK         0.0695 
     77 H77        23.3341  -26.9246  -44.9093 H         1 UNK         0.0695 
     78 H78        22.2721  -25.0395  -43.3431 H         1 UNK         0.0983 
     79 H79        19.8925  -26.2899  -44.3252 H         1 UNK         0.3095 
     80 H80        17.6136  -25.2872  -42.1382 H         1 UNK         0.0454 
     81 H81        16.6287  -23.3814  -43.4260 H         1 UNK         0.0851 
     82 H82        18.1975  -23.0509  -44.1592 H         1 UNK         0.0851 
     83 H83        17.9666  -22.8389  -42.4283 H         1 UNK         0.0851 
     84 H84        18.1932  -25.5458  -45.0756 H         1 UNK         0.2976 
     85 H85        21.0110  -25.9965  -41.1373 H         1 UNK         0.3116 
     86 H86        21.8415  -28.5719  -40.2312 H         1 UNK         0.0646 
     87 H87        19.8863  -27.3370  -39.2926 H         1 UNK         0.0847 
     88 H88        21.0232  -27.7444  -38.0223 H         1 UNK         0.0847 
     89 H89        20.9586  -26.0989  -38.6398 H         1 UNK         0.0847 
     90 H90        23.6470  -25.6520  -40.4668 H         1 UNK         0.3040 
     91 H91        25.6746  -26.3176  -38.4682 H         1 UNK         0.1015 
     92 H92        25.6797  -24.2948  -40.7785 H         1 UNK         0.0786 
     93 H93        26.8752  -24.3885  -39.4932 H         1 UNK         0.0786 
     94 H94        25.2193  -23.9507  -39.1101 H         1 UNK         0.0786 
     95 H95        24.9618  -27.3547  -41.7141 H         1 UNK         0.3172 
     96 H96        27.7765  -28.2372  -42.2135 H         1 UNK         0.0595 
     97 H97        25.4650  -27.8056  -44.1748 H         1 UNK         0.0839 
     98 H98        27.0877  -28.3385  -44.5855 H         1 UNK         0.0839 
     99 H99        26.8364  -26.7237  -43.9426 H         1 UNK         0.0839 
    100 H100       24.3260  -29.3115  -42.4337 H         1 UNK         0.2998 
    101 H101       25.2483  -32.1441  -42.6978 H         1 UNK         0.0822 
    102 H102       23.0411  -32.5462  -43.6626 H         1 UNK         0.0787 
    103 H103       22.4823  -30.9429  -43.2165 H         1 UNK         0.0787 
    104 H104       23.7127  -31.1427  -44.4702 H         1 UNK         0.0787 
    105 H105       24.0215  -33.7771  -41.5887 H         1 UNK         0.3055 
    106 H106       23.2991  -33.1446  -38.8214 H         1 UNK         0.1106 
    107 H107       24.6307  -35.1818  -39.3795 H         1 UNK         0.0828 
    108 H108       23.1045  -35.6206  -38.6354 H         1 UNK         0.0828 
    109 H109       23.3075  -35.7951  -40.3723 H         1 UNK         0.0828 
    110 H110       21.6088  -32.9677  -41.6936 H         1 UNK         0.2931 
    111 H111       19.5278  -32.6822  -42.2937 H         1 UNK         0.0412 
    112 H112       19.0530  -36.4993  -41.8512 H         1 UNK         0.3472 
    113 H113       20.5353  -35.5961  -41.6609 H         1 UNK         0.3472 
    114 H114       17.7234  -32.0773  -40.7198 H         1 UNK         0.0970 
    115 H115       18.6479  -32.6627  -39.3699 H         1 UNK         0.0970 
    116 H116       17.4356  -29.6715  -40.9929 H         1 UNK         0.0612 
    117 H117       18.7153  -28.4899  -41.0565 H         1 UNK         0.0612 
@<TRIPOS>BOND
     1    1    2 1    
     2    1   62 1    
     3    1   63 1    
     4    1   64 1    
     5    2    3 2    
     6    2    4 am   BACKBONE|DICT|INTERRES
     7    4    5 1    
     8    4   65 1    
     9    5    6 1    
    10    5   25 1    
    11    5   66 1    
    12    6    7 1    
    13    6   67 1    
    14    6   68 1    
    15    7    8 1    
    16    8    9 1    
    17    8   69 1    
    18    8   70 1    
    19    9   10 ar   
    20    9   14 ar   
    21   10   11 ar   
    22   10   71 1    
    23   11   12 ar   
    24   11   61 1    
    25   12   13 ar   
    26   12   72 1    
    27   13   14 ar   
    28   13   15 1    
    29   14   73 1    
    30   15   16 1    
    31   15   74 1    
    32   15   75 1    
    33   16   17 1    
    34   17   18 1    
    35   17   76 1    
    36   17   77 1    
    37   18   19 1    
    38   18   27 1    
    39   18   78 1    
    40   19   20 am   BACKBONE|DICT|INTERRES
    41   19   79 1    
    42   20   21 2    
    43   20   22 1    
    44   22   23 1    
    45   22   24 1    
    46   22   80 1    
    47   23   81 1    
    48   23   82 1    
    49   23   83 1    
    50   24   25 am   BACKBONE|DICT|INTERRES
    51   24   84 1    
    52   25   26 2    
    53   27   28 2    
    54   27   29 am   BACKBONE|DICT|INTERRES
    55   29   30 1    
    56   29   85 1    
    57   30   31 1    
    58   30   32 1    
    59   30   86 1    
    60   31   87 1    
    61   31   88 1    
    62   31   89 1    
    63   32   33 2    
    64   32   34 am   BACKBONE|DICT|INTERRES
    65   34   35 1    
    66   34   90 1    
    67   35   36 1    
    68   35   37 1    
    69   35   91 1    
    70   36   92 1    
    71   36   93 1    
    72   36   94 1    
    73   37   38 2    
    74   37   39 am   BACKBONE|DICT|INTERRES
    75   39   40 1    
    76   39   95 1    
    77   40   41 1    
    78   40   42 1    
    79   40   96 1    
    80   41   97 1    
    81   41   98 1    
    82   41   99 1    
    83   42   43 2    
    84   42   44 am   BACKBONE|DICT|INTERRES
    85   44   45 1    
    86   44  100 1    
    87   45   46 1    
    88   45   47 1    
    89   45  101 1    
    90   46  102 1    
    91   46  103 1    
    92   46  104 1    
    93   47   48 2    
    94   47   49 am   BACKBONE|DICT|INTERRES
    95   49   50 1    
    96   49  105 1    
    97   50   51 1    
    98   50   52 1    
    99   50  106 1    
   100   51  107 1    
   101   51  108 1    
   102   51  109 1    
   103   52   53 2    
   104   52   54 am   BACKBONE|DICT|INTERRES
   105   54   55 1    
   106   54  110 1    
   107   55   56 1    
   108   55   59 1    
   109   55  111 1    
   110   56   57 am   BACKBONE|DICT|INTERRES
   111   56   58 2    
   112   57  112 1    
   113   57  113 1    
   114   59   60 1    
   115   59  114 1    
   116   59  115 1    
   117   60   61 1    
   118   61  116 1    
   119   61  117 1    
@<TRIPOS>SUBSTRUCTURE
     1 UNK         1 GROUP             0       ****    0 ROOT    
