@<TRIPOS>MOLECULE
3R8
117   119    1
SMALL
USER_CHARGES


@<TRIPOS>ATOM
      1 CA         13.3665  -26.0381  -41.1171 C.3       0 UNK        -0.2013 
      2 C          14.0576  -25.2791  -42.2401 C.2       0 UNK         0.4866 
      3 O          13.7556  -24.1061  -42.4635 O.2       0 UNK        -0.5176 
      4 N          14.9760  -25.9409  -42.9541 N.am      1 UNK        -0.4884 
      5 CA         15.7746  -25.3527  -44.0340 C.3       1 UNK         0.0853 
      6 C6         16.4846  -26.4368  -44.8802 C.3       10 UNK        -0.0849 
      7 S7         15.3351  -27.5096  -45.8052 S.3       10 UNK        -0.2776 
      8 C8         15.7917  -29.1767  -45.2024 C.3       10 UNK         0.0316 
      9 C9         17.2586  -29.5848  -45.3835 C.ar      10 UNK        -0.0863 
     10 C10        17.7470  -30.6547  -44.6263 C.ar      10 UNK        -0.1009 
     11 C11        19.0830  -31.0549  -44.7236 C.ar      10 UNK        -0.0712 
     12 C12        19.9434  -30.3740  -45.5885 C.ar      10 UNK        -0.0894 
     13 C13        19.4731  -29.3075  -46.3586 C.ar      10 UNK        -0.0745 
     14 C14        18.1288  -28.9328  -46.2687 C.ar      10 UNK        -0.0972 
     15 C15        20.4207  -28.5448  -47.2748 C.3       10 UNK         0.0209 
     16 S16        21.5536  -27.4622  -46.3426 S.3       10 UNK        -0.2568 
     17 C17        20.3794  -26.4080  -45.4256 C.3       10 UNK        -0.0983 
     18 CA         21.0521  -25.2734  -44.6098 C.3       3 UNK         0.0876 
     19 N          20.0517  -24.3340  -44.1150 N.am      3 UNK        -0.4424 
     20 C          19.5704  -23.2816  -44.7804 C.2       2 UNK         0.4918 
     21 O          19.9654  -22.9346  -45.8946 O.2       2 UNK        -0.4875 
     22 CA         18.3891  -22.5520  -44.1155 C.3       2 UNK         0.0481 
     23 CB         18.1393  -21.1574  -44.7183 C.3       2 UNK        -0.1831 
     24 N          17.1891  -23.3723  -44.2851 N.am      2 UNK        -0.4498 
     25 C          16.8395  -24.3851  -43.4811 C.2       1 UNK         0.5027 
     26 O          17.3873  -24.6218  -42.4007 O.2       1 UNK        -0.4969 
     27 C          21.8310  -25.8051  -43.3934 C.2       3 UNK         0.5005 
     28 O          21.2959  -25.8187  -42.2804 O.2       3 UNK        -0.5279 
     29 N          23.0727  -26.2401  -43.6293 N.am      4 UNK        -0.4463 
     30 CA         23.9700  -26.8258  -42.6366 C.3       4 UNK         0.0283 
     31 CB         24.7030  -25.7155  -41.8565 C.3       4 UNK        -0.1875 
     32 C          24.9200  -27.8034  -43.3424 C.2       4 UNK         0.4949 
     33 O          26.1395  -27.6711  -43.2325 O.2       4 UNK        -0.5039 
     34 N          24.3386  -28.7551  -44.0883 N.am      5 UNK        -0.4663 
     35 CA         25.0608  -29.7893  -44.8432 C.3       5 UNK         0.0242 
     36 CB         24.0651  -30.5557  -45.7292 C.3       5 UNK        -0.1982 
     37 C          25.8458  -30.7701  -43.9515 C.2       5 UNK         0.5017 
     38 O          26.8810  -31.2847  -44.3758 O.2       5 UNK        -0.5012 
     39 N          25.3439  -30.9904  -42.7336 N.am      6 UNK        -0.4439 
     40 CA         25.9530  -31.7541  -41.6534 C.3       6 UNK         0.0297 
     41 CB         25.7565  -33.2637  -41.8836 C.3       6 UNK        -0.2006 
     42 C          25.2949  -31.2902  -40.3494 C.2       6 UNK         0.4892 
     43 O          24.1997  -30.7187  -40.3959 O.2       6 UNK        -0.5089 
     44 N          25.9616  -31.5469  -39.2160 N.am      7 UNK        -0.4243 
     45 CA         25.4967  -31.2112  -37.8661 C.3       7 UNK         0.0196 
     46 CB         26.5774  -31.6006  -36.8431 C.3       7 UNK        -0.2007 
     47 C          24.1574  -31.8975  -37.5512 C.2       7 UNK         0.5020 
     48 O          24.1240  -33.1207  -37.4045 O.2       7 UNK        -0.5147 
     49 N          23.0763  -31.1036  -37.5372 N.am      8 UNK        -0.4734 
     50 CA         21.6707  -31.5244  -37.4248 C.3       8 UNK         0.0238 
     51 CB         21.3766  -32.0459  -36.0016 C.3       8 UNK        -0.1912 
     52 C          21.2391  -32.5211  -38.5243 C.2       8 UNK         0.5038 
     53 O          20.3851  -33.3729  -38.2712 O.2       8 UNK        -0.5046 
     54 N          21.8586  -32.4116  -39.7099 N.am      9 UNK        -0.4200 
     55 CA         21.7469  -33.3451  -40.8440 C.3       9 UNK         0.0839 
     56 C          22.3436  -34.7617  -40.5715 C.2       9 UNK         0.5513 
     57 N          23.1484  -34.9644  -39.5343 N.am      9 UNK        -0.7519 
     58 O          22.1071  -35.6923  -41.3376 O.2       9 UNK        -0.4960 
     59 C59        20.3190  -33.3971  -41.4614 C.3       10 UNK        -0.0876 
     60 S60        19.7985  -31.7882  -42.1499 S.3       10 UNK        -0.2414 
     61 C61        19.5876  -32.2309  -43.9022 C.3       10 UNK         0.0169 
     62 H62        13.7188  -27.0668  -41.0423 H         1 UNK         0.0903 
     63 H63        13.5520  -25.5460  -40.1627 H         1 UNK         0.0903 
     64 H64        12.2902  -26.0601  -41.2860 H         1 UNK         0.0903 
     65 H65        15.1985  -26.8965  -42.7166 H         1 UNK         0.3096 
     66 H66        15.1010  -24.7866  -44.6819 H         1 UNK         0.1121 
     67 H67        17.1326  -27.0440  -44.2446 H         1 UNK         0.0849 
     68 H68        17.1421  -25.9767  -45.6210 H         1 UNK         0.0849 
     69 H69        15.1657  -29.9088  -45.7142 H         1 UNK         0.0865 
     70 H70        15.5283  -29.2357  -44.1451 H         1 UNK         0.0865 
     71 H71        17.0872  -31.1778  -43.9469 H         1 UNK         0.1346 
     72 H72        20.9809  -30.6678  -45.6611 H         1 UNK         0.1412 
     73 H73        17.7750  -28.1130  -46.8768 H         1 UNK         0.1426 
     74 H74        19.8636  -27.9425  -47.9943 H         1 UNK         0.0716 
     75 H75        21.0092  -29.2531  -47.8597 H         1 UNK         0.0716 
     76 H76        19.7701  -27.0334  -44.7704 H         1 UNK         0.0695 
     77 H77        19.6939  -25.9796  -46.1585 H         1 UNK         0.0695 
     78 H78        21.7530  -24.7316  -45.2494 H         1 UNK         0.0983 
     79 H79        19.7033  -24.5473  -43.1868 H         1 UNK         0.3095 
     80 H80        18.6136  -22.4245  -43.0543 H         1 UNK         0.0454 
     81 H81        17.8903  -21.2080  -45.7790 H         1 UNK         0.0851 
     82 H82        19.0247  -20.5280  -44.6213 H         1 UNK         0.0851 
     83 H83        17.3225  -20.6471  -44.2078 H         1 UNK         0.0851 
     84 H84        16.7075  -23.2668  -45.1673 H         1 UNK         0.2976 
     85 H85        23.4195  -26.2323  -44.5804 H         1 UNK         0.3116 
     86 H86        23.3870  -27.4171  -41.9268 H         1 UNK         0.0646 
     87 H87        25.3006  -25.0867  -42.5174 H         1 UNK         0.0847 
     88 H88        25.3759  -26.1406  -41.1108 H         1 UNK         0.0847 
     89 H89        24.0010  -25.0720  -41.3260 H         1 UNK         0.0847 
     90 H90        23.3296  -28.7729  -44.1441 H         1 UNK         0.3040 
     91 H91        25.7840  -29.2876  -45.4902 H         1 UNK         0.1015 
     92 H92        23.5468  -29.8877  -46.4173 H         1 UNK         0.0786 
     93 H93        23.3155  -31.0775  -45.1333 H         1 UNK         0.0786 
     94 H94        24.5785  -31.3048  -46.3337 H         1 UNK         0.0786 
     95 H95        24.5062  -30.4952  -42.4503 H         1 UNK         0.3172 
     96 H96        27.0187  -31.5208  -41.6061 H         1 UNK         0.0595 
     97 H97        24.7053  -33.5188  -42.0108 H         1 UNK         0.0839 
     98 H98        26.1350  -33.8466  -41.0430 H         1 UNK         0.0839 
     99 H99        26.2880  -33.6005  -42.7737 H         1 UNK         0.0839 
    100 H100       26.8390  -32.0434  -39.2749 H         1 UNK         0.2998 
    101 H101       25.3610  -30.1286  -37.8182 H         1 UNK         0.0822 
    102 H102       27.5080  -31.0619  -37.0229 H         1 UNK         0.0787 
    103 H103       26.2565  -31.3615  -35.8282 H         1 UNK         0.0787 
    104 H104       26.7965  -32.6690  -36.8716 H         1 UNK         0.0787 
    105 H105       23.2167  -30.1189  -37.7214 H         1 UNK         0.3055 
    106 H106       21.0648  -30.6304  -37.5815 H         1 UNK         0.1106 
    107 H107       20.3111  -32.2342  -35.8646 H         1 UNK         0.0828 
    108 H108       21.6747  -31.3218  -35.2436 H         1 UNK         0.0828 
    109 H109       21.9002  -32.9805  -35.7974 H         1 UNK         0.0828 
    110 H110       22.5640  -31.6895  -39.8186 H         1 UNK         0.2931 
    111 H111       22.4021  -32.9276  -41.6089 H         1 UNK         0.0412 
    112 H112       23.3666  -34.2232  -38.8765 H         1 UNK         0.3472 
    113 H113       23.5304  -35.8849  -39.3875 H         1 UNK         0.3472 
    114 H114       20.2735  -34.1439  -42.2558 H         1 UNK         0.0970 
    115 H115       19.5841  -33.7175  -40.7223 H         1 UNK         0.0970 
    116 H116       18.8787  -33.0563  -43.9845 H         1 UNK         0.0612 
    117 H117       20.5378  -32.5954  -44.2962 H         1 UNK         0.0612 
@<TRIPOS>BOND
     1    1    2 1    
     2    1   62 1    
     3    1   63 1    
     4    1   64 1    
     5    2    3 2    
     6    2    4 am   BACKBONE|DICT|INTERRES
     7    4    5 1    
     8    4   65 1    
     9    5    6 1    
    10    5   25 1    
    11    5   66 1    
    12    6    7 1    
    13    6   67 1    
    14    6   68 1    
    15    7    8 1    
    16    8    9 1    
    17    8   69 1    
    18    8   70 1    
    19    9   10 ar   
    20    9   14 ar   
    21   10   11 ar   
    22   10   71 1    
    23   11   12 ar   
    24   11   61 1    
    25   12   13 ar   
    26   12   72 1    
    27   13   14 ar   
    28   13   15 1    
    29   14   73 1    
    30   15   16 1    
    31   15   74 1    
    32   15   75 1    
    33   16   17 1    
    34   17   18 1    
    35   17   76 1    
    36   17   77 1    
    37   18   19 1    
    38   18   27 1    
    39   18   78 1    
    40   19   20 am   BACKBONE|DICT|INTERRES
    41   19   79 1    
    42   20   21 2    
    43   20   22 1    
    44   22   23 1    
    45   22   24 1    
    46   22   80 1    
    47   23   81 1    
    48   23   82 1    
    49   23   83 1    
    50   24   25 am   BACKBONE|DICT|INTERRES
    51   24   84 1    
    52   25   26 2    
    53   27   28 2    
    54   27   29 am   BACKBONE|DICT|INTERRES
    55   29   30 1    
    56   29   85 1    
    57   30   31 1    
    58   30   32 1    
    59   30   86 1    
    60   31   87 1    
    61   31   88 1    
    62   31   89 1    
    63   32   33 2    
    64   32   34 am   BACKBONE|DICT|INTERRES
    65   34   35 1    
    66   34   90 1    
    67   35   36 1    
    68   35   37 1    
    69   35   91 1    
    70   36   92 1    
    71   36   93 1    
    72   36   94 1    
    73   37   38 2    
    74   37   39 am   BACKBONE|DICT|INTERRES
    75   39   40 1    
    76   39   95 1    
    77   40   41 1    
    78   40   42 1    
    79   40   96 1    
    80   41   97 1    
    81   41   98 1    
    82   41   99 1    
    83   42   43 2    
    84   42   44 am   BACKBONE|DICT|INTERRES
    85   44   45 1    
    86   44  100 1    
    87   45   46 1    
    88   45   47 1    
    89   45  101 1    
    90   46  102 1    
    91   46  103 1    
    92   46  104 1    
    93   47   48 2    
    94   47   49 am   BACKBONE|DICT|INTERRES
    95   49   50 1    
    96   49  105 1    
    97   50   51 1    
    98   50   52 1    
    99   50  106 1    
   100   51  107 1    
   101   51  108 1    
   102   51  109 1    
   103   52   53 2    
   104   52   54 am   BACKBONE|DICT|INTERRES
   105   54   55 1    
   106   54  110 1    
   107   55   56 1    
   108   55   59 1    
   109   55  111 1    
   110   56   57 am   BACKBONE|DICT|INTERRES
   111   56   58 2    
   112   57  112 1    
   113   57  113 1    
   114   59   60 1    
   115   59  114 1    
   116   59  115 1    
   117   60   61 1    
   118   61  116 1    
   119   61  117 1    
@<TRIPOS>SUBSTRUCTURE
     1 UNK         1 GROUP             0       ****    0 ROOT    
