@<TRIPOS>MOLECULE
3R8
117   119    1
SMALL
USER_CHARGES


@<TRIPOS>ATOM
      1 CA         15.0596  -22.6772  -41.8170 C.3       0 UNK        -0.2013 
      2 C          16.4238  -23.2961  -42.0840 C.2       0 UNK         0.4866 
      3 O          17.4384  -22.7153  -41.6997 O.2       0 UNK        -0.5176 
      4 N          16.4453  -24.4686  -42.7346 N.am      1 UNK        -0.4884 
      5 CA         17.6343  -25.2361  -43.1250 C.3       1 UNK         0.0853 
      6 C6         18.4370  -25.7791  -41.9096 C.3       10 UNK        -0.0849 
      7 S7         19.5852  -27.1139  -42.3886 S.3       10 UNK        -0.2776 
      8 C8         18.4908  -28.5669  -42.3226 C.3       10 UNK         0.0316 
      9 C9         19.0178  -29.6500  -43.2464 C.ar      10 UNK        -0.0863 
     10 C10        19.6895  -30.7617  -42.7338 C.ar      10 UNK        -0.1009 
     11 C11        20.2121  -31.7302  -43.5952 C.ar      10 UNK        -0.0712 
     12 C12        20.0794  -31.5668  -44.9786 C.ar      10 UNK        -0.0894 
     13 C13        19.4241  -30.4485  -45.5067 C.ar      10 UNK        -0.0745 
     14 C14        18.8614  -29.5155  -44.6283 C.ar      10 UNK        -0.0972 
     15 C15        19.3534  -30.2649  -47.0244 C.3       10 UNK         0.0209 
     16 S16        19.4396  -28.5282  -47.6030 S.3       10 UNK        -0.2568 
     17 C17        20.9676  -27.9272  -46.8012 C.3       10 UNK        -0.0983 
     18 CA         21.2189  -26.4028  -46.9644 C.3       3 UNK         0.0876 
     19 N          20.0170  -25.6031  -46.7011 N.am      3 UNK        -0.4424 
     20 C          19.8761  -24.2993  -46.9799 C.2       2 UNK         0.4918 
     21 O          20.7252  -23.6305  -47.5693 O.2       2 UNK        -0.4875 
     22 CA         18.5794  -23.6147  -46.4995 C.3       2 UNK         0.0481 
     23 CB         17.5748  -23.5048  -47.6574 C.3       2 UNK        -0.1831 
     24 N          17.9301  -24.2717  -45.3560 N.am      2 UNK        -0.4498 
     25 C          18.4927  -24.4669  -44.1532 C.2       1 UNK         0.5027 
     26 O          19.6301  -24.0884  -43.8665 O.2       1 UNK        -0.4969 
     27 C          22.4041  -25.9929  -46.0602 C.2       3 UNK         0.5005 
     28 O          23.5528  -26.2237  -46.4394 O.2       3 UNK        -0.5279 
     29 N          22.1009  -25.4496  -44.8664 N.am      4 UNK        -0.4463 
     30 CA         23.0148  -25.1135  -43.7641 C.3       4 UNK         0.0283 
     31 CB         23.9976  -23.9990  -44.1798 C.3       4 UNK        -0.1875 
     32 C          23.7324  -26.3340  -43.1464 C.2       4 UNK         0.4949 
     33 O          24.7378  -26.1646  -42.4556 O.2       4 UNK        -0.5039 
     34 N          23.2087  -27.5401  -43.4017 N.am      5 UNK        -0.4663 
     35 CA         23.7684  -28.8144  -42.9508 C.3       5 UNK         0.0242 
     36 CB         23.2973  -29.9182  -43.9076 C.3       5 UNK        -0.1982 
     37 C          23.4064  -29.1371  -41.4918 C.2       5 UNK         0.5017 
     38 O          24.2391  -29.6978  -40.7787 O.2       5 UNK        -0.5012 
     39 N          22.1914  -28.7496  -41.0737 N.am      6 UNK        -0.4439 
     40 CA         21.6476  -28.8035  -39.7124 C.3       6 UNK         0.0297 
     41 CB         22.2135  -27.6266  -38.8867 C.3       6 UNK        -0.2006 
     42 C          21.8142  -30.1807  -39.0372 C.2       6 UNK         0.4892 
     43 O          21.1407  -31.1321  -39.4321 O.2       6 UNK        -0.5089 
     44 N          22.7089  -30.2615  -38.0427 N.am      7 UNK        -0.4243 
     45 CA         23.0015  -31.4469  -37.2319 C.3       7 UNK         0.0196 
     46 CB         23.8412  -31.0136  -36.0177 C.3       7 UNK        -0.2007 
     47 C          23.6899  -32.6038  -37.9836 C.2       7 UNK         0.5020 
     48 O          23.8538  -33.6737  -37.3965 O.2       7 UNK        -0.5147 
     49 N          24.0821  -32.3988  -39.2500 N.am      8 UNK        -0.4734 
     50 CA         24.6900  -33.4189  -40.1137 C.3       8 UNK         0.0238 
     51 CB         25.2419  -32.7449  -41.3789 C.3       8 UNK        -0.1912 
     52 C          23.7535  -34.5845  -40.4945 C.2       8 UNK         0.5038 
     53 O          24.2463  -35.5934  -41.0016 O.2       8 UNK        -0.5046 
     54 N          22.4446  -34.4449  -40.2535 N.am      9 UNK        -0.4200 
     55 CA         21.4350  -35.4907  -40.4475 C.3       9 UNK         0.0839 
     56 C          20.3377  -35.4368  -39.3496 C.2       9 UNK         0.5513 
     57 N          19.4428  -36.4153  -39.3187 N.am      9 UNK        -0.7519 
     58 O          20.2919  -34.5307  -38.5194 O.2       9 UNK        -0.4960 
     59 C59        20.8954  -35.5228  -41.9059 C.3       10 UNK        -0.0876 
     60 S60        19.7809  -34.1456  -42.3516 S.3       10 UNK        -0.2414 
     61 C61        20.9507  -32.9313  -43.0275 C.3       10 UNK         0.0169 
     62 H62        14.9107  -22.5461  -40.7455 H         1 UNK         0.0903 
     63 H63        14.9924  -21.6989  -42.2921 H         1 UNK         0.0903 
     64 H64        14.2471  -23.2954  -42.1983 H         1 UNK         0.0903 
     65 H65        15.5636  -24.8751  -43.0180 H         1 UNK         0.3096 
     66 H66        17.2436  -26.1038  -43.6588 H         1 UNK         0.1121 
     67 H67        17.7570  -26.1642  -41.1481 H         1 UNK         0.0849 
     68 H68        19.0036  -24.9817  -41.4253 H         1 UNK         0.0849 
     69 H69        18.4213  -28.9255  -41.2944 H         1 UNK         0.0865 
     70 H70        17.4781  -28.2983  -42.6258 H         1 UNK         0.0865 
     71 H71        19.8132  -30.8751  -41.6656 H         1 UNK         0.1346 
     72 H72        20.5044  -32.3041  -45.6459 H         1 UNK         0.1412 
     73 H73        18.3421  -28.6518  -45.0188 H         1 UNK         0.1426 
     74 H74        18.4234  -30.7061  -47.3846 H         1 UNK         0.0716 
     75 H75        20.1631  -30.8168  -47.5044 H         1 UNK         0.0716 
     76 H76        20.9207  -28.1834  -45.7424 H         1 UNK         0.0695 
     77 H77        21.8084  -28.4926  -47.2081 H         1 UNK         0.0695 
     78 H78        21.5173  -26.2153  -47.9983 H         1 UNK         0.0983 
     79 H79        19.2483  -26.0889  -46.2650 H         1 UNK         0.3095 
     80 H80        18.8464  -22.6040  -46.1842 H         1 UNK         0.0454 
     81 H81        16.6919  -22.9355  -47.3665 H         1 UNK         0.0851 
     82 H82        18.0188  -22.9925  -48.5123 H         1 UNK         0.0851 
     83 H83        17.2456  -24.4859  -48.0020 H         1 UNK         0.0851 
     84 H84        16.9835  -24.5927  -45.5029 H         1 UNK         0.2976 
     85 H85        21.1252  -25.2501  -44.6679 H         1 UNK         0.3116 
     86 H86        22.3815  -24.7119  -42.9715 H         1 UNK         0.0646 
     87 H87        24.5644  -23.6363  -43.3216 H         1 UNK         0.0847 
     88 H88        23.4707  -23.1436  -44.6024 H         1 UNK         0.0847 
     89 H89        24.7189  -24.3487  -44.9187 H         1 UNK         0.0847 
     90 H90        22.3746  -27.5793  -43.9672 H         1 UNK         0.3040 
     91 H91        24.8582  -28.7601  -43.0079 H         1 UNK         0.1015 
     92 H92        23.7041  -29.7706  -44.9083 H         1 UNK         0.0786 
     93 H93        22.2126  -29.9298  -43.9929 H         1 UNK         0.0786 
     94 H94        23.6141  -30.9050  -43.5730 H         1 UNK         0.0786 
     95 H95        21.5793  -28.3252  -41.7585 H         1 UNK         0.3172 
     96 H96        20.5722  -28.6467  -39.8054 H         1 UNK         0.0595 
     97 H97        21.9405  -26.6724  -39.3381 H         1 UNK         0.0839 
     98 H98        23.3019  -27.6536  -38.8197 H         1 UNK         0.0839 
     99 H99        21.8121  -27.6219  -37.8722 H         1 UNK         0.0839 
    100 H100       23.2413  -29.4314  -37.8262 H         1 UNK         0.2998 
    101 H101       22.0493  -31.8374  -36.8665 H         1 UNK         0.0822 
    102 H102       24.8059  -30.6047  -36.3210 H         1 UNK         0.0787 
    103 H103       23.3250  -30.2571  -35.4261 H         1 UNK         0.0787 
    104 H104       24.0392  -31.8573  -35.3549 H         1 UNK         0.0787 
    105 H105       23.9448  -31.4796  -39.6581 H         1 UNK         0.3055 
    106 H106       25.5289  -33.8561  -39.5678 H         1 UNK         0.1106 
    107 H107       25.9532  -31.9558  -41.1342 H         1 UNK         0.0828 
    108 H108       25.7620  -33.4638  -42.0134 H         1 UNK         0.0828 
    109 H109       24.4417  -32.3056  -41.9725 H         1 UNK         0.0828 
    110 H110       22.1081  -33.6048  -39.7996 H         1 UNK         0.2931 
    111 H111       21.9353  -36.4453  -40.2717 H         1 UNK         0.0412 
    112 H112       18.7244  -36.3980  -38.6113 H         1 UNK         0.3472 
    113 H113       19.4677  -37.1694  -39.9872 H         1 UNK         0.3472 
    114 H114       20.3449  -36.4503  -42.0695 H         1 UNK         0.0970 
    115 H115       21.7260  -35.5611  -42.6122 H         1 UNK         0.0970 
    116 H116       21.5650  -33.4026  -43.7962 H         1 UNK         0.0612 
    117 H117       21.6308  -32.6014  -42.2408 H         1 UNK         0.0612 
@<TRIPOS>BOND
     1    1    2 1    
     2    1   62 1    
     3    1   63 1    
     4    1   64 1    
     5    2    3 2    
     6    2    4 am   BACKBONE|DICT|INTERRES
     7    4    5 1    
     8    4   65 1    
     9    5    6 1    
    10    5   25 1    
    11    5   66 1    
    12    6    7 1    
    13    6   67 1    
    14    6   68 1    
    15    7    8 1    
    16    8    9 1    
    17    8   69 1    
    18    8   70 1    
    19    9   10 ar   
    20    9   14 ar   
    21   10   11 ar   
    22   10   71 1    
    23   11   12 ar   
    24   11   61 1    
    25   12   13 ar   
    26   12   72 1    
    27   13   14 ar   
    28   13   15 1    
    29   14   73 1    
    30   15   16 1    
    31   15   74 1    
    32   15   75 1    
    33   16   17 1    
    34   17   18 1    
    35   17   76 1    
    36   17   77 1    
    37   18   19 1    
    38   18   27 1    
    39   18   78 1    
    40   19   20 am   BACKBONE|DICT|INTERRES
    41   19   79 1    
    42   20   21 2    
    43   20   22 1    
    44   22   23 1    
    45   22   24 1    
    46   22   80 1    
    47   23   81 1    
    48   23   82 1    
    49   23   83 1    
    50   24   25 am   BACKBONE|DICT|INTERRES
    51   24   84 1    
    52   25   26 2    
    53   27   28 2    
    54   27   29 am   BACKBONE|DICT|INTERRES
    55   29   30 1    
    56   29   85 1    
    57   30   31 1    
    58   30   32 1    
    59   30   86 1    
    60   31   87 1    
    61   31   88 1    
    62   31   89 1    
    63   32   33 2    
    64   32   34 am   BACKBONE|DICT|INTERRES
    65   34   35 1    
    66   34   90 1    
    67   35   36 1    
    68   35   37 1    
    69   35   91 1    
    70   36   92 1    
    71   36   93 1    
    72   36   94 1    
    73   37   38 2    
    74   37   39 am   BACKBONE|DICT|INTERRES
    75   39   40 1    
    76   39   95 1    
    77   40   41 1    
    78   40   42 1    
    79   40   96 1    
    80   41   97 1    
    81   41   98 1    
    82   41   99 1    
    83   42   43 2    
    84   42   44 am   BACKBONE|DICT|INTERRES
    85   44   45 1    
    86   44  100 1    
    87   45   46 1    
    88   45   47 1    
    89   45  101 1    
    90   46  102 1    
    91   46  103 1    
    92   46  104 1    
    93   47   48 2    
    94   47   49 am   BACKBONE|DICT|INTERRES
    95   49   50 1    
    96   49  105 1    
    97   50   51 1    
    98   50   52 1    
    99   50  106 1    
   100   51  107 1    
   101   51  108 1    
   102   51  109 1    
   103   52   53 2    
   104   52   54 am   BACKBONE|DICT|INTERRES
   105   54   55 1    
   106   54  110 1    
   107   55   56 1    
   108   55   59 1    
   109   55  111 1    
   110   56   57 am   BACKBONE|DICT|INTERRES
   111   56   58 2    
   112   57  112 1    
   113   57  113 1    
   114   59   60 1    
   115   59  114 1    
   116   59  115 1    
   117   60   61 1    
   118   61  116 1    
   119   61  117 1    
@<TRIPOS>SUBSTRUCTURE
     1 UNK         1 GROUP             0       ****    0 ROOT    
