@<TRIPOS>MOLECULE
3R8
117   119    1
SMALL
USER_CHARGES


@<TRIPOS>ATOM
      1 CA         13.9875  -24.4542  -41.4639 C.3       0 UNK        -0.2013 
      2 C          14.8905  -25.2030  -42.4329 C.2       0 UNK         0.4866 
      3 O          15.8310  -25.8673  -41.9980 O.2       0 UNK        -0.5176 
      4 N          14.6053  -25.1016  -43.7384 N.am      1 UNK        -0.4884 
      5 CA         15.3660  -25.6965  -44.8437 C.3       1 UNK         0.0853 
      6 C6         15.3419  -27.2517  -44.8255 C.3       10 UNK        -0.0849 
      7 S7         15.6473  -27.9670  -46.4778 S.3       10 UNK        -0.2776 
      8 C8         15.7419  -29.7449  -46.0990 C.3       10 UNK         0.0316 
      9 C9         17.0054  -30.0921  -45.3258 C.ar      10 UNK        -0.0863 
     10 C10        16.9568  -30.2613  -43.9391 C.ar      10 UNK        -0.1009 
     11 C11        18.1101  -30.5692  -43.2125 C.ar      10 UNK        -0.0712 
     12 C12        19.3216  -30.7155  -43.8999 C.ar      10 UNK        -0.0894 
     13 C13        19.3846  -30.5662  -45.2891 C.ar      10 UNK        -0.0745 
     14 C14        18.2216  -30.2505  -45.9968 C.ar      10 UNK        -0.0972 
     15 C15        20.7012  -30.7744  -46.0288 C.3       10 UNK         0.0209 
     16 S16        21.5936  -29.2155  -46.3377 S.3       10 UNK        -0.2568 
     17 C17        22.2170  -28.8261  -44.6667 C.3       10 UNK        -0.0983 
     18 CA         22.5106  -27.3186  -44.4240 C.3       3 UNK         0.0876 
     19 N          21.4366  -26.4148  -44.8696 N.am      3 UNK        -0.4424 
     20 C          20.1512  -26.4333  -44.4878 C.2       2 UNK         0.4918 
     21 O          19.7035  -27.1679  -43.6059 O.2       2 UNK        -0.4875 
     22 CA         19.2165  -25.4461  -45.2082 C.3       2 UNK         0.0481 
     23 CB         19.5145  -25.3231  -46.7179 C.3       2 UNK        -0.1831 
     24 N          17.8292  -25.8635  -45.0269 N.am      2 UNK        -0.4498 
     25 C          16.7685  -25.0512  -44.9596 C.2       1 UNK         0.5027 
     26 O          16.8522  -23.8214  -45.0137 O.2       1 UNK        -0.4969 
     27 C          22.9564  -27.0772  -42.9630 C.2       3 UNK         0.5005 
     28 O          23.6531  -27.9246  -42.4002 O.2       3 UNK        -0.5279 
     29 N          22.5762  -25.9346  -42.3700 N.am      4 UNK        -0.4463 
     30 CA         22.7670  -25.5917  -40.9534 C.3       4 UNK         0.0283 
     31 CB         22.0826  -24.2457  -40.6659 C.3       4 UNK        -0.1875 
     32 C          24.2293  -25.5627  -40.4703 C.2       4 UNK         0.4949 
     33 O          24.4684  -25.7235  -39.2738 O.2       4 UNK        -0.5039 
     34 N          25.1784  -25.3798  -41.3985 N.am      5 UNK        -0.4663 
     35 CA         26.6188  -25.4659  -41.1431 C.3       5 UNK         0.0242 
     36 CB         27.3782  -24.8892  -42.3490 C.3       5 UNK        -0.1982 
     37 C          27.1013  -26.8977  -40.8383 C.2       5 UNK         0.5017 
     38 O          28.1217  -27.0498  -40.1657 O.2       5 UNK        -0.5012 
     39 N          26.3736  -27.9081  -41.3344 N.am      6 UNK        -0.4439 
     40 CA         26.6320  -29.3275  -41.0922 C.3       6 UNK         0.0297 
     41 CB         26.5532  -30.0992  -42.4213 C.3       6 UNK        -0.2006 
     42 C          25.6287  -29.8912  -40.0771 C.2       6 UNK         0.4892 
     43 O          26.0444  -30.5449  -39.1204 O.2       6 UNK        -0.5089 
     44 N          24.3328  -29.6273  -40.3119 N.am      7 UNK        -0.4243 
     45 CA         23.1695  -30.0358  -39.5129 C.3       7 UNK         0.0196 
     46 CB         23.1622  -29.2972  -38.1581 C.3       7 UNK        -0.2007 
     47 C          23.0023  -31.5638  -39.3602 C.2       7 UNK         0.5020 
     48 O          22.3965  -32.0153  -38.3871 O.2       7 UNK        -0.5147 
     49 N          23.5365  -32.3380  -40.3167 N.am      8 UNK        -0.4734 
     50 CA         23.4459  -33.8011  -40.3426 C.3       8 UNK         0.0238 
     51 CB         24.5255  -34.3704  -41.2785 C.3       8 UNK        -0.1912 
     52 C          22.0461  -34.2837  -40.7540 C.2       8 UNK         0.5038 
     53 O          21.4914  -35.1658  -40.0976 O.2       8 UNK        -0.5046 
     54 N          21.5069  -33.6742  -41.8196 N.am      9 UNK        -0.4200 
     55 CA         20.1426  -33.8701  -42.3444 C.3       9 UNK         0.0839 
     56 C          19.8319  -35.3060  -42.8676 C.2       9 UNK         0.5513 
     57 N          20.8314  -36.1064  -43.2186 N.am      9 UNK        -0.7519 
     58 O          18.6724  -35.6936  -42.9886 O.2       9 UNK        -0.4960 
     59 C59        19.0458  -33.3219  -41.3839 C.3       10 UNK        -0.0876 
     60 S60        19.3489  -31.5963  -40.8570 S.3       10 UNK        -0.2414 
     61 C61        18.0016  -30.6866  -41.6904 C.3       10 UNK         0.0169 
     62 H62        14.5693  -23.7324  -40.8911 H         1 UNK         0.0903 
     63 H63        13.1917  -23.9159  -41.9786 H         1 UNK         0.0903 
     64 H64        13.5271  -25.1520  -40.7650 H         1 UNK         0.0903 
     65 H65        13.8351  -24.5116  -44.0236 H         1 UNK         0.3096 
     66 H66        14.8370  -25.3773  -45.7436 H         1 UNK         0.1121 
     67 H67        14.3580  -27.5994  -44.5064 H         1 UNK         0.0849 
     68 H68        16.0449  -27.6493  -44.0926 H         1 UNK         0.0849 
     69 H69        15.7225  -30.3066  -47.0342 H         1 UNK         0.0865 
     70 H70        14.8516  -30.0490  -45.5459 H         1 UNK         0.0865 
     71 H71        16.0168  -30.1357  -43.4187 H         1 UNK         0.1346 
     72 H72        20.2261  -30.9405  -43.3558 H         1 UNK         0.1412 
     73 H73        18.2636  -30.1252  -47.0704 H         1 UNK         0.1426 
     74 H74        20.5051  -31.2578  -46.9870 H         1 UNK         0.0716 
     75 H75        21.3470  -31.4576  -45.4748 H         1 UNK         0.0716 
     76 H76        23.1190  -29.4204  -44.5088 H         1 UNK         0.0695 
     77 H77        21.4985  -29.1725  -43.9270 H         1 UNK         0.0695 
     78 H78        23.3783  -27.0610  -45.0332 H         1 UNK         0.0983 
     79 H79        21.7016  -25.7665  -45.5973 H         1 UNK         0.3095 
     80 H80        19.3645  -24.4729  -44.7362 H         1 UNK         0.0454 
     81 H81        19.4875  -26.2960  -47.2113 H         1 UNK         0.0851 
     82 H82        20.4946  -24.8836  -46.9035 H         1 UNK         0.0851 
     83 H83        18.7873  -24.6808  -47.2149 H         1 UNK         0.0851 
     84 H84        17.6936  -26.8605  -44.9152 H         1 UNK         0.2976 
     85 H85        22.0206  -25.2922  -42.9154 H         1 UNK         0.3116 
     86 H86        22.2591  -26.3618  -40.3688 H         1 UNK         0.0646 
     87 H87        21.0165  -24.2847  -40.8907 H         1 UNK         0.0847 
     88 H88        22.5220  -23.4363  -41.2500 H         1 UNK         0.0847 
     89 H89        22.1778  -23.9755  -39.6131 H         1 UNK         0.0847 
     90 H90        24.8884  -25.2364  -42.3549 H         1 UNK         0.3040 
     91 H91        26.8467  -24.8530  -40.2678 H         1 UNK         0.1015 
     92 H92        28.4556  -24.9120  -42.1783 H         1 UNK         0.0786 
     93 H93        27.1036  -23.8500  -42.5317 H         1 UNK         0.0786 
     94 H94        27.1810  -25.4556  -43.2600 H         1 UNK         0.0786 
     95 H95        25.5141  -27.6856  -41.8275 H         1 UNK         0.3172 
     96 H96        27.6354  -29.4679  -40.6848 H         1 UNK         0.0595 
     97 H97        25.5815  -29.9884  -42.9044 H         1 UNK         0.0839 
     98 H98        26.7222  -31.1655  -42.2645 H         1 UNK         0.0839 
     99 H99        27.3127  -29.7520  -43.1219 H         1 UNK         0.0839 
    100 H100       24.1044  -29.0679  -41.1337 H         1 UNK         0.2998 
    101 H101       22.2943  -29.7001  -40.0718 H         1 UNK         0.0822 
    102 H102       23.2560  -28.2196  -38.2947 H         1 UNK         0.0787 
    103 H103       22.2311  -29.4737  -37.6184 H         1 UNK         0.0787 
    104 H104       23.9795  -29.6261  -37.5155 H         1 UNK         0.0787 
    105 H105       24.0335  -31.8885  -41.0712 H         1 UNK         0.3055 
    106 H106       23.6403  -34.1762  -39.3348 H         1 UNK         0.1106 
    107 H107       24.4827  -35.4603  -41.3040 H         1 UNK         0.0828 
    108 H108       25.5250  -34.0962  -40.9403 H         1 UNK         0.0828 
    109 H109       24.4100  -34.0153  -42.3031 H         1 UNK         0.0828 
    110 H110       22.0551  -32.9690  -42.2872 H         1 UNK         0.2931 
    111 H111       20.1038  -33.2647  -43.2482 H         1 UNK         0.0412 
    112 H112       21.7869  -35.7996  -43.1324 H         1 UNK         0.3472 
    113 H113       20.6261  -37.0305  -43.5652 H         1 UNK         0.3472 
    114 H114       18.0636  -33.3791  -41.8564 H         1 UNK         0.0970 
    115 H115       18.9842  -33.9439  -40.4894 H         1 UNK         0.0970 
    116 H116       17.9750  -29.6767  -41.2792 H         1 UNK         0.0612 
    117 H117       17.0530  -31.1531  -41.4200 H         1 UNK         0.0612 
@<TRIPOS>BOND
     1    1    2 1    
     2    1   62 1    
     3    1   63 1    
     4    1   64 1    
     5    2    3 2    
     6    2    4 am   BACKBONE|DICT|INTERRES
     7    4    5 1    
     8    4   65 1    
     9    5    6 1    
    10    5   25 1    
    11    5   66 1    
    12    6    7 1    
    13    6   67 1    
    14    6   68 1    
    15    7    8 1    
    16    8    9 1    
    17    8   69 1    
    18    8   70 1    
    19    9   10 ar   
    20    9   14 ar   
    21   10   11 ar   
    22   10   71 1    
    23   11   12 ar   
    24   11   61 1    
    25   12   13 ar   
    26   12   72 1    
    27   13   14 ar   
    28   13   15 1    
    29   14   73 1    
    30   15   16 1    
    31   15   74 1    
    32   15   75 1    
    33   16   17 1    
    34   17   18 1    
    35   17   76 1    
    36   17   77 1    
    37   18   19 1    
    38   18   27 1    
    39   18   78 1    
    40   19   20 am   BACKBONE|DICT|INTERRES
    41   19   79 1    
    42   20   21 2    
    43   20   22 1    
    44   22   23 1    
    45   22   24 1    
    46   22   80 1    
    47   23   81 1    
    48   23   82 1    
    49   23   83 1    
    50   24   25 am   BACKBONE|DICT|INTERRES
    51   24   84 1    
    52   25   26 2    
    53   27   28 2    
    54   27   29 am   BACKBONE|DICT|INTERRES
    55   29   30 1    
    56   29   85 1    
    57   30   31 1    
    58   30   32 1    
    59   30   86 1    
    60   31   87 1    
    61   31   88 1    
    62   31   89 1    
    63   32   33 2    
    64   32   34 am   BACKBONE|DICT|INTERRES
    65   34   35 1    
    66   34   90 1    
    67   35   36 1    
    68   35   37 1    
    69   35   91 1    
    70   36   92 1    
    71   36   93 1    
    72   36   94 1    
    73   37   38 2    
    74   37   39 am   BACKBONE|DICT|INTERRES
    75   39   40 1    
    76   39   95 1    
    77   40   41 1    
    78   40   42 1    
    79   40   96 1    
    80   41   97 1    
    81   41   98 1    
    82   41   99 1    
    83   42   43 2    
    84   42   44 am   BACKBONE|DICT|INTERRES
    85   44   45 1    
    86   44  100 1    
    87   45   46 1    
    88   45   47 1    
    89   45  101 1    
    90   46  102 1    
    91   46  103 1    
    92   46  104 1    
    93   47   48 2    
    94   47   49 am   BACKBONE|DICT|INTERRES
    95   49   50 1    
    96   49  105 1    
    97   50   51 1    
    98   50   52 1    
    99   50  106 1    
   100   51  107 1    
   101   51  108 1    
   102   51  109 1    
   103   52   53 2    
   104   52   54 am   BACKBONE|DICT|INTERRES
   105   54   55 1    
   106   54  110 1    
   107   55   56 1    
   108   55   59 1    
   109   55  111 1    
   110   56   57 am   BACKBONE|DICT|INTERRES
   111   56   58 2    
   112   57  112 1    
   113   57  113 1    
   114   59   60 1    
   115   59  114 1    
   116   59  115 1    
   117   60   61 1    
   118   61  116 1    
   119   61  117 1    
@<TRIPOS>SUBSTRUCTURE
     1 UNK         1 GROUP             0       ****    0 ROOT    
