@<TRIPOS>MOLECULE
3R8
117   119    1
SMALL
USER_CHARGES


@<TRIPOS>ATOM
      1 CA         11.1975  -26.1925  -44.7747 C.3       0 UNK        -0.2013 
      2 C          12.6130  -25.8743  -45.2328 C.2       0 UNK         0.4866 
      3 O          12.8457  -24.8134  -45.8129 O.2       0 UNK        -0.5176 
      4 N          13.5593  -26.7824  -44.9775 N.am      1 UNK        -0.4884 
      5 CA         14.9749  -26.6479  -45.3123 C.3       1 UNK         0.0853 
      6 C6         15.2608  -27.0952  -46.7670 C.3       10 UNK        -0.0849 
      7 S7         16.8747  -26.5122  -47.3869 S.3       10 UNK        -0.2776 
      8 C8         17.6669  -28.0624  -47.9283 C.3       10 UNK         0.0316 
      9 C9         18.6879  -28.5736  -46.9213 C.ar      10 UNK        -0.0863 
     10 C10        18.3927  -29.6488  -46.0737 C.ar      10 UNK        -0.1009 
     11 C11        19.3702  -30.1565  -45.2085 C.ar      10 UNK        -0.0712 
     12 C12        20.6452  -29.5848  -45.2052 C.ar      10 UNK        -0.0894 
     13 C13        20.9369  -28.4848  -46.0112 C.ar      10 UNK        -0.0745 
     14 C14        19.9568  -27.9879  -46.8734 C.ar      10 UNK        -0.0972 
     15 C15        22.3104  -27.8378  -45.9522 C.3       10 UNK         0.0209 
     16 S16        22.3719  -26.5051  -44.7117 S.3       10 UNK        -0.2568 
     17 C17        22.5749  -27.4236  -43.1479 C.3       10 UNK        -0.0983 
     18 CA         21.4996  -27.0689  -42.0828 C.3       3 UNK         0.0876 
     19 N          20.1761  -27.5781  -42.4299 N.am      3 UNK        -0.4424 
     20 C          19.1334  -26.8610  -42.8503 C.2       2 UNK         0.4918 
     21 O          19.1742  -25.6634  -43.1443 O.2       2 UNK        -0.4875 
     22 CA         17.7956  -27.6072  -42.8801 C.3       2 UNK         0.0481 
     23 CB         17.1896  -27.6882  -41.4642 C.3       2 UNK        -0.1831 
     24 N          16.8829  -26.9434  -43.8034 N.am      2 UNK        -0.4498 
     25 C          15.7590  -27.4801  -44.2884 C.2       1 UNK         0.5027 
     26 O          15.3259  -28.5904  -43.9651 O.2       1 UNK        -0.4969 
     27 C          21.8680  -27.6561  -40.7041 C.2       3 UNK         0.5005 
     28 O          21.1225  -28.4765  -40.1546 O.2       3 UNK        -0.5279 
     29 N          23.0228  -27.2305  -40.1776 N.am      4 UNK        -0.4463 
     30 CA         23.6489  -27.7938  -38.9811 C.3       4 UNK         0.0283 
     31 CB         23.5888  -26.7812  -37.8246 C.3       4 UNK        -0.1875 
     32 C          25.0945  -28.2151  -39.2788 C.2       4 UNK         0.4949 
     33 O          25.4688  -29.3448  -38.9673 O.2       4 UNK        -0.5039 
     34 N          25.8850  -27.3057  -39.8704 N.am      5 UNK        -0.4663 
     35 CA         27.3060  -27.5265  -40.1587 C.3       5 UNK         0.0242 
     36 CB         28.0099  -26.1709  -40.3378 C.3       5 UNK        -0.1982 
     37 C          27.5481  -28.4281  -41.3801 C.2       5 UNK         0.5017 
     38 O          28.4106  -29.3047  -41.3190 O.2       5 UNK        -0.5012 
     39 N          26.8007  -28.1865  -42.4676 N.am      6 UNK        -0.4439 
     40 CA         26.9246  -28.9172  -43.7355 C.3       6 UNK         0.0297 
     41 CB         26.2056  -28.1414  -44.8505 C.3       6 UNK        -0.2006 
     42 C          26.4002  -30.3609  -43.6507 C.2       6 UNK         0.4892 
     43 O          27.0018  -31.2641  -44.2326 O.2       6 UNK        -0.5089 
     44 N          25.3046  -30.5440  -42.9102 N.am      7 UNK        -0.4243 
     45 CA         24.6840  -31.8159  -42.5668 C.3       7 UNK         0.0196 
     46 CB         23.8478  -32.3550  -43.7421 C.3       7 UNK        -0.2007 
     47 C          23.8057  -31.5259  -41.3518 C.2       7 UNK         0.5020 
     48 O          23.0813  -30.5317  -41.3728 O.2       7 UNK        -0.5147 
     49 N          23.8752  -32.3700  -40.3183 N.am      8 UNK        -0.4734 
     50 CA         23.2112  -32.1537  -39.0270 C.3       8 UNK         0.0238 
     51 CB         24.0312  -32.8520  -37.9252 C.3       8 UNK        -0.1912 
     52 C          21.7285  -32.5782  -39.0262 C.2       8 UNK         0.5038 
     53 O          21.2948  -33.2809  -38.1105 O.2       8 UNK        -0.5046 
     54 N          20.9799  -32.1661  -40.0549 N.am      9 UNK        -0.4200 
     55 CA         19.5379  -32.4201  -40.1911 C.3       9 UNK         0.0839 
     56 C          18.6460  -31.4893  -39.3202 C.2       9 UNK         0.5513 
     57 N          19.0996  -30.3020  -38.9338 N.am      9 UNK        -0.7519 
     58 O          17.5276  -31.8626  -38.9755 O.2       9 UNK        -0.4960 
     59 C59        19.0909  -32.4421  -41.6756 C.3       10 UNK        -0.0876 
     60 S60        19.4644  -30.8888  -42.5459 S.3       10 UNK        -0.2414 
     61 C61        19.0659  -31.3178  -44.2703 C.3       10 UNK         0.0169 
     62 H62        10.8501  -25.4334  -44.0743 H         1 UNK         0.0903 
     63 H63        10.5206  -26.2038  -45.6286 H         1 UNK         0.0903 
     64 H64        11.1367  -27.1624  -44.2813 H         1 UNK         0.0903 
     65 H65        13.3403  -27.6310  -44.4686 H         1 UNK         0.3096 
     66 H66        15.2576  -25.5989  -45.1936 H         1 UNK         0.1121 
     67 H67        14.5058  -26.6782  -47.4354 H         1 UNK         0.0849 
     68 H68        15.1686  -28.1785  -46.8638 H         1 UNK         0.0849 
     69 H69        16.9210  -28.8274  -48.1476 H         1 UNK         0.0865 
     70 H70        18.1726  -27.8728  -48.8764 H         1 UNK         0.0865 
     71 H71        17.4075  -30.0946  -46.0938 H         1 UNK         0.1346 
     72 H72        21.4020  -29.9820  -44.5445 H         1 UNK         0.1412 
     73 H73        20.1830  -27.1454  -47.5131 H         1 UNK         0.1426 
     74 H74        22.5613  -27.4178  -46.9273 H         1 UNK         0.0716 
     75 H75        23.0760  -28.5852  -45.7397 H         1 UNK         0.0716 
     76 H76        23.5751  -27.1775  -42.7903 H         1 UNK         0.0695 
     77 H77        22.5892  -28.4977  -43.3331 H         1 UNK         0.0695 
     78 H78        21.4552  -25.9842  -41.9622 H         1 UNK         0.0983 
     79 H79        20.0246  -28.5389  -42.1464 H         1 UNK         0.3095 
     80 H80        17.9713  -28.6135  -43.2563 H         1 UNK         0.0454 
     81 H81        16.9555  -26.6985  -41.0709 H         1 UNK         0.0851 
     82 H82        17.8837  -28.1614  -40.7681 H         1 UNK         0.0851 
     83 H83        16.2755  -28.2810  -41.4491 H         1 UNK         0.0851 
     84 H84        17.2077  -26.0427  -44.1340 H         1 UNK         0.2976 
     85 H85        23.5597  -26.5486  -40.6919 H         1 UNK         0.3116 
     86 H86        23.1163  -28.6929  -38.6651 H         1 UNK         0.0646 
     87 H87        24.0847  -25.8426  -38.0736 H         1 UNK         0.0847 
     88 H88        24.0720  -27.1801  -36.9317 H         1 UNK         0.0847 
     89 H89        22.5569  -26.5522  -37.5581 H         1 UNK         0.0847 
     90 H90        25.5300  -26.3774  -40.0432 H         1 UNK         0.3040 
     91 H91        27.7571  -28.0229  -39.2957 H         1 UNK         0.1015 
     92 H92        27.5934  -25.6002  -41.1688 H         1 UNK         0.0786 
     93 H93        29.0736  -26.3079  -40.5384 H         1 UNK         0.0786 
     94 H94        27.9295  -25.5608  -39.4378 H         1 UNK         0.0786 
     95 H95        26.1341  -27.4303  -42.4320 H         1 UNK         0.3172 
     96 H96        27.9848  -28.9677  -43.9935 H         1 UNK         0.0595 
     97 H97        26.2848  -28.6650  -45.8043 H         1 UNK         0.0839 
     98 H98        26.6397  -27.1512  -44.9899 H         1 UNK         0.0839 
     99 H99        25.1452  -28.0151  -44.6362 H         1 UNK         0.0839 
    100 H100       24.8815  -29.7498  -42.4479 H         1 UNK         0.2998 
    101 H101       25.4604  -32.5356  -42.2990 H         1 UNK         0.0822 
    102 H102       23.3587  -33.2922  -43.4740 H         1 UNK         0.0787 
    103 H103       23.0677  -31.6521  -44.0360 H         1 UNK         0.0787 
    104 H104       24.4680  -32.5509  -44.6167 H         1 UNK         0.0787 
    105 H105       24.4595  -33.1907  -40.3924 H         1 UNK         0.3055 
    106 H106       23.2207  -31.0842  -38.8068 H         1 UNK         0.1106 
    107 H107       23.6077  -32.6595  -36.9385 H         1 UNK         0.0828 
    108 H108       24.0583  -33.9333  -38.0647 H         1 UNK         0.0828 
    109 H109       25.0585  -32.4873  -37.9069 H         1 UNK         0.0828 
    110 H110       21.4004  -31.5464  -40.7397 H         1 UNK         0.2931 
    111 H111       19.3567  -33.4289  -39.8146 H         1 UNK         0.0412 
    112 H112       19.9765  -29.9343  -39.2879 H         1 UNK         0.3472 
    113 H113       18.5144  -29.7191  -38.3581 H         1 UNK         0.3472 
    114 H114       18.0222  -32.6495  -41.7566 H         1 UNK         0.0970 
    115 H115       19.5952  -33.2585  -42.1947 H         1 UNK         0.0970 
    116 H116       18.0143  -31.6019  -44.3316 H         1 UNK         0.0612 
    117 H117       19.6516  -32.1863  -44.5742 H         1 UNK         0.0612 
@<TRIPOS>BOND
     1    1    2 1    
     2    1   62 1    
     3    1   63 1    
     4    1   64 1    
     5    2    3 2    
     6    2    4 am   BACKBONE|DICT|INTERRES
     7    4    5 1    
     8    4   65 1    
     9    5    6 1    
    10    5   25 1    
    11    5   66 1    
    12    6    7 1    
    13    6   67 1    
    14    6   68 1    
    15    7    8 1    
    16    8    9 1    
    17    8   69 1    
    18    8   70 1    
    19    9   10 ar   
    20    9   14 ar   
    21   10   11 ar   
    22   10   71 1    
    23   11   12 ar   
    24   11   61 1    
    25   12   13 ar   
    26   12   72 1    
    27   13   14 ar   
    28   13   15 1    
    29   14   73 1    
    30   15   16 1    
    31   15   74 1    
    32   15   75 1    
    33   16   17 1    
    34   17   18 1    
    35   17   76 1    
    36   17   77 1    
    37   18   19 1    
    38   18   27 1    
    39   18   78 1    
    40   19   20 am   BACKBONE|DICT|INTERRES
    41   19   79 1    
    42   20   21 2    
    43   20   22 1    
    44   22   23 1    
    45   22   24 1    
    46   22   80 1    
    47   23   81 1    
    48   23   82 1    
    49   23   83 1    
    50   24   25 am   BACKBONE|DICT|INTERRES
    51   24   84 1    
    52   25   26 2    
    53   27   28 2    
    54   27   29 am   BACKBONE|DICT|INTERRES
    55   29   30 1    
    56   29   85 1    
    57   30   31 1    
    58   30   32 1    
    59   30   86 1    
    60   31   87 1    
    61   31   88 1    
    62   31   89 1    
    63   32   33 2    
    64   32   34 am   BACKBONE|DICT|INTERRES
    65   34   35 1    
    66   34   90 1    
    67   35   36 1    
    68   35   37 1    
    69   35   91 1    
    70   36   92 1    
    71   36   93 1    
    72   36   94 1    
    73   37   38 2    
    74   37   39 am   BACKBONE|DICT|INTERRES
    75   39   40 1    
    76   39   95 1    
    77   40   41 1    
    78   40   42 1    
    79   40   96 1    
    80   41   97 1    
    81   41   98 1    
    82   41   99 1    
    83   42   43 2    
    84   42   44 am   BACKBONE|DICT|INTERRES
    85   44   45 1    
    86   44  100 1    
    87   45   46 1    
    88   45   47 1    
    89   45  101 1    
    90   46  102 1    
    91   46  103 1    
    92   46  104 1    
    93   47   48 2    
    94   47   49 am   BACKBONE|DICT|INTERRES
    95   49   50 1    
    96   49  105 1    
    97   50   51 1    
    98   50   52 1    
    99   50  106 1    
   100   51  107 1    
   101   51  108 1    
   102   51  109 1    
   103   52   53 2    
   104   52   54 am   BACKBONE|DICT|INTERRES
   105   54   55 1    
   106   54  110 1    
   107   55   56 1    
   108   55   59 1    
   109   55  111 1    
   110   56   57 am   BACKBONE|DICT|INTERRES
   111   56   58 2    
   112   57  112 1    
   113   57  113 1    
   114   59   60 1    
   115   59  114 1    
   116   59  115 1    
   117   60   61 1    
   118   61  116 1    
   119   61  117 1    
@<TRIPOS>SUBSTRUCTURE
     1 UNK         1 GROUP             0       ****    0 ROOT    
