@<TRIPOS>MOLECULE
3R8
117   119    1
SMALL
USER_CHARGES


@<TRIPOS>ATOM
      1 CA         13.9893  -21.7999  -45.3001 C.3       0 UNK        -0.2013 
      2 C          14.4528  -23.1679  -45.7784 C.2       0 UNK         0.4866 
      3 O          14.5308  -23.4004  -46.9854 O.2       0 UNK        -0.5176 
      4 N          14.7533  -24.0776  -44.8428 N.am      1 UNK        -0.4884 
      5 CA         15.2835  -25.4158  -45.1232 C.3       1 UNK         0.0853 
      6 C6         15.0976  -26.3532  -43.9037 C.3       10 UNK        -0.0849 
      7 S7         15.0464  -28.1124  -44.3827 S.3       10 UNK        -0.2776 
      8 C8         15.0894  -28.9267  -42.7552 C.3       10 UNK         0.0316 
      9 C9         16.5092  -29.0657  -42.2237 C.ar      10 UNK        -0.0863 
     10 C10        17.2827  -30.1757  -42.5801 C.ar      10 UNK        -0.1009 
     11 C11        18.5732  -30.3343  -42.0670 C.ar      10 UNK        -0.0712 
     12 C12        19.0840  -29.3783  -41.1884 C.ar      10 UNK        -0.0894 
     13 C13        18.3414  -28.2418  -40.8587 C.ar      10 UNK        -0.0745 
     14 C14        17.0461  -28.0991  -41.3664 C.ar      10 UNK        -0.0972 
     15 C15        18.9464  -27.1638  -39.9684 C.3       10 UNK         0.0209 
     16 S16        20.5364  -26.5397  -40.6147 S.3       10 UNK        -0.2568 
     17 C17        20.0383  -25.8362  -42.2213 C.3       10 UNK        -0.0983 
     18 CA         20.3856  -26.7551  -43.4213 C.3       3 UNK         0.0876 
     19 N          19.5818  -26.3935  -44.5884 N.am      3 UNK        -0.4424 
     20 C          19.4815  -27.0918  -45.7252 C.2       2 UNK         0.4918 
     21 O          20.0360  -28.1742  -45.9175 O.2       2 UNK        -0.4875 
     22 CA         18.5874  -26.4739  -46.8204 C.3       2 UNK         0.0481 
     23 CB         18.5859  -27.3008  -48.1196 C.3       2 UNK        -0.1831 
     24 N          17.2051  -26.3079  -46.3630 N.am      2 UNK        -0.4498 
     25 C          16.7650  -25.3398  -45.5489 C.2       1 UNK         0.5027 
     26 O          17.4908  -24.4468  -45.1000 O.2       1 UNK        -0.4969 
     27 C          21.8878  -26.7170  -43.7721 C.2       3 UNK         0.5005 
     28 O          22.3480  -25.7227  -44.3417 O.2       3 UNK        -0.5279 
     29 N          22.6204  -27.7873  -43.4436 N.am      4 UNK        -0.4463 
     30 CA         24.0313  -27.9689  -43.7756 C.3       4 UNK         0.0283 
     31 CB         24.1600  -28.4170  -45.2451 C.3       4 UNK        -0.1875 
     32 C          24.6569  -29.0090  -42.8406 C.2       4 UNK         0.4949 
     33 O          23.9294  -29.7393  -42.1630 O.2       4 UNK        -0.5039 
     34 N          25.9975  -29.0664  -42.8507 N.am      5 UNK        -0.4663 
     35 CA         26.8581  -30.0578  -42.1879 C.3       5 UNK         0.0242 
     36 CB         26.7755  -31.4046  -42.9357 C.3       5 UNK        -0.1982 
     37 C          26.5706  -30.2005  -40.6825 C.2       5 UNK         0.5017 
     38 O          26.2210  -31.2877  -40.2220 O.2       5 UNK        -0.5012 
     39 N          26.6609  -29.0759  -39.9560 N.am      6 UNK        -0.4439 
     40 CA         26.3673  -28.9370  -38.5196 C.3       6 UNK         0.0297 
     41 CB         27.4271  -29.6746  -37.6730 C.3       6 UNK        -0.2006 
     42 C          24.9231  -29.3446  -38.1527 C.2       6 UNK         0.4892 
     43 O          24.6901  -29.8910  -37.0736 O.2       6 UNK        -0.5089 
     44 N          23.9945  -29.0809  -39.0833 N.am      7 UNK        -0.4243 
     45 CA         22.5696  -29.4242  -39.0752 C.3       7 UNK         0.0196 
     46 CB         21.8389  -28.7980  -37.8680 C.3       7 UNK        -0.2007 
     47 C          22.2679  -30.9280  -39.2337 C.2       7 UNK         0.5020 
     48 O          21.1134  -31.3203  -39.0621 O.2       7 UNK        -0.5147 
     49 N          23.2698  -31.7484  -39.5809 N.am      8 UNK        -0.4734 
     50 CA         23.0870  -33.1768  -39.8539 C.3       8 UNK         0.0238 
     51 CB         24.3574  -33.9425  -39.4494 C.3       8 UNK        -0.1912 
     52 C          22.7403  -33.4573  -41.3254 C.2       8 UNK         0.5038 
     53 O          22.1765  -34.5155  -41.6063 O.2       8 UNK        -0.5046 
     54 N          23.0939  -32.5338  -42.2323 N.am      9 UNK        -0.4200 
     55 CA         22.9343  -32.6365  -43.6950 C.3       9 UNK         0.0839 
     56 C          23.7319  -33.7970  -44.3690 C.2       9 UNK         0.5513 
     57 N          24.7252  -34.3880  -43.7155 N.am      9 UNK        -0.7519 
     58 O          23.4741  -34.1474  -45.5179 O.2       9 UNK        -0.4960 
     59 C59        21.4471  -32.5838  -44.1455 C.3       10 UNK        -0.0876 
     60 S60        20.6566  -30.9964  -43.7219 S.3       10 UNK        -0.2414 
     61 C61        19.4359  -31.5151  -42.4797 C.3       10 UNK         0.0169 
     62 H62        13.9541  -21.7377  -44.2126 H         1 UNK         0.0903 
     63 H63        14.6671  -21.0271  -45.6619 H         1 UNK         0.0903 
     64 H64        12.9922  -21.5859  -45.6842 H         1 UNK         0.0903 
     65 H65        14.7066  -23.8178  -43.8677 H         1 UNK         0.3096 
     66 H66        14.7095  -25.8164  -45.9626 H         1 UNK         0.1121 
     67 H67        15.8749  -26.1868  -43.1561 H         1 UNK         0.0849 
     68 H68        14.1506  -26.1371  -43.4058 H         1 UNK         0.0849 
     69 H69        14.6381  -29.9157  -42.8485 H         1 UNK         0.0865 
     70 H70        14.4645  -28.3795  -42.0475 H         1 UNK         0.0865 
     71 H71        16.8805  -30.9142  -43.2603 H         1 UNK         0.1346 
     72 H72        20.0825  -29.4990  -40.7970 H         1 UNK         0.1412 
     73 H73        16.4565  -27.2339  -41.0966 H         1 UNK         0.1426 
     74 H74        19.1025  -27.5740  -38.9707 H         1 UNK         0.0716 
     75 H75        18.2603  -26.3236  -39.8504 H         1 UNK         0.0716 
     76 H76        20.4984  -24.8524  -42.3331 H         1 UNK         0.0695 
     77 H77        18.9629  -25.6523  -42.1893 H         1 UNK         0.0695 
     78 H78        20.1146  -27.7824  -43.1727 H         1 UNK         0.0983 
     79 H79        19.0795  -25.5137  -44.5397 H         1 UNK         0.3095 
     80 H80        18.9989  -25.4905  -47.0575 H         1 UNK         0.0454 
     81 H81        18.1814  -28.3015  -47.9622 H         1 UNK         0.0851 
     82 H82        19.5980  -27.4164  -48.5098 H         1 UNK         0.0851 
     83 H83        17.9948  -26.8177  -48.8977 H         1 UNK         0.0851 
     84 H84        16.5602  -27.0404  -46.6256 H         1 UNK         0.2976 
     85 H85        22.2060  -28.5660  -42.9449 H         1 UNK         0.3116 
     86 H86        24.5588  -27.0238  -43.6300 H         1 UNK         0.0646 
     87 H87        23.6284  -29.3526  -45.4246 H         1 UNK         0.0847 
     88 H88        25.2019  -28.5737  -45.5265 H         1 UNK         0.0847 
     89 H89        23.7545  -27.6698  -45.9274 H         1 UNK         0.0847 
     90 H90        26.4875  -28.3936  -43.4251 H         1 UNK         0.3040 
     91 H91        27.8853  -29.6985  -42.2718 H         1 UNK         0.1015 
     92 H92        25.7729  -31.8261  -42.8914 H         1 UNK         0.0786 
     93 H93        27.4568  -32.1378  -42.5020 H         1 UNK         0.0786 
     94 H94        27.0446  -31.2939  -43.9861 H         1 UNK         0.0786 
     95 H95        26.9269  -28.2259  -40.4354 H         1 UNK         0.3172 
     96 H96        26.4467  -27.8730  -38.2920 H         1 UNK         0.0595 
     97 H97        27.2940  -29.4666  -36.6106 H         1 UNK         0.0839 
     98 H98        28.4367  -29.3610  -37.9381 H         1 UNK         0.0839 
     99 H99        27.3666  -30.7560  -37.8013 H         1 UNK         0.0839 
    100 H100       24.3215  -28.6807  -39.9520 H         1 UNK         0.2998 
    101 H101       22.1690  -28.9583  -39.9749 H         1 UNK         0.0822 
    102 H102       20.7617  -28.9469  -37.9431 H         1 UNK         0.0787 
    103 H103       22.1558  -29.2406  -36.9237 H         1 UNK         0.0787 
    104 H104       22.0122  -27.7233  -37.8139 H         1 UNK         0.0787 
    105 H105       24.2030  -31.3716  -39.7161 H         1 UNK         0.3055 
    106 H106       22.2631  -33.5601  -39.2472 H         1 UNK         0.1106 
    107 H107       24.2084  -35.0188  -39.5456 H         1 UNK         0.0828 
    108 H108       25.2097  -33.6783  -40.0754 H         1 UNK         0.0828 
    109 H109       24.6285  -33.7441  -38.4124 H         1 UNK         0.0828 
    110 H110       23.5115  -31.6659  -41.9119 H         1 UNK         0.2931 
    111 H111       23.4125  -31.7387  -44.0880 H         1 UNK         0.0412 
    112 H112       24.9538  -34.1132  -42.7746 H         1 UNK         0.3472 
    113 H113       25.2401  -35.1280  -44.1664 H         1 UNK         0.3472 
    114 H114       21.3674  -32.6867  -45.2289 H         1 UNK         0.0970 
    115 H115       20.8836  -33.4179  -43.7252 H         1 UNK         0.0970 
    116 H116       19.9519  -31.9240  -41.6096 H         1 UNK         0.0612 
    117 H117       18.8176  -32.3165  -42.8867 H         1 UNK         0.0612 
@<TRIPOS>BOND
     1    1    2 1    
     2    1   62 1    
     3    1   63 1    
     4    1   64 1    
     5    2    3 2    
     6    2    4 am   BACKBONE|DICT|INTERRES
     7    4    5 1    
     8    4   65 1    
     9    5    6 1    
    10    5   25 1    
    11    5   66 1    
    12    6    7 1    
    13    6   67 1    
    14    6   68 1    
    15    7    8 1    
    16    8    9 1    
    17    8   69 1    
    18    8   70 1    
    19    9   10 ar   
    20    9   14 ar   
    21   10   11 ar   
    22   10   71 1    
    23   11   12 ar   
    24   11   61 1    
    25   12   13 ar   
    26   12   72 1    
    27   13   14 ar   
    28   13   15 1    
    29   14   73 1    
    30   15   16 1    
    31   15   74 1    
    32   15   75 1    
    33   16   17 1    
    34   17   18 1    
    35   17   76 1    
    36   17   77 1    
    37   18   19 1    
    38   18   27 1    
    39   18   78 1    
    40   19   20 am   BACKBONE|DICT|INTERRES
    41   19   79 1    
    42   20   21 2    
    43   20   22 1    
    44   22   23 1    
    45   22   24 1    
    46   22   80 1    
    47   23   81 1    
    48   23   82 1    
    49   23   83 1    
    50   24   25 am   BACKBONE|DICT|INTERRES
    51   24   84 1    
    52   25   26 2    
    53   27   28 2    
    54   27   29 am   BACKBONE|DICT|INTERRES
    55   29   30 1    
    56   29   85 1    
    57   30   31 1    
    58   30   32 1    
    59   30   86 1    
    60   31   87 1    
    61   31   88 1    
    62   31   89 1    
    63   32   33 2    
    64   32   34 am   BACKBONE|DICT|INTERRES
    65   34   35 1    
    66   34   90 1    
    67   35   36 1    
    68   35   37 1    
    69   35   91 1    
    70   36   92 1    
    71   36   93 1    
    72   36   94 1    
    73   37   38 2    
    74   37   39 am   BACKBONE|DICT|INTERRES
    75   39   40 1    
    76   39   95 1    
    77   40   41 1    
    78   40   42 1    
    79   40   96 1    
    80   41   97 1    
    81   41   98 1    
    82   41   99 1    
    83   42   43 2    
    84   42   44 am   BACKBONE|DICT|INTERRES
    85   44   45 1    
    86   44  100 1    
    87   45   46 1    
    88   45   47 1    
    89   45  101 1    
    90   46  102 1    
    91   46  103 1    
    92   46  104 1    
    93   47   48 2    
    94   47   49 am   BACKBONE|DICT|INTERRES
    95   49   50 1    
    96   49  105 1    
    97   50   51 1    
    98   50   52 1    
    99   50  106 1    
   100   51  107 1    
   101   51  108 1    
   102   51  109 1    
   103   52   53 2    
   104   52   54 am   BACKBONE|DICT|INTERRES
   105   54   55 1    
   106   54  110 1    
   107   55   56 1    
   108   55   59 1    
   109   55  111 1    
   110   56   57 am   BACKBONE|DICT|INTERRES
   111   56   58 2    
   112   57  112 1    
   113   57  113 1    
   114   59   60 1    
   115   59  114 1    
   116   59  115 1    
   117   60   61 1    
   118   61  116 1    
   119   61  117 1    
@<TRIPOS>SUBSTRUCTURE
     1 UNK         1 GROUP             0       ****    0 ROOT    
