@<TRIPOS>MOLECULE
3R8
117   119    1
SMALL
USER_CHARGES


@<TRIPOS>ATOM
      1 CA         15.5365  -23.2758  -43.9651 C.3       0 UNK        -0.2013 
      2 C          16.5676  -24.3921  -44.0248 C.2       0 UNK         0.4866 
      3 O          17.2305  -24.5599  -45.0466 O.2       0 UNK        -0.5176 
      4 N          16.7306  -25.1411  -42.9273 N.am      1 UNK        -0.4884 
      5 CA         17.6094  -26.3147  -42.7865 C.3       1 UNK         0.0853 
      6 C6         17.1289  -27.2221  -41.6198 C.3       10 UNK        -0.0849 
      7 S7         15.5773  -28.0826  -42.0567 S.3       10 UNK        -0.2776 
      8 C8         16.1239  -29.8146  -42.2760 C.3       10 UNK         0.0316 
      9 C9         17.3802  -29.9386  -43.1310 C.ar      10 UNK        -0.0863 
     10 C10        18.5697  -30.4100  -42.5630 C.ar      10 UNK        -0.1009 
     11 C11        19.7419  -30.4664  -43.3213 C.ar      10 UNK        -0.0712 
     12 C12        19.7145  -30.0595  -44.6563 C.ar      10 UNK        -0.0894 
     13 C13        18.5389  -29.5841  -45.2350 C.ar      10 UNK        -0.0745 
     14 C14        17.3665  -29.5448  -44.4738 C.ar      10 UNK        -0.0972 
     15 C15        18.5503  -29.0794  -46.6684 C.3       10 UNK         0.0209 
     16 S16        18.8513  -27.2836  -46.7152 S.3       10 UNK        -0.2568 
     17 C17        20.5724  -27.1207  -47.3318 C.3       10 UNK        -0.0983 
     18 CA         21.6471  -26.6541  -46.2990 C.3       3 UNK         0.0876 
     19 N          21.0769  -25.8012  -45.2547 N.am      3 UNK        -0.4424 
     20 C          21.7522  -25.0668  -44.3625 C.2       2 UNK         0.4918 
     21 O          22.9748  -24.9209  -44.3824 O.2       2 UNK        -0.4875 
     22 CA         20.9282  -24.3549  -43.2691 C.3       2 UNK         0.0481 
     23 CB         20.9444  -22.8335  -43.4874 C.3       2 UNK        -0.1831 
     24 N          19.5341  -24.8060  -43.1926 N.am      2 UNK        -0.4498 
     25 C          19.1193  -25.9792  -42.6951 C.2       1 UNK         0.5027 
     26 O          19.8915  -26.7953  -42.1956 O.2       1 UNK        -0.4969 
     27 C          22.4629  -27.8339  -45.7232 C.2       3 UNK         0.5005 
     28 O          22.2770  -28.2184  -44.5664 O.2       3 UNK        -0.5279 
     29 N          23.3471  -28.3954  -46.5636 N.am      4 UNK        -0.4463 
     30 CA         24.2074  -29.5598  -46.3152 C.3       4 UNK         0.0283 
     31 CB         23.3852  -30.8643  -46.4143 C.3       4 UNK        -0.1875 
     32 C          25.0232  -29.4314  -45.0128 C.2       4 UNK         0.4949 
     33 O          25.9233  -28.5936  -44.9503 O.2       4 UNK        -0.5039 
     34 N          24.6981  -30.2522  -44.0051 N.am      5 UNK        -0.4663 
     35 CA         25.3472  -30.2736  -42.6927 C.3       5 UNK         0.0242 
     36 CB         25.0395  -31.6182  -42.0110 C.3       5 UNK        -0.1982 
     37 C          24.9517  -29.1062  -41.7678 C.2       5 UNK         0.5017 
     38 O          25.5875  -28.9623  -40.7238 O.2       5 UNK        -0.5012 
     39 N          23.9267  -28.3214  -42.1437 N.am      6 UNK        -0.4439 
     40 CA         23.2911  -27.2423  -41.3788 C.3       6 UNK         0.0297 
     41 CB         24.2731  -26.0905  -41.0828 C.3       6 UNK        -0.2006 
     42 C          22.6150  -27.7919  -40.1119 C.2       6 UNK         0.4892 
     43 O          23.2440  -27.8760  -39.0557 O.2       6 UNK        -0.5089 
     44 N          21.3518  -28.2085  -40.2656 N.am      7 UNK        -0.4243 
     45 CA         20.4488  -28.8371  -39.2896 C.3       7 UNK         0.0196 
     46 CB         20.1753  -27.9049  -38.0946 C.3       7 UNK        -0.2007 
     47 C          20.8668  -30.2413  -38.8136 C.2       7 UNK         0.5020 
     48 O          19.9949  -31.0885  -38.6255 O.2       7 UNK        -0.5147 
     49 N          22.1719  -30.4936  -38.6642 N.am      8 UNK        -0.4734 
     50 CA         22.7858  -31.7380  -38.1823 C.3       8 UNK         0.0238 
     51 CB         24.2158  -31.4143  -37.7092 C.3       8 UNK        -0.1912 
     52 C          22.7581  -32.9135  -39.1876 C.2       8 UNK         0.5038 
     53 O          23.6982  -33.7100  -39.2168 O.2       8 UNK        -0.5046 
     54 N          21.6950  -33.0092  -39.9911 N.am      9 UNK        -0.4200 
     55 CA         21.4302  -34.1121  -40.9238 C.3       9 UNK         0.0839 
     56 C          20.7458  -35.3011  -40.2003 C.2       9 UNK         0.5513 
     57 N          20.9805  -36.5217  -40.6618 N.am      9 UNK        -0.7519 
     58 O          19.9797  -35.1295  -39.2540 O.2       9 UNK        -0.4960 
     59 C59        20.5885  -33.6359  -42.1362 C.3       10 UNK        -0.0876 
     60 S60        21.5584  -32.5633  -43.2472 S.3       10 UNK        -0.2414 
     61 C61        21.0547  -30.9077  -42.6956 C.3       10 UNK         0.0169 
     62 H62        14.7793  -23.4250  -44.7343 H         1 UNK         0.0903 
     63 H63        15.0342  -23.2346  -42.9988 H         1 UNK         0.0903 
     64 H64        16.0149  -22.3126  -44.1405 H         1 UNK         0.0903 
     65 H65        16.1664  -24.9359  -42.1146 H         1 UNK         0.3096 
     66 H66        17.5264  -26.8900  -43.7107 H         1 UNK         0.1121 
     67 H67        16.9670  -26.6323  -40.7161 H         1 UNK         0.0849 
     68 H68        17.8713  -27.9702  -41.3433 H         1 UNK         0.0849 
     69 H69        16.2836  -30.2564  -41.2911 H         1 UNK         0.0865 
     70 H70        15.3175  -30.3861  -42.7377 H         1 UNK         0.0865 
     71 H71        18.5907  -30.7071  -41.5234 H         1 UNK         0.1346 
     72 H72        20.6196  -30.0845  -45.2415 H         1 UNK         0.1412 
     73 H73        16.4535  -29.1643  -44.9115 H         1 UNK         0.1426 
     74 H74        17.5867  -29.2851  -47.1368 H         1 UNK         0.0716 
     75 H75        19.2944  -29.6144  -47.2598 H         1 UNK         0.0716 
     76 H76        20.5236  -26.3708  -48.1228 H         1 UNK         0.0695 
     77 H77        20.8692  -28.0359  -47.8470 H         1 UNK         0.0695 
     78 H78        22.3678  -26.0318  -46.8345 H         1 UNK         0.0983 
     79 H79        20.0751  -25.8744  -45.1518 H         1 UNK         0.3095 
     80 H80        21.4085  -24.5653  -42.3114 H         1 UNK         0.0454 
     81 H81        21.9664  -22.4524  -43.5113 H         1 UNK         0.0851 
     82 H82        20.4257  -22.3110  -42.6835 H         1 UNK         0.0851 
     83 H83        20.4712  -22.5560  -44.4301 H         1 UNK         0.0851 
     84 H84        18.8386  -24.2311  -43.6519 H         1 UNK         0.2976 
     85 H85        23.4559  -27.9783  -47.4780 H         1 UNK         0.3116 
     86 H86        24.9379  -29.5770  -47.1255 H         1 UNK         0.0646 
     87 H87        22.6214  -30.9334  -45.6423 H         1 UNK         0.0847 
     88 H88        22.8837  -30.9396  -47.3791 H         1 UNK         0.0847 
     89 H89        24.0272  -31.7413  -46.3213 H         1 UNK         0.0847 
     90 H90        23.9326  -30.8970  -44.1409 H         1 UNK         0.3040 
     91 H91        26.4268  -30.2083  -42.8460 H         1 UNK         0.1015 
     92 H92        25.5888  -31.7171  -41.0736 H         1 UNK         0.0786 
     93 H93        25.3227  -32.4623  -42.6398 H         1 UNK         0.0786 
     94 H94        23.9807  -31.7151  -41.7723 H         1 UNK         0.0786 
     95 H95        23.4807  -28.5156  -43.0379 H         1 UNK         0.3172 
     96 H96        22.5126  -26.8390  -42.0256 H         1 UNK         0.0595 
     97 H97        25.0882  -26.3984  -40.4278 H         1 UNK         0.0839 
     98 H98        23.7588  -25.2645  -40.5906 H         1 UNK         0.0839 
     99 H99        24.7088  -25.6997  -42.0024 H         1 UNK         0.0839 
    100 H100       20.9157  -28.0040  -41.1632 H         1 UNK         0.2998 
    101 H101       19.5044  -28.9662  -39.8197 H         1 UNK         0.0822 
    102 H102       19.4222  -28.3337  -37.4320 H         1 UNK         0.0787 
    103 H103       19.8012  -26.9364  -38.4269 H         1 UNK         0.0787 
    104 H104       21.0709  -27.7326  -37.4971 H         1 UNK         0.0787 
    105 H105       22.8023  -29.7126  -38.8304 H         1 UNK         0.3055 
    106 H106       22.2164  -32.0727  -37.3124 H         1 UNK         0.1106 
    107 H107       24.2168  -30.6226  -36.9598 H         1 UNK         0.0828 
    108 H108       24.6912  -32.2843  -37.2542 H         1 UNK         0.0828 
    109 H109       24.8470  -31.0903  -38.5381 H         1 UNK         0.0828 
    110 H110       20.9250  -32.3755  -39.8113 H         1 UNK         0.2931 
    111 H111       22.3878  -34.4738  -41.3055 H         1 UNK         0.0412 
    112 H112       21.6012  -36.6736  -41.4421 H         1 UNK         0.3472 
    113 H113       20.5355  -37.3091  -40.2158 H         1 UNK         0.3472 
    114 H114       20.2585  -34.4886  -42.7329 H         1 UNK         0.0970 
    115 H115       19.6786  -33.1279  -41.8124 H         1 UNK         0.0970 
    116 H116       20.9955  -30.8827  -41.6097 H         1 UNK         0.0612 
    117 H117       21.8367  -30.2001  -42.9656 H         1 UNK         0.0612 
@<TRIPOS>BOND
     1    1    2 1    
     2    1   62 1    
     3    1   63 1    
     4    1   64 1    
     5    2    3 2    
     6    2    4 am   BACKBONE|DICT|INTERRES
     7    4    5 1    
     8    4   65 1    
     9    5    6 1    
    10    5   25 1    
    11    5   66 1    
    12    6    7 1    
    13    6   67 1    
    14    6   68 1    
    15    7    8 1    
    16    8    9 1    
    17    8   69 1    
    18    8   70 1    
    19    9   10 ar   
    20    9   14 ar   
    21   10   11 ar   
    22   10   71 1    
    23   11   12 ar   
    24   11   61 1    
    25   12   13 ar   
    26   12   72 1    
    27   13   14 ar   
    28   13   15 1    
    29   14   73 1    
    30   15   16 1    
    31   15   74 1    
    32   15   75 1    
    33   16   17 1    
    34   17   18 1    
    35   17   76 1    
    36   17   77 1    
    37   18   19 1    
    38   18   27 1    
    39   18   78 1    
    40   19   20 am   BACKBONE|DICT|INTERRES
    41   19   79 1    
    42   20   21 2    
    43   20   22 1    
    44   22   23 1    
    45   22   24 1    
    46   22   80 1    
    47   23   81 1    
    48   23   82 1    
    49   23   83 1    
    50   24   25 am   BACKBONE|DICT|INTERRES
    51   24   84 1    
    52   25   26 2    
    53   27   28 2    
    54   27   29 am   BACKBONE|DICT|INTERRES
    55   29   30 1    
    56   29   85 1    
    57   30   31 1    
    58   30   32 1    
    59   30   86 1    
    60   31   87 1    
    61   31   88 1    
    62   31   89 1    
    63   32   33 2    
    64   32   34 am   BACKBONE|DICT|INTERRES
    65   34   35 1    
    66   34   90 1    
    67   35   36 1    
    68   35   37 1    
    69   35   91 1    
    70   36   92 1    
    71   36   93 1    
    72   36   94 1    
    73   37   38 2    
    74   37   39 am   BACKBONE|DICT|INTERRES
    75   39   40 1    
    76   39   95 1    
    77   40   41 1    
    78   40   42 1    
    79   40   96 1    
    80   41   97 1    
    81   41   98 1    
    82   41   99 1    
    83   42   43 2    
    84   42   44 am   BACKBONE|DICT|INTERRES
    85   44   45 1    
    86   44  100 1    
    87   45   46 1    
    88   45   47 1    
    89   45  101 1    
    90   46  102 1    
    91   46  103 1    
    92   46  104 1    
    93   47   48 2    
    94   47   49 am   BACKBONE|DICT|INTERRES
    95   49   50 1    
    96   49  105 1    
    97   50   51 1    
    98   50   52 1    
    99   50  106 1    
   100   51  107 1    
   101   51  108 1    
   102   51  109 1    
   103   52   53 2    
   104   52   54 am   BACKBONE|DICT|INTERRES
   105   54   55 1    
   106   54  110 1    
   107   55   56 1    
   108   55   59 1    
   109   55  111 1    
   110   56   57 am   BACKBONE|DICT|INTERRES
   111   56   58 2    
   112   57  112 1    
   113   57  113 1    
   114   59   60 1    
   115   59  114 1    
   116   59  115 1    
   117   60   61 1    
   118   61  116 1    
   119   61  117 1    
@<TRIPOS>SUBSTRUCTURE
     1 UNK         1 GROUP             0       ****    0 ROOT    
