@<TRIPOS>MOLECULE
3R8
117   119    1
SMALL
USER_CHARGES


@<TRIPOS>ATOM
      1 CA         19.8059  -31.8878  -47.9968 C.3       0 UNK        -0.2013 
      2 C          18.9479  -31.0714  -47.0419 C.2       0 UNK         0.4866 
      3 O          18.3846  -31.6326  -46.1022 O.2       0 UNK        -0.5176 
      4 N          18.8531  -29.7574  -47.2811 N.am      1 UNK        -0.4884 
      5 CA         18.1305  -28.7962  -46.4424 C.3       1 UNK         0.0853 
      6 C6         16.7557  -28.3752  -47.0391 C.3       10 UNK        -0.0849 
      7 S7         15.5245  -29.7224  -47.0102 S.3       10 UNK        -0.2776 
      8 C8         14.4231  -29.2094  -45.6408 C.3       10 UNK         0.0316 
      9 C9         15.1514  -28.9962  -44.3152 C.ar      10 UNK        -0.0863 
     10 C10        16.0442  -29.9570  -43.8325 C.ar      10 UNK        -0.1009 
     11 C11        16.7562  -29.7347  -42.6528 C.ar      10 UNK        -0.0712 
     12 C12        16.5126  -28.5804  -41.9060 C.ar      10 UNK        -0.0894 
     13 C13        15.6186  -27.6088  -42.3686 C.ar      10 UNK        -0.0745 
     14 C14        14.9420  -27.8263  -43.5752 C.ar      10 UNK        -0.0972 
     15 C15        15.3643  -26.3238  -41.5806 C.3       10 UNK         0.0209 
     16 S16        16.8438  -25.6232  -40.7633 S.3       10 UNK        -0.2568 
     17 C17        17.9276  -25.2253  -42.1776 C.3       10 UNK        -0.0983 
     18 CA         19.2666  -26.0076  -42.1323 C.3       3 UNK         0.0876 
     19 N          19.8705  -26.0966  -43.4623 N.am      3 UNK        -0.4424 
     20 C          21.0214  -26.6973  -43.7957 C.2       2 UNK         0.4918 
     21 O          21.8186  -27.1805  -42.9890 O.2       2 UNK        -0.4875 
     22 CA         21.2567  -26.8482  -45.3096 C.3       2 UNK         0.0481 
     23 CB         22.6994  -27.2469  -45.6670 C.3       2 UNK        -0.1831 
     24 N          20.3225  -27.8507  -45.8300 N.am      2 UNK        -0.4498 
     25 C          19.0407  -27.5934  -46.1336 C.2       1 UNK         0.5027 
     26 O          18.5777  -26.4502  -46.1444 O.2       1 UNK        -0.4969 
     27 C          20.2454  -25.4411  -41.0826 C.2       3 UNK         0.5005 
     28 O          20.5807  -24.2555  -41.1367 O.2       3 UNK        -0.5279 
     29 N          20.7010  -26.3199  -40.1766 N.am      4 UNK        -0.4463 
     30 CA         21.6498  -26.0738  -39.0837 C.3       4 UNK         0.0283 
     31 CB         21.0649  -25.0737  -38.0632 C.3       4 UNK        -0.1875 
     32 C          23.0750  -25.6851  -39.5332 C.2       4 UNK         0.4949 
     33 O          23.8489  -25.2031  -38.7047 O.2       4 UNK        -0.5039 
     34 N          23.4255  -25.9170  -40.8078 N.am      5 UNK        -0.4663 
     35 CA         24.7711  -25.6674  -41.3399 C.3       5 UNK         0.0242 
     36 CB         24.7051  -25.5603  -42.8704 C.3       5 UNK        -0.1982 
     37 C          25.7758  -26.7573  -40.9288 C.2       5 UNK         0.5017 
     38 O          26.9680  -26.4720  -40.8118 O.2       5 UNK        -0.5012 
     39 N          25.2738  -27.9776  -40.7166 N.am      6 UNK        -0.4439 
     40 CA         26.0018  -29.1602  -40.2758 C.3       6 UNK         0.0297 
     41 CB         26.7631  -29.7861  -41.4597 C.3       6 UNK        -0.2006 
     42 C          24.9761  -30.1447  -39.7076 C.2       6 UNK         0.4892 
     43 O          23.7992  -30.0679  -40.0709 O.2       6 UNK        -0.5089 
     44 N          25.4392  -31.0792  -38.8671 N.am      7 UNK        -0.4243 
     45 CA         24.6144  -32.1241  -38.2439 C.3       7 UNK         0.0196 
     46 CB         25.4599  -32.8941  -37.2166 C.3       7 UNK        -0.2007 
     47 C          23.9726  -33.0981  -39.2506 C.2       7 UNK         0.5020 
     48 O          22.9019  -33.6381  -38.9738 O.2       7 UNK        -0.5147 
     49 N          24.6238  -33.2859  -40.4065 N.am      8 UNK        -0.4734 
     50 CA         24.1171  -34.0725  -41.5343 C.3       8 UNK         0.0238 
     51 CB         25.3056  -34.4943  -42.4153 C.3       8 UNK        -0.1912 
     52 C          23.0600  -33.3315  -42.3774 C.2       8 UNK         0.5038 
     53 O          22.4110  -33.9722  -43.2048 O.2       8 UNK        -0.5046 
     54 N          22.9146  -32.0126  -42.1766 N.am      9 UNK        -0.4200 
     55 CA         22.0154  -31.1150  -42.9194 C.3       9 UNK         0.0839 
     56 C          22.3953  -30.9011  -44.4186 C.2       9 UNK         0.5513 
     57 N          23.6191  -31.2041  -44.8359 N.am      9 UNK        -0.7519 
     58 O          21.5911  -30.4245  -45.2145 O.2       9 UNK        -0.4960 
     59 C59        20.5167  -31.4702  -42.6957 C.3       10 UNK        -0.0876 
     60 S60        19.4651  -29.9868  -42.6707 S.3       10 UNK        -0.2414 
     61 C61        17.8512  -30.6974  -42.2331 C.3       10 UNK         0.0169 
     62 H62        19.2207  -32.6995  -48.4281 H         1 UNK         0.0903 
     63 H63        20.2003  -31.2824  -48.8127 H         1 UNK         0.0903 
     64 H64        20.6487  -32.3214  -47.4585 H         1 UNK         0.0903 
     65 H65        19.3567  -29.3558  -48.0604 H         1 UNK         0.3096 
     66 H66        17.9569  -29.2406  -45.4630 H         1 UNK         0.1121 
     67 H67        16.3311  -27.5290  -46.4958 H         1 UNK         0.0849 
     68 H68        16.8779  -28.0359  -48.0689 H         1 UNK         0.0849 
     69 H69        13.8963  -28.3024  -45.9418 H         1 UNK         0.0865 
     70 H70        13.6584  -29.9744  -45.5002 H         1 UNK         0.0865 
     71 H71        16.2343  -30.8509  -44.4120 H         1 UNK         0.1346 
     72 H72        17.0562  -28.4233  -40.9850 H         1 UNK         0.1412 
     73 H73        14.2508  -27.0789  -43.9411 H         1 UNK         0.1426 
     74 H74        14.6139  -26.5324  -40.8172 H         1 UNK         0.0716 
     75 H75        14.9380  -25.5571  -42.2295 H         1 UNK         0.0716 
     76 H76        18.0953  -24.1470  -42.2081 H         1 UNK         0.0695 
     77 H77        17.3881  -25.4631  -43.0961 H         1 UNK         0.0695 
     78 H78        19.0354  -27.0390  -41.8599 H         1 UNK         0.0983 
     79 H79        19.2918  -25.7738  -44.2280 H         1 UNK         0.3095 
     80 H80        21.0610  -25.8844  -45.7845 H         1 UNK         0.0454 
     81 H81        23.0343  -28.1277  -45.1205 H         1 UNK         0.0851 
     82 H82        23.3893  -26.4366  -45.4336 H         1 UNK         0.0851 
     83 H83        22.8012  -27.4569  -46.7315 H         1 UNK         0.0851 
     84 H84        20.6290  -28.8198  -45.7685 H         1 UNK         0.2976 
     85 H85        20.3963  -27.2802  -40.2634 H         1 UNK         0.3116 
     86 H86        21.7593  -27.0309  -38.5717 H         1 UNK         0.0646 
     87 H87        20.9960  -24.0670  -38.4764 H         1 UNK         0.0847 
     88 H88        21.6876  -25.0138  -37.1698 H         1 UNK         0.0847 
     89 H89        20.0680  -25.3726  -37.7396 H         1 UNK         0.0847 
     90 H90        22.7453  -26.3202  -41.4466 H         1 UNK         0.3040 
     91 H91        25.1319  -24.7142  -40.9464 H         1 UNK         0.1015 
     92 H92        24.4406  -26.5162  -43.3226 H         1 UNK         0.0786 
     93 H93        25.6708  -25.2635  -43.2816 H         1 UNK         0.0786 
     94 H94        23.9722  -24.8189  -43.1894 H         1 UNK         0.0786 
     95 H95        24.2740  -28.1212  -40.8004 H         1 UNK         0.3172 
     96 H96        26.7004  -28.8798  -39.4847 H         1 UNK         0.0595 
     97 H97        27.3056  -30.6809  -41.1525 H         1 UNK         0.0839 
     98 H98        27.4973  -29.0935  -41.8715 H         1 UNK         0.0839 
     99 H99        26.0872  -30.0722  -42.2668 H         1 UNK         0.0839 
    100 H100       26.4208  -31.0747  -38.6269 H         1 UNK         0.2998 
    101 H101       23.7993  -31.6273  -37.7129 H         1 UNK         0.0822 
    102 H102       24.8652  -33.6612  -36.7181 H         1 UNK         0.0787 
    103 H103       26.3091  -33.3936  -37.6847 H         1 UNK         0.0787 
    104 H104       25.8442  -32.2313  -36.4409 H         1 UNK         0.0787 
    105 H105       25.5079  -32.8159  -40.5367 H         1 UNK         0.3055 
    106 H106       23.6409  -34.9758  -41.1459 H         1 UNK         0.1106 
    107 H107       24.9733  -35.1106  -43.2521 H         1 UNK         0.0828 
    108 H108       25.8274  -33.6326  -42.8333 H         1 UNK         0.0828 
    109 H109       26.0283  -35.0839  -41.8509 H         1 UNK         0.0828 
    110 H110       23.4545  -31.5641  -41.4459 H         1 UNK         0.2931 
    111 H111       22.1961  -30.1432  -42.4575 H         1 UNK         0.0412 
    112 H112       24.2984  -31.5874  -44.2002 H         1 UNK         0.3472 
    113 H113       23.8576  -31.0548  -45.8032 H         1 UNK         0.3472 
    114 H114       20.1567  -32.1650  -43.4573 H         1 UNK         0.0970 
    115 H115       20.3835  -31.9739  -41.7370 H         1 UNK         0.0970 
    116 H116       17.8074  -30.8839  -41.1592 H         1 UNK         0.0612 
    117 H117       17.7247  -31.6603  -42.7308 H         1 UNK         0.0612 
@<TRIPOS>BOND
     1    1    2 1    
     2    1   62 1    
     3    1   63 1    
     4    1   64 1    
     5    2    3 2    
     6    2    4 am   BACKBONE|DICT|INTERRES
     7    4    5 1    
     8    4   65 1    
     9    5    6 1    
    10    5   25 1    
    11    5   66 1    
    12    6    7 1    
    13    6   67 1    
    14    6   68 1    
    15    7    8 1    
    16    8    9 1    
    17    8   69 1    
    18    8   70 1    
    19    9   10 ar   
    20    9   14 ar   
    21   10   11 ar   
    22   10   71 1    
    23   11   12 ar   
    24   11   61 1    
    25   12   13 ar   
    26   12   72 1    
    27   13   14 ar   
    28   13   15 1    
    29   14   73 1    
    30   15   16 1    
    31   15   74 1    
    32   15   75 1    
    33   16   17 1    
    34   17   18 1    
    35   17   76 1    
    36   17   77 1    
    37   18   19 1    
    38   18   27 1    
    39   18   78 1    
    40   19   20 am   BACKBONE|DICT|INTERRES
    41   19   79 1    
    42   20   21 2    
    43   20   22 1    
    44   22   23 1    
    45   22   24 1    
    46   22   80 1    
    47   23   81 1    
    48   23   82 1    
    49   23   83 1    
    50   24   25 am   BACKBONE|DICT|INTERRES
    51   24   84 1    
    52   25   26 2    
    53   27   28 2    
    54   27   29 am   BACKBONE|DICT|INTERRES
    55   29   30 1    
    56   29   85 1    
    57   30   31 1    
    58   30   32 1    
    59   30   86 1    
    60   31   87 1    
    61   31   88 1    
    62   31   89 1    
    63   32   33 2    
    64   32   34 am   BACKBONE|DICT|INTERRES
    65   34   35 1    
    66   34   90 1    
    67   35   36 1    
    68   35   37 1    
    69   35   91 1    
    70   36   92 1    
    71   36   93 1    
    72   36   94 1    
    73   37   38 2    
    74   37   39 am   BACKBONE|DICT|INTERRES
    75   39   40 1    
    76   39   95 1    
    77   40   41 1    
    78   40   42 1    
    79   40   96 1    
    80   41   97 1    
    81   41   98 1    
    82   41   99 1    
    83   42   43 2    
    84   42   44 am   BACKBONE|DICT|INTERRES
    85   44   45 1    
    86   44  100 1    
    87   45   46 1    
    88   45   47 1    
    89   45  101 1    
    90   46  102 1    
    91   46  103 1    
    92   46  104 1    
    93   47   48 2    
    94   47   49 am   BACKBONE|DICT|INTERRES
    95   49   50 1    
    96   49  105 1    
    97   50   51 1    
    98   50   52 1    
    99   50  106 1    
   100   51  107 1    
   101   51  108 1    
   102   51  109 1    
   103   52   53 2    
   104   52   54 am   BACKBONE|DICT|INTERRES
   105   54   55 1    
   106   54  110 1    
   107   55   56 1    
   108   55   59 1    
   109   55  111 1    
   110   56   57 am   BACKBONE|DICT|INTERRES
   111   56   58 2    
   112   57  112 1    
   113   57  113 1    
   114   59   60 1    
   115   59  114 1    
   116   59  115 1    
   117   60   61 1    
   118   61  116 1    
   119   61  117 1    
@<TRIPOS>SUBSTRUCTURE
     1 UNK         1 GROUP             0       ****    0 ROOT    
