@<TRIPOS>MOLECULE
3R8
117   119    1
SMALL
USER_CHARGES


@<TRIPOS>ATOM
      1 CA         14.4768  -23.0707  -45.3632 C.3       0 UNK        -0.2013 
      2 C          15.5805  -23.9463  -45.9370 C.2       0 UNK         0.4866 
      3 O          16.5950  -23.4276  -46.4029 O.2       0 UNK        -0.5176 
      4 N          15.3924  -25.2719  -45.9067 N.am      1 UNK        -0.4884 
      5 CA         16.3556  -26.2684  -46.3959 C.3       1 UNK         0.0853 
      6 C6         15.6715  -27.6330  -46.6744 C.3       10 UNK        -0.0849 
      7 S7         14.8307  -28.3606  -45.2185 S.3       10 UNK        -0.2776 
      8 C8         15.5346  -30.0417  -45.1540 C.3       10 UNK         0.0316 
      9 C9         16.9213  -30.0859  -44.5221 C.ar      10 UNK        -0.0863 
     10 C10        17.0608  -30.0292  -43.1316 C.ar      10 UNK        -0.1009 
     11 C11        18.3205  -30.1302  -42.5308 C.ar      10 UNK        -0.0712 
     12 C12        19.4485  -30.2959  -43.3443 C.ar      10 UNK        -0.0894 
     13 C13        19.3274  -30.3420  -44.7367 C.ar      10 UNK        -0.0745 
     14 C14        18.0606  -30.2342  -45.3188 C.ar      10 UNK        -0.0972 
     15 C15        20.5571  -30.5447  -45.6142 C.3       10 UNK         0.0209 
     16 S16        21.4181  -28.9808  -45.9914 S.3       10 UNK        -0.2568 
     17 C17        22.3543  -28.6955  -44.4511 C.3       10 UNK        -0.0983 
     18 CA         21.9322  -27.4358  -43.6440 C.3       3 UNK         0.0876 
     19 N          20.4752  -27.3110  -43.5150 N.am      3 UNK        -0.4424 
     20 C          19.8028  -26.1754  -43.2969 C.2       2 UNK         0.4918 
     21 O          20.3256  -25.0620  -43.2338 O.2       2 UNK        -0.4875 
     22 CA         18.2925  -26.3368  -43.0458 C.3       2 UNK         0.0481 
     23 CB         17.8334  -25.4746  -41.8572 C.3       2 UNK        -0.1831 
     24 N          17.4223  -26.0682  -44.1926 N.am      2 UNK        -0.4498 
     25 C          17.5789  -26.4453  -45.4721 C.2       1 UNK         0.5027 
     26 O          18.5995  -26.9443  -45.9413 O.2       1 UNK        -0.4969 
     27 C          22.6384  -27.4550  -42.2668 C.2       3 UNK         0.5005 
     28 O          23.8669  -27.5272  -42.2339 O.2       3 UNK        -0.5279 
     29 N          21.8529  -27.4248  -41.1750 N.am      4 UNK        -0.4463 
     30 CA         22.1746  -27.7331  -39.7742 C.3       4 UNK         0.0283 
     31 CB         21.0046  -27.2825  -38.8848 C.3       4 UNK        -0.1875 
     32 C          23.5014  -27.2008  -39.2073 C.2       4 UNK         0.4949 
     33 O          24.0802  -27.8612  -38.3446 O.2       4 UNK        -0.5039 
     34 N          23.9936  -26.0641  -39.7178 N.am      5 UNK        -0.4663 
     35 CA         25.3262  -25.5213  -39.4227 C.3       5 UNK         0.0242 
     36 CB         25.4824  -24.1634  -40.1256 C.3       5 UNK        -0.1982 
     37 C          26.4858  -26.4649  -39.8092 C.2       5 UNK         0.5017 
     38 O          27.5502  -26.3883  -39.1948 O.2       5 UNK        -0.5012 
     39 N          26.2505  -27.3447  -40.7915 N.am      6 UNK        -0.4439 
     40 CA         27.1439  -28.4179  -41.2261 C.3       6 UNK         0.0297 
     41 CB         27.5429  -28.1613  -42.6912 C.3       6 UNK        -0.2006 
     42 C          26.4825  -29.8005  -41.0458 C.2       6 UNK         0.4892 
     43 O          26.8907  -30.7495  -41.7174 O.2       6 UNK        -0.5089 
     44 N          25.4859  -29.8969  -40.1486 N.am      7 UNK        -0.4243 
     45 CA         24.6454  -31.0685  -39.8709 C.3       7 UNK         0.0196 
     46 CB         25.4686  -32.1906  -39.1967 C.3       7 UNK        -0.2007 
     47 C          23.8630  -31.5086  -41.1250 C.2       7 UNK         0.5020 
     48 O          23.1230  -30.6961  -41.6739 O.2       7 UNK        -0.5147 
     49 N          24.0226  -32.7718  -41.5478 N.am      8 UNK        -0.4734 
     50 CA         23.4839  -33.3760  -42.7786 C.3       8 UNK         0.0238 
     51 CB         24.0686  -32.6753  -44.0253 C.3       8 UNK        -0.1912 
     52 C          21.9452  -33.4868  -42.8503 C.2       8 UNK         0.5038 
     53 O          21.4160  -33.7509  -43.9311 O.2       8 UNK        -0.5046 
     54 N          21.2541  -33.3160  -41.7160 N.am      9 UNK        -0.4200 
     55 CA         19.7874  -33.4060  -41.6049 C.3       9 UNK         0.0839 
     56 C          19.2186  -34.8544  -41.6532 C.2       9 UNK         0.5513 
     57 N          20.0371  -35.8973  -41.5771 N.am      9 UNK        -0.7519 
     58 O          18.0088  -35.0350  -41.7638 O.2       9 UNK        -0.4960 
     59 C59        19.2446  -32.6434  -40.3664 C.3       10 UNK        -0.0876 
     60 S60        19.8202  -30.9140  -40.2542 S.3       10 UNK        -0.2414 
     61 C61        18.4303  -30.0032  -41.0106 C.3       10 UNK         0.0169 
     62 H62        14.8650  -22.4664  -44.5438 H         1 UNK         0.0903 
     63 H63        14.0944  -22.3984  -46.1308 H         1 UNK         0.0903 
     64 H64        13.6429  -23.6609  -44.9839 H         1 UNK         0.0903 
     65 H65        14.5395  -25.6525  -45.5186 H         1 UNK         0.3096 
     66 H66        16.7496  -25.9035  -47.3476 H         1 UNK         0.1121 
     67 H67        14.9242  -27.5080  -47.4595 H         1 UNK         0.0849 
     68 H68        16.3957  -28.3424  -47.0792 H         1 UNK         0.0849 
     69 H69        14.8624  -30.6739  -44.5719 H         1 UNK         0.0865 
     70 H70        15.5497  -30.4724  -46.1565 H         1 UNK         0.0865 
     71 H71        16.1805  -29.9032  -42.5158 H         1 UNK         0.1346 
     72 H72        20.4263  -30.3917  -42.8932 H         1 UNK         0.1412 
     73 H73        17.9620  -30.2797  -46.3947 H         1 UNK         0.1426 
     74 H74        20.2633  -31.0101  -46.5562 H         1 UNK         0.0716 
     75 H75        21.2471  -31.2454  -45.1421 H         1 UNK         0.0716 
     76 H76        22.2874  -29.5908  -43.8350 H         1 UNK         0.0695 
     77 H77        23.4085  -28.6183  -44.7235 H         1 UNK         0.0695 
     78 H78        22.2997  -26.5574  -44.1789 H         1 UNK         0.0983 
     79 H79        19.9502  -28.1651  -43.6535 H         1 UNK         0.3095 
     80 H80        18.1127  -27.3748  -42.7693 H         1 UNK         0.0454 
     81 H81        18.4570  -25.6502  -40.9795 H         1 UNK         0.0851 
     82 H82        17.8885  -24.4098  -42.0875 H         1 UNK         0.0851 
     83 H83        16.8067  -25.7036  -41.5713 H         1 UNK         0.0851 
     84 H84        16.5310  -25.6509  -43.9698 H         1 UNK         0.2976 
     85 H85        20.8672  -27.3414  -41.3675 H         1 UNK         0.3116 
     86 H86        22.2332  -28.8216  -39.7177 H         1 UNK         0.0646 
     87 H87        21.1983  -27.5113  -37.8356 H         1 UNK         0.0847 
     88 H88        20.0788  -27.7906  -39.1535 H         1 UNK         0.0847 
     89 H89        20.8340  -26.2077  -38.9577 H         1 UNK         0.0847 
     90 H90        23.4638  -25.6048  -40.4448 H         1 UNK         0.3040 
     91 H91        25.3870  -25.3616  -38.3439 H         1 UNK         0.1015 
     92 H92        24.7225  -23.4548  -39.7954 H         1 UNK         0.0786 
     93 H93        25.4059  -24.2598  -41.2095 H         1 UNK         0.0786 
     94 H94        26.4544  -23.7193  -39.9055 H         1 UNK         0.0786 
     95 H95        25.3368  -27.3315  -41.2505 H         1 UNK         0.3172 
     96 H96        28.0515  -28.4257  -40.6199 H         1 UNK         0.0595 
     97 H97        28.2590  -28.9053  -43.0425 H         1 UNK         0.0839 
     98 H98        28.0109  -27.1839  -42.8089 H         1 UNK         0.0839 
     99 H99        26.6766  -28.2006  -43.3531 H         1 UNK         0.0839 
    100 H100       25.2223  -29.0566  -39.6469 H         1 UNK         0.2998 
    101 H101       23.8941  -30.7378  -39.1521 H         1 UNK         0.0822 
    102 H102       25.9593  -31.8228  -38.2954 H         1 UNK         0.0787 
    103 H103       24.8306  -33.0209  -38.8913 H         1 UNK         0.0787 
    104 H104       26.2452  -32.5874  -39.8516 H         1 UNK         0.0787 
    105 H105       24.6432  -33.3624  -41.0111 H         1 UNK         0.3055 
    106 H106       23.8460  -34.4053  -42.7878 H         1 UNK         0.1106 
    107 H107       23.6939  -31.6570  -44.1307 H         1 UNK         0.0828 
    108 H108       25.1566  -32.6266  -43.9791 H         1 UNK         0.0828 
    109 H109       23.8087  -33.2115  -44.9388 H         1 UNK         0.0828 
    110 H110       21.7569  -33.0807  -40.8742 H         1 UNK         0.2931 
    111 H111       19.3726  -32.9140  -42.4855 H         1 UNK         0.0412 
    112 H112       21.0309  -35.7623  -41.4857 H         1 UNK         0.3472 
    113 H113       19.6547  -36.8295  -41.6124 H         1 UNK         0.3472 
    114 H114       18.1530  -32.6518  -40.3615 H         1 UNK         0.0970 
    115 H115       19.5495  -33.1528  -39.4505 H         1 UNK         0.0970 
    116 H116       18.5477  -28.9464  -40.7699 H         1 UNK         0.0612 
    117 H117       17.5026  -30.3229  -40.5335 H         1 UNK         0.0612 
@<TRIPOS>BOND
     1    1    2 1    
     2    1   62 1    
     3    1   63 1    
     4    1   64 1    
     5    2    3 2    
     6    2    4 am   BACKBONE|DICT|INTERRES
     7    4    5 1    
     8    4   65 1    
     9    5    6 1    
    10    5   25 1    
    11    5   66 1    
    12    6    7 1    
    13    6   67 1    
    14    6   68 1    
    15    7    8 1    
    16    8    9 1    
    17    8   69 1    
    18    8   70 1    
    19    9   10 ar   
    20    9   14 ar   
    21   10   11 ar   
    22   10   71 1    
    23   11   12 ar   
    24   11   61 1    
    25   12   13 ar   
    26   12   72 1    
    27   13   14 ar   
    28   13   15 1    
    29   14   73 1    
    30   15   16 1    
    31   15   74 1    
    32   15   75 1    
    33   16   17 1    
    34   17   18 1    
    35   17   76 1    
    36   17   77 1    
    37   18   19 1    
    38   18   27 1    
    39   18   78 1    
    40   19   20 am   BACKBONE|DICT|INTERRES
    41   19   79 1    
    42   20   21 2    
    43   20   22 1    
    44   22   23 1    
    45   22   24 1    
    46   22   80 1    
    47   23   81 1    
    48   23   82 1    
    49   23   83 1    
    50   24   25 am   BACKBONE|DICT|INTERRES
    51   24   84 1    
    52   25   26 2    
    53   27   28 2    
    54   27   29 am   BACKBONE|DICT|INTERRES
    55   29   30 1    
    56   29   85 1    
    57   30   31 1    
    58   30   32 1    
    59   30   86 1    
    60   31   87 1    
    61   31   88 1    
    62   31   89 1    
    63   32   33 2    
    64   32   34 am   BACKBONE|DICT|INTERRES
    65   34   35 1    
    66   34   90 1    
    67   35   36 1    
    68   35   37 1    
    69   35   91 1    
    70   36   92 1    
    71   36   93 1    
    72   36   94 1    
    73   37   38 2    
    74   37   39 am   BACKBONE|DICT|INTERRES
    75   39   40 1    
    76   39   95 1    
    77   40   41 1    
    78   40   42 1    
    79   40   96 1    
    80   41   97 1    
    81   41   98 1    
    82   41   99 1    
    83   42   43 2    
    84   42   44 am   BACKBONE|DICT|INTERRES
    85   44   45 1    
    86   44  100 1    
    87   45   46 1    
    88   45   47 1    
    89   45  101 1    
    90   46  102 1    
    91   46  103 1    
    92   46  104 1    
    93   47   48 2    
    94   47   49 am   BACKBONE|DICT|INTERRES
    95   49   50 1    
    96   49  105 1    
    97   50   51 1    
    98   50   52 1    
    99   50  106 1    
   100   51  107 1    
   101   51  108 1    
   102   51  109 1    
   103   52   53 2    
   104   52   54 am   BACKBONE|DICT|INTERRES
   105   54   55 1    
   106   54  110 1    
   107   55   56 1    
   108   55   59 1    
   109   55  111 1    
   110   56   57 am   BACKBONE|DICT|INTERRES
   111   56   58 2    
   112   57  112 1    
   113   57  113 1    
   114   59   60 1    
   115   59  114 1    
   116   59  115 1    
   117   60   61 1    
   118   61  116 1    
   119   61  117 1    
@<TRIPOS>SUBSTRUCTURE
     1 UNK         1 GROUP             0       ****    0 ROOT    
