@<TRIPOS>MOLECULE
3R8
117   119    1
SMALL
USER_CHARGES


@<TRIPOS>ATOM
      1 CA         17.9211  -21.7975  -44.1104 C.3       0 UNK        -0.2013 
      2 C          18.3447  -23.0476  -44.8676 C.2       0 UNK         0.4866 
      3 O          19.1941  -22.9659  -45.7557 O.2       0 UNK        -0.5176 
      4 N          17.7553  -24.2004  -44.5249 N.am      1 UNK        -0.4884 
      5 CA         18.1080  -25.5168  -45.0702 C.3       1 UNK         0.0853 
      6 C6         16.8868  -26.4738  -45.0511 C.3       10 UNK        -0.0849 
      7 S7         16.9576  -27.7050  -46.3965 S.3       10 UNK        -0.2776 
      8 C8         15.8191  -28.9815  -45.7802 C.3       10 UNK         0.0316 
      9 C9         16.4693  -29.8808  -44.7379 C.ar      10 UNK        -0.0863 
     10 C10        17.3025  -30.9297  -45.1430 C.ar      10 UNK        -0.1009 
     11 C11        17.8436  -31.8118  -44.2023 C.ar      10 UNK        -0.0712 
     12 C12        17.5391  -31.6374  -42.8501 C.ar      10 UNK        -0.0894 
     13 C13        16.7292  -30.5802  -42.4284 C.ar      10 UNK        -0.0745 
     14 C14        16.1962  -29.7025  -43.3771 C.ar      10 UNK        -0.0972 
     15 C15        16.3879  -30.4346  -40.9528 C.3       10 UNK         0.0209 
     16 S16        17.8737  -30.2628  -39.9139 S.3       10 UNK        -0.2568 
     17 C17        18.2096  -28.4762  -40.0020 C.3       10 UNK        -0.0983 
     18 CA         19.6550  -28.1825  -40.4767 C.3       3 UNK         0.0876 
     19 N          19.7830  -28.2461  -41.9391 N.am      3 UNK        -0.4424 
     20 C          20.9360  -28.1518  -42.6178 C.2       2 UNK         0.4918 
     21 O          22.0398  -28.0529  -42.0816 O.2       2 UNK        -0.4875 
     22 CA         20.8549  -28.0853  -44.1522 C.3       2 UNK         0.0481 
     23 CB         20.8946  -29.4969  -44.7508 C.3       2 UNK        -0.1831 
     24 N          19.6917  -27.3573  -44.6724 N.am      2 UNK        -0.4498 
     25 C          19.3396  -26.1059  -44.3436 C.2       1 UNK         0.5027 
     26 O          19.9339  -25.4449  -43.4881 O.2       1 UNK        -0.4969 
     27 C          20.1556  -26.8545  -39.8674 C.2       3 UNK         0.5005 
     28 O          20.6565  -26.8720  -38.7421 O.2       3 UNK        -0.5279 
     29 N          20.0284  -25.7371  -40.5990 N.am      4 UNK        -0.4463 
     30 CA         20.5454  -24.4321  -40.1784 C.3       4 UNK         0.0283 
     31 CB         19.7909  -23.3101  -40.9117 C.3       4 UNK        -0.1875 
     32 C          22.0598  -24.3123  -40.4165 C.2       4 UNK         0.4949 
     33 O          22.7262  -23.5812  -39.6839 O.2       4 UNK        -0.5039 
     34 N          22.5733  -25.0228  -41.4308 N.am      5 UNK        -0.4663 
     35 CA         23.9918  -25.0592  -41.7802 C.3       5 UNK         0.0242 
     36 CB         24.1590  -25.5165  -43.2397 C.3       5 UNK        -0.1982 
     37 C          24.8041  -25.9424  -40.8200 C.2       5 UNK         0.5017 
     38 O          25.7840  -25.4590  -40.2513 O.2       5 UNK        -0.5012 
     39 N          24.3955  -27.2108  -40.6633 N.am      6 UNK        -0.4439 
     40 CA         25.1140  -28.2153  -39.8634 C.3       6 UNK         0.0297 
     41 CB         26.4462  -28.5902  -40.5521 C.3       6 UNK        -0.2006 
     42 C          24.3197  -29.5017  -39.5688 C.2       6 UNK         0.4892 
     43 O          24.7524  -30.2650  -38.7050 O.2       6 UNK        -0.5089 
     44 N          23.2264  -29.7594  -40.3048 N.am      7 UNK        -0.4243 
     45 CA         22.4547  -31.0128  -40.3522 C.3       7 UNK         0.0196 
     46 CB         21.8329  -31.3588  -38.9821 C.3       7 UNK        -0.2007 
     47 C          23.2443  -32.1887  -40.9652 C.2       7 UNK         0.5020 
     48 O          22.8967  -33.3492  -40.7412 O.2       7 UNK        -0.5147 
     49 N          24.2799  -31.8781  -41.7577 N.am      8 UNK        -0.4734 
     50 CA         25.1550  -32.8318  -42.4433 C.3       8 UNK         0.0238 
     51 CB         26.5311  -32.1722  -42.6556 C.3       8 UNK        -0.1912 
     52 C          24.5223  -33.3279  -43.7577 C.2       8 UNK         0.5038 
     53 O          25.0949  -33.1389  -44.8326 O.2       8 UNK        -0.5046 
     54 N          23.3325  -33.9267  -43.6440 N.am      9 UNK        -0.4200 
     55 CA         22.5205  -34.4322  -44.7628 C.3       9 UNK         0.0839 
     56 C          23.0455  -35.7489  -45.4062 C.2       9 UNK         0.5513 
     57 N          24.0106  -36.4441  -44.8159 N.am      9 UNK        -0.7519 
     58 O          22.5682  -36.1444  -46.4666 O.2       9 UNK        -0.4960 
     59 C59        21.0299  -34.5694  -44.3590 C.3       10 UNK        -0.0876 
     60 S60        20.3210  -32.9955  -43.7659 S.3       10 UNK        -0.2414 
     61 C61        18.7241  -32.9744  -44.6426 C.3       10 UNK         0.0169 
     62 H62        18.7826  -21.3510  -43.6144 H         1 UNK         0.0903 
     63 H63        17.5059  -21.0631  -44.8001 H         1 UNK         0.0903 
     64 H64        17.1692  -22.0141  -43.3518 H         1 UNK         0.0903 
     65 H65        17.0861  -24.2046  -43.7684 H         1 UNK         0.3096 
     66 H66        18.4088  -25.3687  -46.1103 H         1 UNK         0.1121 
     67 H67        16.7798  -26.9640  -44.0820 H         1 UNK         0.0849 
     68 H68        15.9643  -25.9097  -45.2005 H         1 UNK         0.0849 
     69 H69        14.9184  -28.5108  -45.3824 H         1 UNK         0.0865 
     70 H70        15.4894  -29.5908  -46.6232 H         1 UNK         0.0865 
     71 H71        17.5134  -31.0681  -46.1948 H         1 UNK         0.1346 
     72 H72        17.9391  -32.3273  -42.1193 H         1 UNK         0.1412 
     73 H73        15.5431  -28.9009  -43.0598 H         1 UNK         0.1426 
     74 H74        15.7141  -29.5944  -40.7782 H         1 UNK         0.0716 
     75 H75        15.8472  -31.3274  -40.6357 H         1 UNK         0.0716 
     76 H76        18.0333  -28.0933  -38.9942 H         1 UNK         0.0695 
     77 H77        17.4809  -27.9746  -40.6412 H         1 UNK         0.0695 
     78 H78        20.3133  -28.9500  -40.0678 H         1 UNK         0.0983 
     79 H79        18.9259  -28.3526  -42.4611 H         1 UNK         0.3095 
     80 H80        21.7415  -27.5503  -44.4972 H         1 UNK         0.0454 
     81 H81        21.7612  -30.0543  -44.3917 H         1 UNK         0.0851 
     82 H82        20.0074  -30.0666  -44.4795 H         1 UNK         0.0851 
     83 H83        20.9563  -29.4695  -45.8386 H         1 UNK         0.0851 
     84 H84        19.1239  -27.8390  -45.3586 H         1 UNK         0.2976 
     85 H85        19.6748  -25.7957  -41.5487 H         1 UNK         0.3116 
     86 H86        20.3644  -24.3102  -39.1081 H         1 UNK         0.0646 
     87 H87        18.7141  -23.3890  -40.7626 H         1 UNK         0.0847 
     88 H88        20.0983  -22.3317  -40.5403 H         1 UNK         0.0847 
     89 H89        19.9844  -23.3208  -41.9844 H         1 UNK         0.0847 
     90 H90        21.9475  -25.5920  -41.9842 H         1 UNK         0.3040 
     91 H91        24.3872  -24.0432  -41.7062 H         1 UNK         0.1015 
     92 H92        23.7934  -26.5304  -43.4001 H         1 UNK         0.0786 
     93 H93        25.2099  -25.5020  -43.5317 H         1 UNK         0.0786 
     94 H94        23.6243  -24.8574  -43.9240 H         1 UNK         0.0786 
     95 H95        23.5531  -27.4995  -41.1523 H         1 UNK         0.3172 
     96 H96        25.3391  -27.7693  -38.8923 H         1 UNK         0.0595 
     97 H97        26.2840  -28.9577  -41.5658 H         1 UNK         0.0839 
     98 H98        26.9713  -29.3731  -40.0026 H         1 UNK         0.0839 
     99 H99        27.1270  -27.7415  -40.6106 H         1 UNK         0.0839 
    100 H100       22.9205  -29.0701  -40.9869 H         1 UNK         0.2998 
    101 H101       21.6300  -30.8291  -41.0427 H         1 UNK         0.0822 
    102 H102       21.0986  -32.1592  -39.0815 H         1 UNK         0.0787 
    103 H103       22.5843  -31.6983  -38.2689 H         1 UNK         0.0787 
    104 H104       21.3195  -30.5029  -38.5450 H         1 UNK         0.0787 
    105 H105       24.4691  -30.9006  -41.9215 H         1 UNK         0.3055 
    106 H106       25.3001  -33.7063  -41.8045 H         1 UNK         0.1106 
    107 H107       26.9760  -31.8692  -41.7075 H         1 UNK         0.0828 
    108 H108       27.2272  -32.8647  -43.1307 H         1 UNK         0.0828 
    109 H109       26.4641  -31.2890  -43.2922 H         1 UNK         0.0828 
    110 H110       22.9277  -34.0065  -42.7180 H         1 UNK         0.2931 
    111 H111       22.5689  -33.6814  -45.5543 H         1 UNK         0.0412 
    112 H112       24.3428  -37.2931  -45.2464 H         1 UNK         0.3472 
    113 H113       24.4082  -36.1301  -43.9453 H         1 UNK         0.3472 
    114 H114       20.4412  -34.9260  -45.2066 H         1 UNK         0.0970 
    115 H115       20.9128  -35.3178  -43.5730 H         1 UNK         0.0970 
    116 H116       18.9125  -32.9330  -45.7166 H         1 UNK         0.0612 
    117 H117       18.1942  -33.9081  -44.4493 H         1 UNK         0.0612 
@<TRIPOS>BOND
     1    1    2 1    
     2    1   62 1    
     3    1   63 1    
     4    1   64 1    
     5    2    3 2    
     6    2    4 am   BACKBONE|DICT|INTERRES
     7    4    5 1    
     8    4   65 1    
     9    5    6 1    
    10    5   25 1    
    11    5   66 1    
    12    6    7 1    
    13    6   67 1    
    14    6   68 1    
    15    7    8 1    
    16    8    9 1    
    17    8   69 1    
    18    8   70 1    
    19    9   10 ar   
    20    9   14 ar   
    21   10   11 ar   
    22   10   71 1    
    23   11   12 ar   
    24   11   61 1    
    25   12   13 ar   
    26   12   72 1    
    27   13   14 ar   
    28   13   15 1    
    29   14   73 1    
    30   15   16 1    
    31   15   74 1    
    32   15   75 1    
    33   16   17 1    
    34   17   18 1    
    35   17   76 1    
    36   17   77 1    
    37   18   19 1    
    38   18   27 1    
    39   18   78 1    
    40   19   20 am   BACKBONE|DICT|INTERRES
    41   19   79 1    
    42   20   21 2    
    43   20   22 1    
    44   22   23 1    
    45   22   24 1    
    46   22   80 1    
    47   23   81 1    
    48   23   82 1    
    49   23   83 1    
    50   24   25 am   BACKBONE|DICT|INTERRES
    51   24   84 1    
    52   25   26 2    
    53   27   28 2    
    54   27   29 am   BACKBONE|DICT|INTERRES
    55   29   30 1    
    56   29   85 1    
    57   30   31 1    
    58   30   32 1    
    59   30   86 1    
    60   31   87 1    
    61   31   88 1    
    62   31   89 1    
    63   32   33 2    
    64   32   34 am   BACKBONE|DICT|INTERRES
    65   34   35 1    
    66   34   90 1    
    67   35   36 1    
    68   35   37 1    
    69   35   91 1    
    70   36   92 1    
    71   36   93 1    
    72   36   94 1    
    73   37   38 2    
    74   37   39 am   BACKBONE|DICT|INTERRES
    75   39   40 1    
    76   39   95 1    
    77   40   41 1    
    78   40   42 1    
    79   40   96 1    
    80   41   97 1    
    81   41   98 1    
    82   41   99 1    
    83   42   43 2    
    84   42   44 am   BACKBONE|DICT|INTERRES
    85   44   45 1    
    86   44  100 1    
    87   45   46 1    
    88   45   47 1    
    89   45  101 1    
    90   46  102 1    
    91   46  103 1    
    92   46  104 1    
    93   47   48 2    
    94   47   49 am   BACKBONE|DICT|INTERRES
    95   49   50 1    
    96   49  105 1    
    97   50   51 1    
    98   50   52 1    
    99   50  106 1    
   100   51  107 1    
   101   51  108 1    
   102   51  109 1    
   103   52   53 2    
   104   52   54 am   BACKBONE|DICT|INTERRES
   105   54   55 1    
   106   54  110 1    
   107   55   56 1    
   108   55   59 1    
   109   55  111 1    
   110   56   57 am   BACKBONE|DICT|INTERRES
   111   56   58 2    
   112   57  112 1    
   113   57  113 1    
   114   59   60 1    
   115   59  114 1    
   116   59  115 1    
   117   60   61 1    
   118   61  116 1    
   119   61  117 1    
@<TRIPOS>SUBSTRUCTURE
     1 UNK         1 GROUP             0       ****    0 ROOT    
