@<TRIPOS>MOLECULE
3R8
117   119    1
SMALL
USER_CHARGES


@<TRIPOS>ATOM
      1 CA         15.9381  -22.4092  -44.0062 C.3       0 UNK        -0.2013 
      2 C          16.9173  -23.5694  -44.0955 C.2       0 UNK         0.4866 
      3 O          17.6283  -23.6984  -45.0931 O.2       0 UNK        -0.5176 
      4 N          16.9769  -24.4101  -43.0549 N.am      1 UNK        -0.4884 
      5 CA         17.8243  -25.6078  -42.9600 C.3       1 UNK         0.0853 
      6 C6         17.2454  -26.6378  -41.9553 C.3       10 UNK        -0.0849 
      7 S7         15.6304  -27.2824  -42.5111 S.3       10 UNK        -0.2776 
      8 C8         15.8413  -29.0883  -42.3140 C.3       10 UNK         0.0316 
      9 C9         16.9875  -29.7081  -43.1162 C.ar      10 UNK        -0.0863 
     10 C10        17.6450  -30.8278  -42.5983 C.ar      10 UNK        -0.1009 
     11 C11        18.6869  -31.4397  -43.3008 C.ar      10 UNK        -0.0712 
     12 C12        19.0760  -30.9160  -44.5373 C.ar      10 UNK        -0.0894 
     13 C13        18.4378  -29.7924  -45.0724 C.ar      10 UNK        -0.0745 
     14 C14        17.3778  -29.2102  -44.3654 C.ar      10 UNK        -0.0972 
     15 C15        18.8832  -29.2461  -46.4273 C.3       10 UNK         0.0209 
     16 S16        18.9541  -27.4226  -46.4715 S.3       10 UNK        -0.2568 
     17 C17        20.5451  -27.0971  -47.3163 C.3       10 UNK        -0.0983 
     18 CA         21.7106  -26.7271  -46.3572 C.3       3 UNK         0.0876 
     19 N          21.2814  -25.7313  -45.3775 N.am      3 UNK        -0.4424 
     20 C          22.0526  -25.0128  -44.5534 C.2       2 UNK         0.4918 
     21 O          23.2831  -25.0400  -44.5659 O.2       2 UNK        -0.4875 
     22 CA         21.3211  -24.0918  -43.5558 C.3       2 UNK         0.0481 
     23 CB         21.5111  -22.6176  -43.9465 C.3       2 UNK        -0.1831 
     24 N          19.8850  -24.3855  -43.4995 N.am      2 UNK        -0.4498 
     25 C          19.3016  -25.2559  -42.6666 C.2       1 UNK         0.5027 
     26 O          19.8835  -25.7724  -41.7139 O.2       1 UNK        -0.4969 
     27 C          22.3204  -27.9794  -45.6930 C.2       3 UNK         0.5005 
     28 O          22.0349  -28.2738  -44.5278 O.2       3 UNK        -0.5279 
     29 N          23.1339  -28.7090  -46.4724 N.am      4 UNK        -0.4463 
     30 CA         23.8441  -29.9367  -46.0996 C.3       4 UNK         0.0283 
     31 CB         22.8462  -31.1036  -45.9143 C.3       4 UNK        -0.1875 
     32 C          24.7719  -29.6967  -44.8932 C.2       4 UNK         0.4949 
     33 O          25.7073  -28.9037  -45.0053 O.2       4 UNK        -0.5039 
     34 N          24.4892  -30.3584  -43.7659 N.am      5 UNK        -0.4663 
     35 CA         25.2089  -30.2123  -42.4996 C.3       5 UNK         0.0242 
     36 CB         25.1303  -31.5512  -41.7526 C.3       5 UNK        -0.1982 
     37 C          24.6635  -29.0723  -41.6166 C.2       5 UNK         0.5017 
     38 O          25.1257  -28.9393  -40.4832 O.2       5 UNK        -0.5012 
     39 N          23.6898  -28.2983  -42.1234 N.am      6 UNK        -0.4439 
     40 CA         22.9194  -27.2621  -41.4308 C.3       6 UNK         0.0297 
     41 CB         23.8131  -26.1069  -40.9322 C.3       6 UNK        -0.2006 
     42 C          22.0448  -27.8848  -40.3317 C.2       6 UNK         0.4892 
     43 O          22.3130  -27.7087  -39.1417 O.2       6 UNK        -0.5089 
     44 N          21.0428  -28.6572  -40.7749 N.am      7 UNK        -0.4243 
     45 CA         20.0265  -29.3883  -40.0042 C.3       7 UNK         0.0196 
     46 CB         19.2310  -28.4538  -39.0717 C.3       7 UNK        -0.2007 
     47 C          20.5521  -30.6125  -39.2360 C.2       7 UNK         0.5020 
     48 O          19.8471  -31.6192  -39.1648 O.2       7 UNK        -0.5147 
     49 N          21.7745  -30.5394  -38.6964 N.am      8 UNK        -0.4734 
     50 CA         22.4566  -31.5983  -37.9423 C.3       8 UNK         0.0238 
     51 CB         23.5371  -30.9469  -37.0588 C.3       8 UNK        -0.1912 
     52 C          23.0271  -32.7125  -38.8472 C.2       8 UNK         0.5038 
     53 O          24.1908  -33.0915  -38.7000 O.2       8 UNK        -0.5046 
     54 N          22.2088  -33.1932  -39.7883 N.am      9 UNK        -0.4200 
     55 CA         22.5470  -34.2159  -40.7855 C.3       9 UNK         0.0839 
     56 C          22.7424  -35.6221  -40.1577 C.2       9 UNK         0.5513 
     57 N          23.6155  -36.4395  -40.7300 N.am      9 UNK        -0.7519 
     58 O          22.0812  -35.9934  -39.1898 O.2       9 UNK        -0.4960 
     59 C59        21.5050  -34.2603  -41.9337 C.3       10 UNK        -0.0876 
     60 S60        21.1558  -32.6224  -42.6743 S.3       10 UNK        -0.2414 
     61 C61        19.3361  -32.7019  -42.7445 C.3       10 UNK         0.0169 
     62 H62        15.2256  -22.4570  -44.8293 H         1 UNK         0.0903 
     63 H63        15.3776  -22.4191  -43.0716 H         1 UNK         0.0903 
     64 H64        16.4722  -21.4617  -44.0722 H         1 UNK         0.0903 
     65 H65        16.3790  -24.2453  -42.2572 H         1 UNK         0.3096 
     66 H66        17.8313  -26.0905  -43.9399 H         1 UNK         0.1121 
     67 H67        17.1305  -26.1940  -40.9649 H         1 UNK         0.0849 
     68 H68        17.9318  -27.4776  -41.8342 H         1 UNK         0.0849 
     69 H69        15.9748  -29.2957  -41.2509 H         1 UNK         0.0865 
     70 H70        14.9125  -29.5790  -42.6072 H         1 UNK         0.0865 
     71 H71        17.3344  -31.2353  -41.6454 H         1 UNK         0.1346 
     72 H72        19.8707  -31.3972  -45.0891 H         1 UNK         0.1412 
     73 H73        16.8597  -28.3619  -44.7895 H         1 UNK         0.1426 
     74 H74        18.1916  -29.5924  -47.1961 H         1 UNK         0.0716 
     75 H75        19.8620  -29.6532  -46.6848 H         1 UNK         0.0716 
     76 H76        20.3715  -26.2576  -47.9913 H         1 UNK         0.0695 
     77 H77        20.8052  -27.9327  -47.9688 H         1 UNK         0.0695 
     78 H78        22.5034  -26.2644  -46.9493 H         1 UNK         0.0983 
     79 H79        20.2813  -25.6634  -45.2673 H         1 UNK         0.3095 
     80 H80        21.7691  -24.2449  -42.5721 H         1 UNK         0.0454 
     81 H81        22.5693  -22.3544  -43.9761 H         1 UNK         0.0851 
     82 H82        21.0334  -21.9528  -43.2268 H         1 UNK         0.0851 
     83 H83        21.0934  -22.4026  -44.9309 H         1 UNK         0.0851 
     84 H84        19.2975  -23.9789  -44.2244 H         1 UNK         0.2976 
     85 H85        23.3299  -28.3700  -47.4045 H         1 UNK         0.3116 
     86 H86        24.4938  -30.1896  -46.9389 H         1 UNK         0.0646 
     87 H87        22.1484  -30.9217  -45.0974 H         1 UNK         0.0847 
     88 H88        22.2572  -31.2614  -46.8177 H         1 UNK         0.0847 
     89 H89        23.3653  -32.0403  -45.7066 H         1 UNK         0.0847 
     90 H90        23.6820  -30.9663  -43.7575 H         1 UNK         0.3040 
     91 H91        26.2596  -29.9921  -42.7014 H         1 UNK         0.1015 
     92 H92        25.7203  -31.5318  -40.8351 H         1 UNK         0.0786 
     93 H93        25.5026  -32.3761  -42.3602 H         1 UNK         0.0786 
     94 H94        24.1013  -31.7701  -41.4726 H         1 UNK         0.0786 
     95 H95        23.3588  -28.5031  -43.0629 H         1 UNK         0.3172 
     96 H96        22.2435  -26.8444  -42.1763 H         1 UNK         0.0595 
     97 H97        24.5097  -26.4256  -40.1567 H         1 UNK         0.0839 
     98 H98        23.2030  -25.3088  -40.5078 H         1 UNK         0.0839 
     99 H99        24.3909  -25.6748  -41.7492 H         1 UNK         0.0839 
    100 H100       20.9576  -28.7542  -41.7783 H         1 UNK         0.2998 
    101 H101       19.3304  -29.7693  -40.7498 H         1 UNK         0.0822 
    102 H102       18.3672  -28.9704  -38.6514 H         1 UNK         0.0787 
    103 H103       18.8613  -27.5780  -39.6032 H         1 UNK         0.0787 
    104 H104       19.8357  -28.1025  -38.2351 H         1 UNK         0.0787 
    105 H105       22.2681  -29.6572  -38.7976 H         1 UNK         0.3055 
    106 H106       21.7285  -32.0751  -37.2821 H         1 UNK         0.1106 
    107 H107       23.1078  -30.1978  -36.3931 H         1 UNK         0.0828 
    108 H108       24.0328  -31.6883  -36.4306 H         1 UNK         0.0828 
    109 H109       24.3058  -30.4595  -37.6606 H         1 UNK         0.0828 
    110 H110       21.2619  -32.8310  -39.8165 H         1 UNK         0.2931 
    111 H111       23.5031  -33.9296  -41.2246 H         1 UNK         0.0412 
    112 H112       24.1568  -36.1489  -41.5298 H         1 UNK         0.3472 
    113 H113       23.7458  -37.3635  -40.3475 H         1 UNK         0.3472 
    114 H114       21.8526  -34.9194  -42.7313 H         1 UNK         0.0970 
    115 H115       20.5740  -34.6996  -41.5701 H         1 UNK         0.0970 
    116 H116       19.0413  -33.5482  -43.3664 H         1 UNK         0.0612 
    117 H117       18.9623  -32.9069  -41.7398 H         1 UNK         0.0612 
@<TRIPOS>BOND
     1    1    2 1    
     2    1   62 1    
     3    1   63 1    
     4    1   64 1    
     5    2    3 2    
     6    2    4 am   BACKBONE|DICT|INTERRES
     7    4    5 1    
     8    4   65 1    
     9    5    6 1    
    10    5   25 1    
    11    5   66 1    
    12    6    7 1    
    13    6   67 1    
    14    6   68 1    
    15    7    8 1    
    16    8    9 1    
    17    8   69 1    
    18    8   70 1    
    19    9   10 ar   
    20    9   14 ar   
    21   10   11 ar   
    22   10   71 1    
    23   11   12 ar   
    24   11   61 1    
    25   12   13 ar   
    26   12   72 1    
    27   13   14 ar   
    28   13   15 1    
    29   14   73 1    
    30   15   16 1    
    31   15   74 1    
    32   15   75 1    
    33   16   17 1    
    34   17   18 1    
    35   17   76 1    
    36   17   77 1    
    37   18   19 1    
    38   18   27 1    
    39   18   78 1    
    40   19   20 am   BACKBONE|DICT|INTERRES
    41   19   79 1    
    42   20   21 2    
    43   20   22 1    
    44   22   23 1    
    45   22   24 1    
    46   22   80 1    
    47   23   81 1    
    48   23   82 1    
    49   23   83 1    
    50   24   25 am   BACKBONE|DICT|INTERRES
    51   24   84 1    
    52   25   26 2    
    53   27   28 2    
    54   27   29 am   BACKBONE|DICT|INTERRES
    55   29   30 1    
    56   29   85 1    
    57   30   31 1    
    58   30   32 1    
    59   30   86 1    
    60   31   87 1    
    61   31   88 1    
    62   31   89 1    
    63   32   33 2    
    64   32   34 am   BACKBONE|DICT|INTERRES
    65   34   35 1    
    66   34   90 1    
    67   35   36 1    
    68   35   37 1    
    69   35   91 1    
    70   36   92 1    
    71   36   93 1    
    72   36   94 1    
    73   37   38 2    
    74   37   39 am   BACKBONE|DICT|INTERRES
    75   39   40 1    
    76   39   95 1    
    77   40   41 1    
    78   40   42 1    
    79   40   96 1    
    80   41   97 1    
    81   41   98 1    
    82   41   99 1    
    83   42   43 2    
    84   42   44 am   BACKBONE|DICT|INTERRES
    85   44   45 1    
    86   44  100 1    
    87   45   46 1    
    88   45   47 1    
    89   45  101 1    
    90   46  102 1    
    91   46  103 1    
    92   46  104 1    
    93   47   48 2    
    94   47   49 am   BACKBONE|DICT|INTERRES
    95   49   50 1    
    96   49  105 1    
    97   50   51 1    
    98   50   52 1    
    99   50  106 1    
   100   51  107 1    
   101   51  108 1    
   102   51  109 1    
   103   52   53 2    
   104   52   54 am   BACKBONE|DICT|INTERRES
   105   54   55 1    
   106   54  110 1    
   107   55   56 1    
   108   55   59 1    
   109   55  111 1    
   110   56   57 am   BACKBONE|DICT|INTERRES
   111   56   58 2    
   112   57  112 1    
   113   57  113 1    
   114   59   60 1    
   115   59  114 1    
   116   59  115 1    
   117   60   61 1    
   118   61  116 1    
   119   61  117 1    
@<TRIPOS>SUBSTRUCTURE
     1 UNK         1 GROUP             0       ****    0 ROOT    
