@<TRIPOS>MOLECULE
3R8
117   119    1
SMALL
USER_CHARGES


@<TRIPOS>ATOM
      1 CA         14.0249  -23.4409  -44.2952 C.3       0 UNK        -0.2013 
      2 C          14.9062  -24.2838  -43.3847 C.2       0 UNK         0.4866 
      3 O          15.1802  -23.8722  -42.2571 O.2       0 UNK        -0.5176 
      4 N          15.3374  -25.4572  -43.8707 N.am      1 UNK        -0.4884 
      5 CA         16.2383  -26.4166  -43.2132 C.3       1 UNK         0.0853 
      6 C6         15.6951  -26.8976  -41.8337 C.3       10 UNK        -0.0849 
      7 S7         16.3982  -28.4400  -41.1431 S.3       10 UNK        -0.2776 
      8 C8         16.0401  -29.7064  -42.4051 C.3       10 UNK         0.0316 
      9 C9         17.2072  -29.8947  -43.3669 C.ar      10 UNK        -0.0863 
     10 C10        18.4322  -30.3805  -42.8966 C.ar      10 UNK        -0.1009 
     11 C11        19.5062  -30.5648  -43.7712 C.ar      10 UNK        -0.0712 
     12 C12        19.3511  -30.2641  -45.1257 C.ar      10 UNK        -0.0894 
     13 C13        18.1384  -29.7619  -45.6062 C.ar      10 UNK        -0.0745 
     14 C14        17.0648  -29.6001  -44.7265 C.ar      10 UNK        -0.0972 
     15 C15        17.9808  -29.3925  -47.0734 C.3       10 UNK         0.0209 
     16 S16        18.4821  -27.6675  -47.3863 S.3       10 UNK        -0.2568 
     17 C17        20.3024  -27.8140  -47.4142 C.3       10 UNK        -0.0983 
     18 CA         21.0322  -26.9622  -46.3422 C.3       3 UNK         0.0876 
     19 N          20.4555  -27.0977  -44.9957 N.am      3 UNK        -0.4424 
     20 C          20.7399  -26.2848  -43.9670 C.2       2 UNK         0.4918 
     21 O          21.4977  -25.3169  -44.0526 O.2       2 UNK        -0.4875 
     22 CA         20.0630  -26.6227  -42.6259 C.3       2 UNK         0.0481 
     23 CB         20.3929  -25.6105  -41.5084 C.3       2 UNK        -0.1831 
     24 N          18.6136  -26.8079  -42.7428 N.am      2 UNK        -0.4498 
     25 C          17.7073  -25.9256  -43.1891 C.2       1 UNK         0.5027 
     26 O          17.9982  -24.7985  -43.5987 O.2       1 UNK        -0.4969 
     27 C          22.5459  -27.2777  -46.3726 C.2       3 UNK         0.5005 
     28 O          23.2457  -26.7968  -47.2655 O.2       3 UNK        -0.5279 
     29 N          23.0146  -28.0800  -45.4073 N.am      4 UNK        -0.4463 
     30 CA         24.4144  -28.4252  -45.1793 C.3       4 UNK         0.0283 
     31 CB         24.5705  -29.9542  -45.2423 C.3       4 UNK        -0.1875 
     32 C          24.8313  -27.9066  -43.7981 C.2       4 UNK         0.4949 
     33 O          23.9869  -27.7902  -42.9055 O.2       4 UNK        -0.5039 
     34 N          26.1377  -27.6575  -43.6335 N.am      5 UNK        -0.4663 
     35 CA         26.7648  -27.0929  -42.4286 C.3       5 UNK         0.0242 
     36 CB         28.2555  -26.8449  -42.7124 C.3       5 UNK        -0.1982 
     37 C          26.5956  -27.9259  -41.1431 C.2       5 UNK         0.5017 
     38 O          26.7494  -27.3796  -40.0505 O.2       5 UNK        -0.5012 
     39 N          26.2598  -29.2154  -41.2893 N.am      6 UNK        -0.4439 
     40 CA         25.8894  -30.1219  -40.1990 C.3       6 UNK         0.0297 
     41 CB         25.8703  -31.5639  -40.7313 C.3       6 UNK        -0.2006 
     42 C          24.5448  -29.7741  -39.5264 C.2       6 UNK         0.4892 
     43 O          24.2873  -30.2785  -38.4326 O.2       6 UNK        -0.5089 
     44 N          23.7160  -28.9441  -40.1818 N.am      7 UNK        -0.4243 
     45 CA         22.4285  -28.3826  -39.7502 C.3       7 UNK         0.0196 
     46 CB         22.5811  -27.5122  -38.4883 C.3       7 UNK        -0.2007 
     47 C          21.2960  -29.4097  -39.5933 C.2       7 UNK         0.5020 
     48 O          20.2400  -29.2351  -40.1978 O.2       7 UNK        -0.5147 
     49 N          21.5308  -30.4607  -38.8024 N.am      8 UNK        -0.4734 
     50 CA         20.6247  -31.6002  -38.6460 C.3       8 UNK         0.0238 
     51 CB         20.8304  -32.2259  -37.2569 C.3       8 UNK        -0.1912 
     52 C          20.8337  -32.6520  -39.7478 C.2       8 UNK         0.5038 
     53 O          19.8613  -33.2910  -40.1491 O.2       8 UNK        -0.5046 
     54 N          22.0915  -32.7936  -40.1984 N.am      9 UNK        -0.4200 
     55 CA         22.5997  -33.7462  -41.2014 C.3       9 UNK         0.0839 
     56 C          22.1154  -35.2184  -41.0192 C.2       9 UNK         0.5513 
     57 N          21.8418  -35.9550  -42.0879 N.am      9 UNK        -0.7519 
     58 O          22.0572  -35.7230  -39.8997 O.2       9 UNK        -0.4960 
     59 C59        22.5864  -33.1792  -42.6535 C.3       10 UNK        -0.0876 
     60 S60        20.9364  -32.8884  -43.3764 S.3       10 UNK        -0.2414 
     61 C61        20.8382  -31.0793  -43.2555 C.3       10 UNK         0.0169 
     62 H62        14.4966  -22.4770  -44.4847 H         1 UNK         0.0903 
     63 H63        13.8459  -23.9248  -45.2552 H         1 UNK         0.0903 
     64 H64        13.0601  -23.2609  -43.8218 H         1 UNK         0.0903 
     65 H65        15.0865  -25.7006  -44.8194 H         1 UNK         0.3096 
     66 H66        16.2304  -27.2656  -43.8886 H         1 UNK         0.1121 
     67 H67        14.6166  -27.0492  -41.9020 H         1 UNK         0.0849 
     68 H68        15.8304  -26.1161  -41.0843 H         1 UNK         0.0849 
     69 H69        15.8503  -30.6552  -41.9009 H         1 UNK         0.0865 
     70 H70        15.1194  -29.4560  -42.9345 H         1 UNK         0.0865 
     71 H71        18.5514  -30.6141  -41.8466 H         1 UNK         0.1346 
     72 H72        20.1795  -30.4242  -45.8009 H         1 UNK         0.1412 
     73 H73        16.1191  -29.2366  -45.1053 H         1 UNK         0.1426 
     74 H74        16.9392  -29.5122  -47.3754 H         1 UNK         0.0716 
     75 H75        18.5553  -30.0717  -47.7053 H         1 UNK         0.0716 
     76 H76        20.6318  -27.5059  -48.4084 H         1 UNK         0.0695 
     77 H77        20.5849  -28.8636  -47.3355 H         1 UNK         0.0695 
     78 H78        20.9244  -25.9134  -46.6283 H         1 UNK         0.0983 
     79 H79        19.7818  -27.8403  -44.8678 H         1 UNK         0.3095 
     80 H80        20.4670  -27.5898  -42.3264 H         1 UNK         0.0454 
     81 H81        19.9726  -25.9271  -40.5538 H         1 UNK         0.0851 
     82 H82        20.0065  -24.6163  -41.7338 H         1 UNK         0.0851 
     83 H83        21.4706  -25.5142  -41.3715 H         1 UNK         0.0851 
     84 H84        18.2666  -27.7029  -42.4166 H         1 UNK         0.2976 
     85 H85        22.3827  -28.3394  -44.6636 H         1 UNK         0.3116 
     86 H86        25.0538  -27.9670  -45.9368 H         1 UNK         0.0646 
     87 H87        24.0017  -30.4555  -44.4588 H         1 UNK         0.0847 
     88 H88        25.6144  -30.2476  -45.1251 H         1 UNK         0.0847 
     89 H89        24.2328  -30.3463  -46.2019 H         1 UNK         0.0847 
     90 H90        26.7537  -27.8099  -44.4201 H         1 UNK         0.3040 
     91 H91        26.2880  -26.1287  -42.2382 H         1 UNK         0.1015 
     92 H92        28.7824  -27.7721  -42.9413 H         1 UNK         0.0786 
     93 H93        28.7493  -26.3945  -41.8498 H         1 UNK         0.0786 
     94 H94        28.3931  -26.1626  -43.5516 H         1 UNK         0.0786 
     95 H95        26.1772  -29.5710  -42.2302 H         1 UNK         0.3172 
     96 H96        26.6600  -30.0541  -39.4283 H         1 UNK         0.0595 
     97 H97        25.1515  -31.6863  -41.5406 H         1 UNK         0.0839 
     98 H98        25.6038  -32.2703  -39.9437 H         1 UNK         0.0839 
     99 H99        26.8501  -31.8597  -41.1067 H         1 UNK         0.0839 
    100 H100       24.0120  -28.6223  -41.0993 H         1 UNK         0.2998 
    101 H101       22.1313  -27.7197  -40.5622 H         1 UNK         0.0822 
    102 H102       23.3186  -26.7241  -38.6403 H         1 UNK         0.0787 
    103 H103       21.6369  -27.0286  -38.2342 H         1 UNK         0.0787 
    104 H104       22.8898  -28.0963  -37.6209 H         1 UNK         0.0787 
    105 H105       22.4484  -30.5143  -38.3647 H         1 UNK         0.3055 
    106 H106       19.5916  -31.2505  -38.7136 H         1 UNK         0.1106 
    107 H107       20.1599  -33.0736  -37.1086 H         1 UNK         0.0828 
    108 H108       21.8501  -32.5889  -37.1218 H         1 UNK         0.0828 
    109 H109       20.6226  -31.5068  -36.4645 H         1 UNK         0.0828 
    110 H110       22.7956  -32.2238  -39.7557 H         1 UNK         0.2931 
    111 H111       23.6576  -33.8221  -40.9476 H         1 UNK         0.0412 
    112 H112       21.8595  -35.5484  -43.0102 H         1 UNK         0.3472 
    113 H113       21.5553  -36.9137  -41.9652 H         1 UNK         0.3472 
    114 H114       23.1458  -32.2441  -42.6772 H         1 UNK         0.0970 
    115 H115       23.1369  -33.8437  -43.3213 H         1 UNK         0.0970 
    116 H116       21.6543  -30.6309  -43.8229 H         1 UNK         0.0612 
    117 H117       20.9822  -30.7807  -42.2183 H         1 UNK         0.0612 
@<TRIPOS>BOND
     1    1    2 1    
     2    1   62 1    
     3    1   63 1    
     4    1   64 1    
     5    2    3 2    
     6    2    4 am   BACKBONE|DICT|INTERRES
     7    4    5 1    
     8    4   65 1    
     9    5    6 1    
    10    5   25 1    
    11    5   66 1    
    12    6    7 1    
    13    6   67 1    
    14    6   68 1    
    15    7    8 1    
    16    8    9 1    
    17    8   69 1    
    18    8   70 1    
    19    9   10 ar   
    20    9   14 ar   
    21   10   11 ar   
    22   10   71 1    
    23   11   12 ar   
    24   11   61 1    
    25   12   13 ar   
    26   12   72 1    
    27   13   14 ar   
    28   13   15 1    
    29   14   73 1    
    30   15   16 1    
    31   15   74 1    
    32   15   75 1    
    33   16   17 1    
    34   17   18 1    
    35   17   76 1    
    36   17   77 1    
    37   18   19 1    
    38   18   27 1    
    39   18   78 1    
    40   19   20 am   BACKBONE|DICT|INTERRES
    41   19   79 1    
    42   20   21 2    
    43   20   22 1    
    44   22   23 1    
    45   22   24 1    
    46   22   80 1    
    47   23   81 1    
    48   23   82 1    
    49   23   83 1    
    50   24   25 am   BACKBONE|DICT|INTERRES
    51   24   84 1    
    52   25   26 2    
    53   27   28 2    
    54   27   29 am   BACKBONE|DICT|INTERRES
    55   29   30 1    
    56   29   85 1    
    57   30   31 1    
    58   30   32 1    
    59   30   86 1    
    60   31   87 1    
    61   31   88 1    
    62   31   89 1    
    63   32   33 2    
    64   32   34 am   BACKBONE|DICT|INTERRES
    65   34   35 1    
    66   34   90 1    
    67   35   36 1    
    68   35   37 1    
    69   35   91 1    
    70   36   92 1    
    71   36   93 1    
    72   36   94 1    
    73   37   38 2    
    74   37   39 am   BACKBONE|DICT|INTERRES
    75   39   40 1    
    76   39   95 1    
    77   40   41 1    
    78   40   42 1    
    79   40   96 1    
    80   41   97 1    
    81   41   98 1    
    82   41   99 1    
    83   42   43 2    
    84   42   44 am   BACKBONE|DICT|INTERRES
    85   44   45 1    
    86   44  100 1    
    87   45   46 1    
    88   45   47 1    
    89   45  101 1    
    90   46  102 1    
    91   46  103 1    
    92   46  104 1    
    93   47   48 2    
    94   47   49 am   BACKBONE|DICT|INTERRES
    95   49   50 1    
    96   49  105 1    
    97   50   51 1    
    98   50   52 1    
    99   50  106 1    
   100   51  107 1    
   101   51  108 1    
   102   51  109 1    
   103   52   53 2    
   104   52   54 am   BACKBONE|DICT|INTERRES
   105   54   55 1    
   106   54  110 1    
   107   55   56 1    
   108   55   59 1    
   109   55  111 1    
   110   56   57 am   BACKBONE|DICT|INTERRES
   111   56   58 2    
   112   57  112 1    
   113   57  113 1    
   114   59   60 1    
   115   59  114 1    
   116   59  115 1    
   117   60   61 1    
   118   61  116 1    
   119   61  117 1    
@<TRIPOS>SUBSTRUCTURE
     1 UNK         1 GROUP             0       ****    0 ROOT    
