@<TRIPOS>MOLECULE
3R8
117   119    1
SMALL
USER_CHARGES


@<TRIPOS>ATOM
      1 CA         17.1447  -24.7819  -47.8766 C.3       0 UNK        -0.2013 
      2 C          18.1983  -25.2448  -46.8825 C.2       0 UNK         0.4866 
      3 O          17.8976  -26.0665  -46.0197 O.2       0 UNK        -0.5176 
      4 N          19.4176  -24.6973  -46.9804 N.am      1 UNK        -0.4884 
      5 CA         20.6506  -25.0058  -46.2298 C.3       1 UNK         0.0853 
      6 C6         21.2860  -26.3746  -46.6348 C.3       10 UNK        -0.0849 
      7 S7         20.8402  -27.8328  -45.6255 S.3       10 UNK        -0.2776 
      8 C8         19.7926  -28.8062  -46.7523 C.3       10 UNK         0.0316 
      9 C9         19.0316  -29.8578  -45.9603 C.ar      10 UNK        -0.0863 
     10 C10        19.4957  -31.1744  -45.8776 C.ar      10 UNK        -0.1009 
     11 C11        18.8359  -32.1072  -45.0699 C.ar      10 UNK        -0.0712 
     12 C12        17.7165  -31.7106  -44.3319 C.ar      10 UNK        -0.0894 
     13 C13        17.2512  -30.3950  -44.3983 C.ar      10 UNK        -0.0745 
     14 C14        17.8865  -29.4879  -45.2511 C.ar      10 UNK        -0.0972 
     15 C15        16.0880  -29.9499  -43.5202 C.3       10 UNK         0.0209 
     16 S16        16.4428  -28.4150  -42.5947 S.3       10 UNK        -0.2568 
     17 C17        17.8990  -28.8619  -41.5802 C.3       10 UNK        -0.0983 
     18 CA         19.2597  -28.4569  -42.2280 C.3       3 UNK         0.0876 
     19 N          19.2857  -27.0622  -42.6800 N.am      3 UNK        -0.4424 
     20 C          19.3641  -25.9530  -41.9314 C.2       2 UNK         0.4918 
     21 O          19.5696  -25.9541  -40.7159 O.2       2 UNK        -0.4875 
     22 CA         19.1088  -24.6207  -42.6680 C.3       2 UNK         0.0481 
     23 CB         19.7510  -23.3943  -41.9853 C.3       2 UNK        -0.1831 
     24 N          19.4115  -24.6876  -44.1037 N.am      2 UNK        -0.4498 
     25 C          20.6107  -24.7527  -44.6986 C.2       1 UNK         0.5027 
     26 O          21.6737  -24.6128  -44.0960 O.2       1 UNK        -0.4969 
     27 C          20.4965  -28.7983  -41.3731 C.2       3 UNK         0.5005 
     28 O          21.6121  -28.8088  -41.9010 O.2       3 UNK        -0.5279 
     29 N          20.2916  -29.0421  -40.0704 N.am      4 UNK        -0.4463 
     30 CA         21.3120  -29.3878  -39.0767 C.3       4 UNK         0.0283 
     31 CB         20.6437  -29.5461  -37.7018 C.3       4 UNK        -0.1875 
     32 C          22.4829  -28.3943  -38.9736 C.2       4 UNK         0.4949 
     33 O          23.5756  -28.8001  -38.5801 O.2       4 UNK        -0.5039 
     34 N          22.2468  -27.1266  -39.3370 N.am      5 UNK        -0.4663 
     35 CA         23.2510  -26.0629  -39.3279 C.3       5 UNK         0.0242 
     36 CB         22.5366  -24.7059  -39.4164 C.3       5 UNK        -0.1982 
     37 C          24.3130  -26.1823  -40.4378 C.2       5 UNK         0.5017 
     38 O          25.3580  -25.5425  -40.3086 O.2       5 UNK        -0.5012 
     39 N          24.0443  -26.9613  -41.4974 N.am      6 UNK        -0.4439 
     40 CA         24.9440  -27.1127  -42.6459 C.3       6 UNK         0.0297 
     41 CB         24.4153  -26.2981  -43.8368 C.3       6 UNK        -0.2006 
     42 C          25.1429  -28.5782  -43.0439 C.2       6 UNK         0.4892 
     43 O          26.2871  -29.0134  -43.1784 O.2       6 UNK        -0.5089 
     44 N          24.0403  -29.3092  -43.2465 N.am      7 UNK        -0.4243 
     45 CA         24.0502  -30.6902  -43.7326 C.3       7 UNK         0.0196 
     46 CB         22.7709  -30.9294  -44.5488 C.3       7 UNK        -0.2007 
     47 C          24.1789  -31.7273  -42.6050 C.2       7 UNK         0.5020 
     48 O          24.4436  -32.8927  -42.8986 O.2       7 UNK        -0.5147 
     49 N          23.9726  -31.2986  -41.3491 N.am      8 UNK        -0.4734 
     50 CA         23.9768  -32.1039  -40.1156 C.3       8 UNK         0.0238 
     51 CB         25.3539  -32.7607  -39.8790 C.3       8 UNK        -0.1912 
     52 C          22.8156  -33.1186  -40.0264 C.2       8 UNK         0.5038 
     53 O          22.8710  -34.0318  -39.2012 O.2       8 UNK        -0.5046 
     54 N          21.7871  -32.9373  -40.8642 N.am      9 UNK        -0.4200 
     55 CA         20.5690  -33.7539  -40.9244 C.3       9 UNK         0.0839 
     56 C          19.7031  -33.6018  -39.6470 C.2       9 UNK         0.5513 
     57 N          19.2113  -34.7002  -39.0914 N.am      9 UNK        -0.7519 
     58 O          19.4348  -32.4937  -39.1906 O.2       9 UNK        -0.4960 
     59 C59        19.7338  -33.4144  -42.1839 C.3       10 UNK        -0.0876 
     60 S60        20.6464  -33.7332  -43.7309 S.3       10 UNK        -0.2414 
     61 C61        19.3372  -33.5415  -44.9804 C.3       10 UNK         0.0169 
     62 H62        16.7720  -25.6320  -48.4474 H         1 UNK         0.0903 
     63 H63        16.3043  -24.3314  -47.3493 H         1 UNK         0.0903 
     64 H64        17.5382  -24.0479  -48.5794 H         1 UNK         0.0903 
     65 H65        19.5476  -23.9880  -47.6895 H         1 UNK         0.3096 
     66 H66        21.3457  -24.2445  -46.5894 H         1 UNK         0.1121 
     67 H67        22.3712  -26.2847  -46.5622 H         1 UNK         0.0849 
     68 H68        21.0942  -26.5867  -47.6877 H         1 UNK         0.0849 
     69 H69        19.0890  -28.1533  -47.2699 H         1 UNK         0.0865 
     70 H70        20.4133  -29.2700  -47.5203 H         1 UNK         0.0865 
     71 H71        20.3830  -31.4687  -46.4213 H         1 UNK         0.1346 
     72 H72        17.2205  -32.4243  -43.6884 H         1 UNK         0.1412 
     73 H73        17.5329  -28.4677  -45.3026 H         1 UNK         0.1426 
     74 H74        15.8149  -30.7306  -42.8087 H         1 UNK         0.0716 
     75 H75        15.2142  -29.7859  -44.1519 H         1 UNK         0.0716 
     76 H76        17.7660  -28.3610  -40.6199 H         1 UNK         0.0695 
     77 H77        17.8734  -29.9347  -41.3785 H         1 UNK         0.0695 
     78 H78        19.3899  -29.0599  -43.1244 H         1 UNK         0.0983 
     79 H79        19.1671  -26.9417  -43.6768 H         1 UNK         0.3095 
     80 H80        18.0290  -24.4758  -42.6143 H         1 UNK         0.0454 
     81 H81        19.4685  -22.4706  -42.4897 H         1 UNK         0.0851 
     82 H82        19.4244  -23.3070  -40.9484 H         1 UNK         0.0851 
     83 H83        20.8383  -23.4482  -41.9767 H         1 UNK         0.0851 
     84 H84        18.6204  -24.8973  -44.7068 H         1 UNK         0.2976 
     85 H85        19.3447  -28.9826  -39.7254 H         1 UNK         0.3116 
     86 H86        21.7203  -30.3541  -39.3690 H         1 UNK         0.0646 
     87 H87        20.1966  -28.6116  -37.3605 H         1 UNK         0.0847 
     88 H88        21.3699  -29.8540  -36.9480 H         1 UNK         0.0847 
     89 H89        19.8618  -30.3048  -37.7200 H         1 UNK         0.0847 
     90 H90        21.3209  -26.8789  -39.6684 H         1 UNK         0.3040 
     91 H91        23.7801  -26.1066  -38.3731 H         1 UNK         0.1015 
     92 H92        21.8169  -24.5787  -38.6075 H         1 UNK         0.0786 
     93 H93        22.0034  -24.6023  -40.3604 H         1 UNK         0.0786 
     94 H94        23.2482  -23.8817  -39.3510 H         1 UNK         0.0786 
     95 H95        23.1679  -27.4728  -41.5188 H         1 UNK         0.3172 
     96 H96        25.9356  -26.7272  -42.3997 H         1 UNK         0.0595 
     97 H97        24.3496  -25.2377  -43.5928 H         1 UNK         0.0839 
     98 H98        23.4235  -26.6319  -44.1434 H         1 UNK         0.0839 
     99 H99        25.0733  -26.3924  -44.7016 H         1 UNK         0.0839 
    100 H100       23.1243  -28.9116  -43.0546 H         1 UNK         0.2998 
    101 H101       24.9030  -30.8316  -44.4002 H         1 UNK         0.0822 
    102 H102       21.8721  -30.7964  -43.9449 H         1 UNK         0.0787 
    103 H103       22.7084  -30.2449  -45.3945 H         1 UNK         0.0787 
    104 H104       22.7489  -31.9414  -44.9544 H         1 UNK         0.0787 
    105 H105       23.7554  -30.3180  -41.2327 H         1 UNK         0.3055 
    106 H106       23.8200  -31.4042  -39.2944 H         1 UNK         0.1106 
    107 H107       26.1595  -32.0297  -39.9478 H         1 UNK         0.0828 
    108 H108       25.4084  -33.2064  -38.8850 H         1 UNK         0.0828 
    109 H109       25.5569  -33.5546  -40.5980 H         1 UNK         0.0828 
    110 H110       21.8368  -32.1700  -41.5160 H         1 UNK         0.2931 
    111 H111       20.8855  -34.7964  -41.0014 H         1 UNK         0.0412 
    112 H112       18.6314  -34.6161  -38.2709 H         1 UNK         0.3472 
    113 H113       19.4204  -35.6130  -39.4657 H         1 UNK         0.3472 
    114 H114       19.4273  -32.3668  -42.1641 H         1 UNK         0.0970 
    115 H115       18.8169  -34.0069  -42.2025 H         1 UNK         0.0970 
    116 H116       18.5151  -34.2221  -44.7534 H         1 UNK         0.0612 
    117 H117       19.7306  -33.8526  -45.9492 H         1 UNK         0.0612 
@<TRIPOS>BOND
     1    1    2 1    
     2    1   62 1    
     3    1   63 1    
     4    1   64 1    
     5    2    3 2    
     6    2    4 am   BACKBONE|DICT|INTERRES
     7    4    5 1    
     8    4   65 1    
     9    5    6 1    
    10    5   25 1    
    11    5   66 1    
    12    6    7 1    
    13    6   67 1    
    14    6   68 1    
    15    7    8 1    
    16    8    9 1    
    17    8   69 1    
    18    8   70 1    
    19    9   10 ar   
    20    9   14 ar   
    21   10   11 ar   
    22   10   71 1    
    23   11   12 ar   
    24   11   61 1    
    25   12   13 ar   
    26   12   72 1    
    27   13   14 ar   
    28   13   15 1    
    29   14   73 1    
    30   15   16 1    
    31   15   74 1    
    32   15   75 1    
    33   16   17 1    
    34   17   18 1    
    35   17   76 1    
    36   17   77 1    
    37   18   19 1    
    38   18   27 1    
    39   18   78 1    
    40   19   20 am   BACKBONE|DICT|INTERRES
    41   19   79 1    
    42   20   21 2    
    43   20   22 1    
    44   22   23 1    
    45   22   24 1    
    46   22   80 1    
    47   23   81 1    
    48   23   82 1    
    49   23   83 1    
    50   24   25 am   BACKBONE|DICT|INTERRES
    51   24   84 1    
    52   25   26 2    
    53   27   28 2    
    54   27   29 am   BACKBONE|DICT|INTERRES
    55   29   30 1    
    56   29   85 1    
    57   30   31 1    
    58   30   32 1    
    59   30   86 1    
    60   31   87 1    
    61   31   88 1    
    62   31   89 1    
    63   32   33 2    
    64   32   34 am   BACKBONE|DICT|INTERRES
    65   34   35 1    
    66   34   90 1    
    67   35   36 1    
    68   35   37 1    
    69   35   91 1    
    70   36   92 1    
    71   36   93 1    
    72   36   94 1    
    73   37   38 2    
    74   37   39 am   BACKBONE|DICT|INTERRES
    75   39   40 1    
    76   39   95 1    
    77   40   41 1    
    78   40   42 1    
    79   40   96 1    
    80   41   97 1    
    81   41   98 1    
    82   41   99 1    
    83   42   43 2    
    84   42   44 am   BACKBONE|DICT|INTERRES
    85   44   45 1    
    86   44  100 1    
    87   45   46 1    
    88   45   47 1    
    89   45  101 1    
    90   46  102 1    
    91   46  103 1    
    92   46  104 1    
    93   47   48 2    
    94   47   49 am   BACKBONE|DICT|INTERRES
    95   49   50 1    
    96   49  105 1    
    97   50   51 1    
    98   50   52 1    
    99   50  106 1    
   100   51  107 1    
   101   51  108 1    
   102   51  109 1    
   103   52   53 2    
   104   52   54 am   BACKBONE|DICT|INTERRES
   105   54   55 1    
   106   54  110 1    
   107   55   56 1    
   108   55   59 1    
   109   55  111 1    
   110   56   57 am   BACKBONE|DICT|INTERRES
   111   56   58 2    
   112   57  112 1    
   113   57  113 1    
   114   59   60 1    
   115   59  114 1    
   116   59  115 1    
   117   60   61 1    
   118   61  116 1    
   119   61  117 1    
@<TRIPOS>SUBSTRUCTURE
     1 UNK         1 GROUP             0       ****    0 ROOT    
