@<TRIPOS>MOLECULE
3R8
117   119    1
SMALL
USER_CHARGES


@<TRIPOS>ATOM
      1 CA         21.4659  -28.5068  -50.2145 C.3       0 UNK        -0.2013 
      2 C          21.3698  -27.9529  -48.8009 C.2       0 UNK         0.4866 
      3 O          22.3504  -27.4147  -48.2884 O.2       0 UNK        -0.5176 
      4 N          20.1990  -28.0906  -48.1675 N.am      1 UNK        -0.4884 
      5 CA         19.9013  -27.6010  -46.8160 C.3       1 UNK         0.0853 
      6 C6         18.5879  -28.2132  -46.2705 C.3       10 UNK        -0.0849 
      7 S7         18.6392  -30.0364  -46.2548 S.3       10 UNK        -0.2776 
      8 C8         17.0350  -30.4281  -45.4937 C.3       10 UNK         0.0316 
      9 C9         17.0137  -30.0786  -44.0137 C.ar      10 UNK        -0.0863 
     10 C10        17.7737  -30.8267  -43.1113 C.ar      10 UNK        -0.1009 
     11 C11        17.7546  -30.5261  -41.7476 C.ar      10 UNK        -0.0712 
     12 C12        16.9516  -29.4818  -41.2835 C.ar      10 UNK        -0.0894 
     13 C13        16.1999  -28.7125  -42.1795 C.ar      10 UNK        -0.0745 
     14 C14        16.2341  -29.0174  -43.5439 C.ar      10 UNK        -0.0972 
     15 C15        15.3383  -27.5612  -41.6775 C.3       10 UNK         0.0209 
     16 S16        16.2684  -26.3903  -40.6374 S.3       10 UNK        -0.2568 
     17 C17        17.4449  -25.6455  -41.8227 C.3       10 UNK        -0.0983 
     18 CA         18.8607  -26.2925  -41.8642 C.3       3 UNK         0.0876 
     19 N          19.5741  -25.8192  -43.0538 N.am      3 UNK        -0.4424 
     20 C          20.5500  -26.4742  -43.6903 C.2       2 UNK         0.4918 
     21 O          20.8463  -27.6497  -43.4856 O.2       2 UNK        -0.4875 
     22 CA         21.2969  -25.6523  -44.7544 C.3       2 UNK         0.0481 
     23 CB         22.6574  -26.2427  -45.1831 C.3       2 UNK        -0.1831 
     24 N          20.4531  -25.3016  -45.9041 N.am      2 UNK        -0.4498 
     25 C          19.8195  -26.0555  -46.8190 C.2       1 UNK         0.5027 
     26 O          19.1325  -25.5209  -47.6910 O.2       1 UNK        -0.4969 
     27 C          19.7085  -26.0151  -40.5923 C.2       3 UNK         0.5005 
     28 O          20.8306  -25.5102  -40.6888 O.2       3 UNK        -0.5279 
     29 N          19.1420  -26.3256  -39.4179 N.am      4 UNK        -0.4463 
     30 CA         19.6611  -26.0596  -38.0702 C.3       4 UNK         0.0283 
     31 CB         19.7720  -24.5411  -37.8107 C.3       4 UNK        -0.1875 
     32 C          20.9588  -26.8248  -37.7510 C.2       4 UNK         0.4949 
     33 O          21.9230  -26.2321  -37.2639 O.2       4 UNK        -0.5039 
     34 N          20.9355  -28.1411  -38.0095 N.am      5 UNK        -0.4663 
     35 CA         21.9883  -29.1209  -37.7001 C.3       5 UNK         0.0242 
     36 CB         22.1589  -29.2783  -36.1731 C.3       5 UNK        -0.1982 
     37 C          23.3213  -28.8574  -38.4297 C.2       5 UNK         0.5017 
     38 O          24.3919  -29.1045  -37.8701 O.2       5 UNK        -0.5012 
     39 N          23.2286  -28.3745  -39.6749 N.am      6 UNK        -0.4439 
     40 CA         24.3515  -28.2209  -40.6014 C.3       6 UNK         0.0297 
     41 CB         23.9340  -27.2433  -41.7111 C.3       6 UNK        -0.2006 
     42 C          24.7781  -29.5772  -41.1955 C.2       6 UNK         0.4892 
     43 O          24.1333  -30.5963  -40.9422 O.2       6 UNK        -0.5089 
     44 N          25.8383  -29.5655  -42.0166 N.am      7 UNK        -0.4243 
     45 CA         26.3991  -30.7460  -42.6916 C.3       7 UNK         0.0196 
     46 CB         27.6177  -30.3222  -43.5269 C.3       7 UNK        -0.2007 
     47 C          25.3966  -31.5280  -43.5641 C.2       7 UNK         0.5020 
     48 O          25.5249  -32.7466  -43.6856 O.2       7 UNK        -0.5147 
     49 N          24.3929  -30.8302  -44.1154 N.am      8 UNK        -0.4734 
     50 CA         23.2771  -31.4162  -44.8662 C.3       8 UNK         0.0238 
     51 CB         22.4710  -30.2919  -45.5346 C.3       8 UNK        -0.1912 
     52 C          22.3500  -32.3094  -44.0171 C.2       8 UNK         0.5038 
     53 O          21.6684  -33.1633  -44.5859 O.2       8 UNK        -0.5046 
     54 N          22.3490  -32.1195  -42.6900 N.am      9 UNK        -0.4200 
     55 CA         21.6271  -32.9614  -41.7242 C.3       9 UNK         0.0839 
     56 C          22.3554  -34.2966  -41.3913 C.2       9 UNK         0.5513 
     57 N          23.5728  -34.5392  -41.8662 N.am      9 UNK        -0.7519 
     58 O          21.7967  -35.1386  -40.6930 O.2       9 UNK        -0.4960 
     59 C59        21.2584  -32.1866  -40.4285 C.3       10 UNK        -0.0876 
     60 S60        20.3107  -30.6626  -40.7592 S.3       10 UNK        -0.2414 
     61 C61        18.6176  -31.3245  -40.7877 C.3       10 UNK         0.0169 
     62 H62        20.5324  -28.9675  -50.5371 H         1 UNK         0.0903 
     63 H63        21.7097  -27.7079  -50.9142 H         1 UNK         0.0903 
     64 H64        22.2519  -29.2596  -50.2691 H         1 UNK         0.0903 
     65 H65        19.4274  -28.5384  -48.6409 H         1 UNK         0.3096 
     66 H66        20.7073  -27.9374  -46.1718 H         1 UNK         0.1121 
     67 H67        17.7307  -27.8941  -46.8670 H         1 UNK         0.0849 
     68 H68        18.4028  -27.8669  -45.2521 H         1 UNK         0.0849 
     69 H69        16.2387  -29.9126  -46.0329 H         1 UNK         0.0865 
     70 H70        16.8406  -31.4951  -45.6108 H         1 UNK         0.0865 
     71 H71        18.3957  -31.6341  -43.4744 H         1 UNK         0.1346 
     72 H72        16.9282  -29.2531  -40.2270 H         1 UNK         0.1412 
     73 H73        15.6494  -28.4322  -44.2407 H         1 UNK         0.1426 
     74 H74        14.5150  -27.9720  -41.0917 H         1 UNK         0.0716 
     75 H75        14.8842  -27.0164  -42.5067 H         1 UNK         0.0716 
     76 H76        17.5224  -24.5803  -41.5965 H         1 UNK         0.0695 
     77 H77        16.9885  -25.6998  -42.8128 H         1 UNK         0.0695 
     78 H78        18.7501  -27.3757  -41.9467 H         1 UNK         0.0983 
     79 H79        19.4249  -24.8494  -43.2899 H         1 UNK         0.3095 
     80 H80        21.5282  -24.6965  -44.2809 H         1 UNK         0.0454 
     81 H81        22.6100  -27.2829  -45.4945 H         1 UNK         0.0851 
     82 H82        23.3643  -26.1996  -44.3555 H         1 UNK         0.0851 
     83 H83        23.0959  -25.6734  -46.0026 H         1 UNK         0.0851 
     84 H84        20.3166  -24.3056  -46.0044 H         1 UNK         0.2976 
     85 H85        18.2017  -26.7018  -39.4549 H         1 UNK         0.3116 
     86 H86        18.9106  -26.4461  -37.3789 H         1 UNK         0.0646 
     87 H87        20.5393  -24.0769  -38.4311 H         1 UNK         0.0847 
     88 H88        20.0338  -24.3415  -36.7709 H         1 UNK         0.0847 
     89 H89        18.8279  -24.0340  -38.0088 H         1 UNK         0.0847 
     90 H90        20.1017  -28.5192  -38.4384 H         1 UNK         0.3040 
     91 H91        21.6329  -30.0792  -38.0809 H         1 UNK         0.1015 
     92 H92        22.5757  -28.3800  -35.7167 H         1 UNK         0.0786 
     93 H93        22.8320  -30.1036  -35.9374 H         1 UNK         0.0786 
     94 H94        21.2069  -29.4917  -35.6870 H         1 UNK         0.0786 
     95 H95        22.3054  -28.2221  -40.0544 H         1 UNK         0.3172 
     96 H96        25.2004  -27.7990  -40.0596 H         1 UNK         0.0595 
     97 H97        24.7767  -26.9807  -42.3511 H         1 UNK         0.0839 
     98 H98        23.5439  -26.3123  -41.2983 H         1 UNK         0.0839 
     99 H99        23.1616  -27.6757  -42.3460 H         1 UNK         0.0839 
    100 H100       26.3142  -28.6893  -42.1775 H         1 UNK         0.2998 
    101 H101       26.7410  -31.4292  -41.9112 H         1 UNK         0.0822 
    102 H102       28.0707  -31.1829  -44.0213 H         1 UNK         0.0787 
    103 H103       27.3455  -29.6065  -44.3038 H         1 UNK         0.0787 
    104 H104       28.3885  -29.8674  -42.9043 H         1 UNK         0.0787 
    105 H105       24.3624  -29.8342  -43.9554 H         1 UNK         0.3055 
    106 H106       23.6998  -32.0481  -45.6506 H         1 UNK         0.1106 
    107 H107       21.6706  -30.7010  -46.1525 H         1 UNK         0.0828 
    108 H108       22.0055  -29.6416  -44.7939 H         1 UNK         0.0828 
    109 H109       23.0959  -29.6789  -46.1842 H         1 UNK         0.0828 
    110 H110       22.9640  -31.4230  -42.2813 H         1 UNK         0.2931 
    111 H111       20.6852  -33.2553  -42.1912 H         1 UNK         0.0412 
    112 H112       24.0498  -33.8622  -42.4470 H         1 UNK         0.3472 
    113 H113       24.0231  -35.4124  -41.6416 H         1 UNK         0.3472 
    114 H114       22.1613  -31.9148  -39.8803 H         1 UNK         0.0970 
    115 H115       20.6803  -32.8174  -39.7504 H         1 UNK         0.0970 
    116 H116       18.6261  -32.3705  -41.0975 H         1 UNK         0.0612 
    117 H117       18.2030  -31.3028  -39.7789 H         1 UNK         0.0612 
@<TRIPOS>BOND
     1    1    2 1    
     2    1   62 1    
     3    1   63 1    
     4    1   64 1    
     5    2    3 2    
     6    2    4 am   BACKBONE|DICT|INTERRES
     7    4    5 1    
     8    4   65 1    
     9    5    6 1    
    10    5   25 1    
    11    5   66 1    
    12    6    7 1    
    13    6   67 1    
    14    6   68 1    
    15    7    8 1    
    16    8    9 1    
    17    8   69 1    
    18    8   70 1    
    19    9   10 ar   
    20    9   14 ar   
    21   10   11 ar   
    22   10   71 1    
    23   11   12 ar   
    24   11   61 1    
    25   12   13 ar   
    26   12   72 1    
    27   13   14 ar   
    28   13   15 1    
    29   14   73 1    
    30   15   16 1    
    31   15   74 1    
    32   15   75 1    
    33   16   17 1    
    34   17   18 1    
    35   17   76 1    
    36   17   77 1    
    37   18   19 1    
    38   18   27 1    
    39   18   78 1    
    40   19   20 am   BACKBONE|DICT|INTERRES
    41   19   79 1    
    42   20   21 2    
    43   20   22 1    
    44   22   23 1    
    45   22   24 1    
    46   22   80 1    
    47   23   81 1    
    48   23   82 1    
    49   23   83 1    
    50   24   25 am   BACKBONE|DICT|INTERRES
    51   24   84 1    
    52   25   26 2    
    53   27   28 2    
    54   27   29 am   BACKBONE|DICT|INTERRES
    55   29   30 1    
    56   29   85 1    
    57   30   31 1    
    58   30   32 1    
    59   30   86 1    
    60   31   87 1    
    61   31   88 1    
    62   31   89 1    
    63   32   33 2    
    64   32   34 am   BACKBONE|DICT|INTERRES
    65   34   35 1    
    66   34   90 1    
    67   35   36 1    
    68   35   37 1    
    69   35   91 1    
    70   36   92 1    
    71   36   93 1    
    72   36   94 1    
    73   37   38 2    
    74   37   39 am   BACKBONE|DICT|INTERRES
    75   39   40 1    
    76   39   95 1    
    77   40   41 1    
    78   40   42 1    
    79   40   96 1    
    80   41   97 1    
    81   41   98 1    
    82   41   99 1    
    83   42   43 2    
    84   42   44 am   BACKBONE|DICT|INTERRES
    85   44   45 1    
    86   44  100 1    
    87   45   46 1    
    88   45   47 1    
    89   45  101 1    
    90   46  102 1    
    91   46  103 1    
    92   46  104 1    
    93   47   48 2    
    94   47   49 am   BACKBONE|DICT|INTERRES
    95   49   50 1    
    96   49  105 1    
    97   50   51 1    
    98   50   52 1    
    99   50  106 1    
   100   51  107 1    
   101   51  108 1    
   102   51  109 1    
   103   52   53 2    
   104   52   54 am   BACKBONE|DICT|INTERRES
   105   54   55 1    
   106   54  110 1    
   107   55   56 1    
   108   55   59 1    
   109   55  111 1    
   110   56   57 am   BACKBONE|DICT|INTERRES
   111   56   58 2    
   112   57  112 1    
   113   57  113 1    
   114   59   60 1    
   115   59  114 1    
   116   59  115 1    
   117   60   61 1    
   118   61  116 1    
   119   61  117 1    
@<TRIPOS>SUBSTRUCTURE
     1 UNK         1 GROUP             0       ****    0 ROOT    
