@<TRIPOS>MOLECULE
3R8
117   119    1
SMALL
USER_CHARGES


@<TRIPOS>ATOM
      1 CA         17.1090  -24.2299  -46.0871 C.3       0 UNK        -0.2013 
      2 C          15.6299  -24.5784  -46.2159 C.2       0 UNK         0.4866 
      3 O          14.8407  -23.7209  -46.6085 O.2       0 UNK        -0.5176 
      4 N          15.2020  -25.8123  -45.9172 N.am      1 UNK        -0.4884 
      5 CA         15.9950  -26.9275  -45.3814 C.3       1 UNK         0.0853 
      6 C6         15.3607  -28.2917  -45.7649 C.3       10 UNK        -0.0849 
      7 S7         15.7524  -28.7051  -47.4953 S.3       10 UNK        -0.2776 
      8 C8         16.9954  -30.0287  -47.2874 C.3       10 UNK         0.0316 
      9 C9         18.2145  -29.6166  -46.4623 C.ar      10 UNK        -0.0863 
     10 C10        18.6463  -30.4246  -45.4037 C.ar      10 UNK        -0.1009 
     11 C11        19.8027  -30.1021  -44.6855 C.ar      10 UNK        -0.0712 
     12 C12        20.5162  -28.9488  -45.0194 C.ar      10 UNK        -0.0894 
     13 C13        20.0805  -28.1132  -46.0499 C.ar      10 UNK        -0.0745 
     14 C14        18.9413  -28.4637  -46.7815 C.ar      10 UNK        -0.0972 
     15 C15        20.8557  -26.8495  -46.3930 C.3       10 UNK         0.0209 
     16 S16        20.3818  -25.4498  -45.3261 S.3       10 UNK        -0.2568 
     17 C17        21.4206  -25.7096  -43.8470 C.3       10 UNK        -0.0983 
     18 CA         20.6188  -25.7325  -42.5195 C.3       3 UNK         0.0876 
     19 N          19.5141  -26.6992  -42.5468 N.am      3 UNK        -0.4424 
     20 C          18.5174  -26.7603  -41.6512 C.2       2 UNK         0.4918 
     21 O          18.4233  -26.0152  -40.6752 O.2       2 UNK        -0.4875 
     22 CA         17.4482  -27.8347  -41.9197 C.3       2 UNK         0.0481 
     23 CB         16.2933  -27.8306  -40.8951 C.3       2 UNK        -0.1831 
     24 N          16.9642  -27.7698  -43.3026 N.am      2 UNK        -0.4498 
     25 C          16.2273  -26.7967  -43.8613 C.2       1 UNK         0.5027 
     26 O          15.7680  -25.8343  -43.2417 O.2       1 UNK        -0.4969 
     27 C          21.5875  -25.9446  -41.3349 C.2       3 UNK         0.5005 
     28 O          22.3137  -25.0135  -40.9844 O.2       3 UNK        -0.5279 
     29 N          21.6225  -27.1648  -40.7736 N.am      4 UNK        -0.4463 
     30 CA         22.4506  -27.6552  -39.6590 C.3       4 UNK         0.0283 
     31 CB         22.2085  -26.8501  -38.3690 C.3       4 UNK        -0.1875 
     32 C          23.9535  -27.7673  -39.9725 C.2       4 UNK         0.4949 
     33 O          24.5793  -28.7449  -39.5645 O.2       4 UNK        -0.5039 
     34 N          24.5012  -26.8127  -40.7361 N.am      5 UNK        -0.4663 
     35 CA         25.8899  -26.7738  -41.2160 C.3       5 UNK         0.0242 
     36 CB         26.1248  -25.4435  -41.9491 C.3       5 UNK        -0.1982 
     37 C          26.2784  -27.9613  -42.1189 C.2       5 UNK         0.5017 
     38 O          27.4634  -28.2734  -42.2351 O.2       5 UNK        -0.5012 
     39 N          25.2712  -28.6167  -42.7116 N.am      6 UNK        -0.4439 
     40 CA         25.3842  -29.8622  -43.4728 C.3       6 UNK         0.0297 
     41 CB         24.1074  -30.0340  -44.3109 C.3       6 UNK        -0.2006 
     42 C          25.6232  -31.1113  -42.5977 C.2       6 UNK         0.4892 
     43 O          25.8312  -32.1893  -43.1552 O.2       6 UNK        -0.5089 
     44 N          25.5537  -30.9705  -41.2636 N.am      7 UNK        -0.4243 
     45 CA         25.7555  -31.9761  -40.2095 C.3       7 UNK         0.0196 
     46 CB         27.1465  -32.6334  -40.2994 C.3       7 UNK        -0.2007 
     47 C          24.6438  -33.0337  -40.1069 C.2       7 UNK         0.5020 
     48 O          24.2610  -33.3860  -38.9915 O.2       7 UNK        -0.5147 
     49 N          24.1108  -33.4926  -41.2470 N.am      8 UNK        -0.4734 
     50 CA         23.0290  -34.4825  -41.3566 C.3       8 UNK         0.0238 
     51 CB         22.7931  -34.7999  -42.8422 C.3       8 UNK        -0.1912 
     52 C          21.7074  -34.0598  -40.6854 C.2       8 UNK         0.5038 
     53 O          20.9359  -34.9252  -40.2702 O.2       8 UNK        -0.5046 
     54 N          21.4906  -32.7456  -40.5863 N.am      9 UNK        -0.4200 
     55 CA         20.3793  -32.0852  -39.8890 C.3       9 UNK         0.0839 
     56 C          20.8481  -31.2608  -38.6538 C.2       9 UNK         0.5513 
     57 N          22.0697  -31.4350  -38.1617 N.am      9 UNK        -0.7519 
     58 O          20.0879  -30.4603  -38.1160 O.2       9 UNK        -0.4960 
     59 C59        19.4915  -31.2735  -40.8734 C.3       10 UNK        -0.0876 
     60 S60        20.4334  -30.1586  -41.9787 S.3       10 UNK        -0.2414 
     61 C61        20.3125  -31.0208  -43.5830 C.3       10 UNK         0.0169 
     62 H62        17.7083  -24.8311  -46.7703 H         1 UNK         0.0903 
     63 H63        17.2788  -23.1823  -46.3344 H         1 UNK         0.0903 
     64 H64        17.4639  -24.3883  -45.0694 H         1 UNK         0.0903 
     65 H65        14.2134  -25.9998  -46.0013 H         1 UNK         0.3096 
     66 H66        16.9911  -26.8786  -45.8206 H         1 UNK         0.1121 
     67 H67        15.7022  -29.1146  -45.1354 H         1 UNK         0.0849 
     68 H68        14.2767  -28.2662  -45.6404 H         1 UNK         0.0849 
     69 H69        16.5046  -30.8968  -46.8444 H         1 UNK         0.0865 
     70 H70        17.3356  -30.3452  -48.2743 H         1 UNK         0.0865 
     71 H71        18.1006  -31.3261  -45.1594 H         1 UNK         0.1346 
     72 H72        21.4170  -28.7093  -44.4751 H         1 UNK         0.1412 
     73 H73        18.6171  -27.8380  -47.6023 H         1 UNK         0.1426 
     74 H74        20.6664  -26.5701  -47.4306 H         1 UNK         0.0716 
     75 H75        21.9297  -27.0290  -46.3238 H         1 UNK         0.0716 
     76 H76        22.0063  -26.6216  -43.9609 H         1 UNK         0.0695 
     77 H77        22.1500  -24.8973  -43.8260 H         1 UNK         0.0695 
     78 H78        20.1741  -24.7443  -42.3822 H         1 UNK         0.0983 
     79 H79        19.4967  -27.3271  -43.3374 H         1 UNK         0.3095 
     80 H80        17.9438  -28.7988  -41.8253 H         1 UNK         0.0454 
     81 H81        16.6691  -28.0319  -39.8913 H         1 UNK         0.0851 
     82 H82        15.5556  -28.5992  -41.1245 H         1 UNK         0.0851 
     83 H83        15.7784  -26.8705  -40.8564 H         1 UNK         0.0851 
     84 H84        17.2970  -28.5121  -43.9032 H         1 UNK         0.2976 
     85 H85        21.0072  -27.8619  -41.1728 H         1 UNK         0.3116 
     86 H86        22.1034  -28.6719  -39.4726 H         1 UNK         0.0646 
     87 H87        21.1505  -26.8327  -38.1075 H         1 UNK         0.0847 
     88 H88        22.7422  -27.2961  -37.5287 H         1 UNK         0.0847 
     89 H89        22.5505  -25.8187  -38.4577 H         1 UNK         0.0847 
     90 H90        23.9030  -26.0262  -40.9793 H         1 UNK         0.3040 
     91 H91        26.5431  -26.8090  -40.3414 H         1 UNK         0.1015 
     92 H92        27.1555  -25.3649  -42.2982 H         1 UNK         0.0786 
     93 H93        25.9407  -24.5917  -41.2940 H         1 UNK         0.0786 
     94 H94        25.4759  -25.3431  -42.8202 H         1 UNK         0.0786 
     95 H95        24.3390  -28.2663  -42.5500 H         1 UNK         0.3172 
     96 H96        26.2341  -29.7752  -44.1528 H         1 UNK         0.0595 
     97 H97        23.2267  -30.1107  -43.6746 H         1 UNK         0.0839 
     98 H98        24.1514  -30.9388  -44.9190 H         1 UNK         0.0839 
     99 H99        23.9616  -29.1962  -44.9931 H         1 UNK         0.0839 
    100 H100       25.3165  -30.0511  -40.9032 H         1 UNK         0.2998 
    101 H101       25.7257  -31.4129  -39.2749 H         1 UNK         0.0822 
    102 H102       27.3252  -33.2798  -39.4392 H         1 UNK         0.0787 
    103 H103       27.9382  -31.8842  -40.3121 H         1 UNK         0.0787 
    104 H104       27.2528  -33.2500  -41.1923 H         1 UNK         0.0787 
    105 H105       24.5312  -33.1630  -42.1120 H         1 UNK         0.3055 
    106 H106       23.3647  -35.3931  -40.8558 H         1 UNK         0.1106 
    107 H107       22.4826  -33.9151  -43.3994 H         1 UNK         0.0828 
    108 H108       23.6946  -35.1933  -43.3124 H         1 UNK         0.0828 
    109 H109       22.0124  -35.5524  -42.9628 H         1 UNK         0.0828 
    110 H110       22.1930  -32.1227  -40.9558 H         1 UNK         0.2931 
    111 H111       19.7353  -32.8520  -39.4555 H         1 UNK         0.0412 
    112 H112       22.3515  -30.8978  -37.3575 H         1 UNK         0.3472 
    113 H113       22.6938  -32.1388  -38.5371 H         1 UNK         0.3472 
    114 H114       18.8970  -31.9685  -41.4661 H         1 UNK         0.0970 
    115 H115       18.7527  -30.6794  -40.3327 H         1 UNK         0.0970 
    116 H116       21.2978  -31.3966  -43.8583 H         1 UNK         0.0612 
    117 H117       19.6771  -31.9029  -43.5049 H         1 UNK         0.0612 
@<TRIPOS>BOND
     1    1    2 1    
     2    1   62 1    
     3    1   63 1    
     4    1   64 1    
     5    2    3 2    
     6    2    4 am   BACKBONE|DICT|INTERRES
     7    4    5 1    
     8    4   65 1    
     9    5    6 1    
    10    5   25 1    
    11    5   66 1    
    12    6    7 1    
    13    6   67 1    
    14    6   68 1    
    15    7    8 1    
    16    8    9 1    
    17    8   69 1    
    18    8   70 1    
    19    9   10 ar   
    20    9   14 ar   
    21   10   11 ar   
    22   10   71 1    
    23   11   12 ar   
    24   11   61 1    
    25   12   13 ar   
    26   12   72 1    
    27   13   14 ar   
    28   13   15 1    
    29   14   73 1    
    30   15   16 1    
    31   15   74 1    
    32   15   75 1    
    33   16   17 1    
    34   17   18 1    
    35   17   76 1    
    36   17   77 1    
    37   18   19 1    
    38   18   27 1    
    39   18   78 1    
    40   19   20 am   BACKBONE|DICT|INTERRES
    41   19   79 1    
    42   20   21 2    
    43   20   22 1    
    44   22   23 1    
    45   22   24 1    
    46   22   80 1    
    47   23   81 1    
    48   23   82 1    
    49   23   83 1    
    50   24   25 am   BACKBONE|DICT|INTERRES
    51   24   84 1    
    52   25   26 2    
    53   27   28 2    
    54   27   29 am   BACKBONE|DICT|INTERRES
    55   29   30 1    
    56   29   85 1    
    57   30   31 1    
    58   30   32 1    
    59   30   86 1    
    60   31   87 1    
    61   31   88 1    
    62   31   89 1    
    63   32   33 2    
    64   32   34 am   BACKBONE|DICT|INTERRES
    65   34   35 1    
    66   34   90 1    
    67   35   36 1    
    68   35   37 1    
    69   35   91 1    
    70   36   92 1    
    71   36   93 1    
    72   36   94 1    
    73   37   38 2    
    74   37   39 am   BACKBONE|DICT|INTERRES
    75   39   40 1    
    76   39   95 1    
    77   40   41 1    
    78   40   42 1    
    79   40   96 1    
    80   41   97 1    
    81   41   98 1    
    82   41   99 1    
    83   42   43 2    
    84   42   44 am   BACKBONE|DICT|INTERRES
    85   44   45 1    
    86   44  100 1    
    87   45   46 1    
    88   45   47 1    
    89   45  101 1    
    90   46  102 1    
    91   46  103 1    
    92   46  104 1    
    93   47   48 2    
    94   47   49 am   BACKBONE|DICT|INTERRES
    95   49   50 1    
    96   49  105 1    
    97   50   51 1    
    98   50   52 1    
    99   50  106 1    
   100   51  107 1    
   101   51  108 1    
   102   51  109 1    
   103   52   53 2    
   104   52   54 am   BACKBONE|DICT|INTERRES
   105   54   55 1    
   106   54  110 1    
   107   55   56 1    
   108   55   59 1    
   109   55  111 1    
   110   56   57 am   BACKBONE|DICT|INTERRES
   111   56   58 2    
   112   57  112 1    
   113   57  113 1    
   114   59   60 1    
   115   59  114 1    
   116   59  115 1    
   117   60   61 1    
   118   61  116 1    
   119   61  117 1    
@<TRIPOS>SUBSTRUCTURE
     1 UNK         1 GROUP             0       ****    0 ROOT    
