@<TRIPOS>MOLECULE
3R8
117   119    1
SMALL
USER_CHARGES


@<TRIPOS>ATOM
      1 CA         13.4547  -24.2205  -45.3201 C.3       0 UNK        -0.2013 
      2 C          14.2979  -24.4799  -46.5594 C.2       0 UNK         0.4866 
      3 O          14.1779  -23.7551  -47.5470 O.2       0 UNK        -0.5176 
      4 N          15.1583  -25.5049  -46.5129 N.am      1 UNK        -0.4884 
      5 CA         16.0539  -25.9030  -47.6089 C.3       1 UNK         0.0853 
      6 C6         16.3689  -27.4250  -47.5464 C.3       10 UNK        -0.0849 
      7 S7         17.4318  -27.9219  -46.1410 S.3       10 UNK        -0.2776 
      8 C8         16.2548  -28.7206  -45.0113 C.3       10 UNK         0.0316 
      9 C9         16.8332  -28.7449  -43.6065 C.ar      10 UNK        -0.0863 
     10 C10        17.5091  -29.8726  -43.1292 C.ar      10 UNK        -0.1009 
     11 C11        18.0596  -29.8739  -41.8435 C.ar      10 UNK        -0.0712 
     12 C12        17.9528  -28.7297  -41.0464 C.ar      10 UNK        -0.0894 
     13 C13        17.2852  -27.5950  -41.5165 C.ar      10 UNK        -0.0745 
     14 C14        16.7096  -27.6179  -42.7897 C.ar      10 UNK        -0.0972 
     15 C15        17.1827  -26.3476  -40.6480 C.3       10 UNK         0.0209 
     16 S16        17.8457  -24.8623  -41.4733 S.3       10 UNK        -0.2568 
     17 C17        19.5858  -25.3330  -41.7654 C.3       10 UNK        -0.0983 
     18 CA         19.8631  -25.7331  -43.2381 C.3       3 UNK         0.0876 
     19 N          19.4433  -24.6837  -44.1759 N.am      3 UNK        -0.4424 
     20 C          19.6327  -24.6428  -45.5027 C.2       2 UNK         0.4918 
     21 O          20.3208  -25.4378  -46.1445 O.2       2 UNK        -0.4875 
     22 CA         18.8152  -23.5694  -46.2399 C.3       2 UNK         0.0481 
     23 CB         19.5959  -22.8824  -47.3804 C.3       2 UNK        -0.1831 
     24 N          17.5531  -24.1774  -46.6787 N.am      2 UNK        -0.4498 
     25 C          17.3464  -25.0518  -47.6795 C.2       1 UNK         0.5027 
     26 O          18.1282  -25.2418  -48.6123 O.2       1 UNK        -0.4969 
     27 C          21.3356  -26.1562  -43.4043 C.2       3 UNK         0.5005 
     28 O          22.2254  -25.3019  -43.3767 O.2       3 UNK        -0.5279 
     29 N          21.5573  -27.4682  -43.5591 N.am      4 UNK        -0.4463 
     30 CA         22.8731  -28.0673  -43.7976 C.3       4 UNK         0.0283 
     31 CB         22.6728  -29.4171  -44.5047 C.3       4 UNK        -0.1875 
     32 C          23.7241  -28.2286  -42.5217 C.2       4 UNK         0.4949 
     33 O          24.9222  -28.4857  -42.6414 O.2       4 UNK        -0.5039 
     34 N          23.0956  -28.0652  -41.3464 N.am      5 UNK        -0.4663 
     35 CA         23.6318  -28.2026  -39.9842 C.3       5 UNK         0.0242 
     36 CB         24.8710  -27.3079  -39.7668 C.3       5 UNK        -0.1982 
     37 C          23.9053  -29.6637  -39.5848 C.2       5 UNK         0.5017 
     38 O          23.9121  -30.5583  -40.4323 O.2       5 UNK        -0.5012 
     39 N          24.1175  -29.8812  -38.2782 N.am      6 UNK        -0.4439 
     40 CA         24.2455  -31.1908  -37.6210 C.3       6 UNK         0.0297 
     41 CB         24.5049  -30.9808  -36.1207 C.3       6 UNK        -0.2006 
     42 C          25.3054  -32.1360  -38.2152 C.2       6 UNK         0.4892 
     43 O          25.1193  -33.3515  -38.1595 O.2       6 UNK        -0.5089 
     44 N          26.3702  -31.5706  -38.8001 N.am      7 UNK        -0.4243 
     45 CA         27.4228  -32.3023  -39.5103 C.3       7 UNK         0.0196 
     46 CB         28.5545  -31.3270  -39.8725 C.3       7 UNK        -0.2007 
     47 C          26.9280  -33.0410  -40.7695 C.2       7 UNK         0.5020 
     48 O          27.5354  -34.0428  -41.1489 O.2       7 UNK        -0.5147 
     49 N          25.8498  -32.5435  -41.3888 N.am      8 UNK        -0.4734 
     50 CA         25.2061  -33.1411  -42.5589 C.3       8 UNK         0.0238 
     51 CB         25.0497  -32.0655  -43.6415 C.3       8 UNK        -0.1912 
     52 C          23.8405  -33.7456  -42.2017 C.2       8 UNK         0.5038 
     53 O          23.5153  -34.8214  -42.7058 O.2       8 UNK        -0.5046 
     54 N          23.0693  -33.0567  -41.3488 N.am      9 UNK        -0.4200 
     55 CA         21.7547  -33.4990  -40.8596 C.3       9 UNK         0.0839 
     56 C          21.8018  -34.7538  -39.9410 C.2       9 UNK         0.5513 
     57 N          22.8932  -35.0275  -39.2364 N.am      9 UNK        -0.7519 
     58 O          20.8242  -35.4938  -39.8691 O.2       9 UNK        -0.4960 
     59 C59        20.9838  -32.3495  -40.1604 C.3       10 UNK        -0.0876 
     60 S60        20.5472  -30.9721  -41.2801 S.3       10 UNK        -0.2414 
     61 C61        18.7334  -31.1195  -41.2893 C.3       10 UNK         0.0169 
     62 H62        13.6737  -24.9278  -44.5203 H         1 UNK         0.0903 
     63 H63        13.6401  -23.2150  -44.9433 H         1 UNK         0.0903 
     64 H64        12.3958  -24.3025  -45.5639 H         1 UNK         0.0903 
     65 H65        15.2244  -26.0640  -45.6750 H         1 UNK         0.3096 
     66 H66        15.5306  -25.7246  -48.5514 H         1 UNK         0.1121 
     67 H67        15.4411  -27.9991  -47.5265 H         1 UNK         0.0849 
     68 H68        16.8742  -27.7326  -48.4639 H         1 UNK         0.0849 
     69 H69        16.0400  -29.7313  -45.3618 H         1 UNK         0.0865 
     70 H70        15.3048  -28.1845  -45.0100 H         1 UNK         0.0865 
     71 H71        17.6014  -30.7498  -43.7553 H         1 UNK         0.1346 
     72 H72        18.3867  -28.7297  -40.0556 H         1 UNK         0.1412 
     73 H73        16.1933  -26.7413  -43.1564 H         1 UNK         0.1426 
     74 H74        17.7046  -26.4864  -39.6998 H         1 UNK         0.0716 
     75 H75        16.1346  -26.1749  -40.4004 H         1 UNK         0.0716 
     76 H76        19.8533  -26.1458  -41.0873 H         1 UNK         0.0695 
     77 H77        20.2103  -24.4844  -41.4789 H         1 UNK         0.0695 
     78 H78        19.2428  -26.5993  -43.4752 H         1 UNK         0.0983 
     79 H79        18.8577  -23.9741  -43.7605 H         1 UNK         0.3095 
     80 H80        18.5445  -22.7907  -45.5248 H         1 UNK         0.0454 
     81 H81        20.0154  -23.5963  -48.0893 H         1 UNK         0.0851 
     82 H82        20.4316  -22.3087  -46.9789 H         1 UNK         0.0851 
     83 H83        18.9625  -22.1904  -47.9351 H         1 UNK         0.0851 
     84 H84        16.8017  -24.1124  -46.0069 H         1 UNK         0.2976 
     85 H85        20.7700  -28.1024  -43.5626 H         1 UNK         0.3116 
     86 H86        23.4266  -27.4145  -44.4762 H         1 UNK         0.0646 
     87 H87        22.2389  -30.1646  -43.8388 H         1 UNK         0.0847 
     88 H88        23.6248  -29.8050  -44.8666 H         1 UNK         0.0847 
     89 H89        22.0219  -29.3214  -45.3740 H         1 UNK         0.0847 
     90 H90        22.1009  -27.9010  -41.3962 H         1 UNK         0.3040 
     91 H91        22.8397  -27.8429  -39.3253 H         1 UNK         0.1015 
     92 H92        25.7452  -27.6827  -40.3000 H         1 UNK         0.0786 
     93 H93        25.1396  -27.2524  -38.7115 H         1 UNK         0.0786 
     94 H94        24.6864  -26.2876  -40.1035 H         1 UNK         0.0786 
     95 H95        24.1102  -29.0819  -37.6605 H         1 UNK         0.3172 
     96 H96        23.2827  -31.6936  -37.7248 H         1 UNK         0.0595 
     97 H97        25.4347  -30.4388  -35.9432 H         1 UNK         0.0839 
     98 H98        24.5813  -31.9365  -35.5996 H         1 UNK         0.0839 
     99 H99        23.6946  -30.4243  -35.6493 H         1 UNK         0.0839 
    100 H100       26.4314  -30.5630  -38.8036 H         1 UNK         0.2998 
    101 H101       27.8222  -33.0553  -38.8275 H         1 UNK         0.0822 
    102 H102       28.2070  -30.5360  -40.5388 H         1 UNK         0.0787 
    103 H103       28.9759  -30.8581  -38.9830 H         1 UNK         0.0787 
    104 H104       29.3692  -31.8458  -40.3798 H         1 UNK         0.0787 
    105 H105       25.3919  -31.7280  -40.9920 H         1 UNK         0.3055 
    106 H106       25.8210  -33.9461  -42.9679 H         1 UNK         0.1106 
    107 H107       24.5082  -32.4477  -44.5079 H         1 UNK         0.0828 
    108 H108       24.5017  -31.2066  -43.2567 H         1 UNK         0.0828 
    109 H109       26.0195  -31.7112  -43.9909 H         1 UNK         0.0828 
    110 H110       23.3874  -32.1514  -41.0096 H         1 UNK         0.2931 
    111 H111       21.1744  -33.7903  -41.7375 H         1 UNK         0.0412 
    112 H112       23.6890  -34.4011  -39.2246 H         1 UNK         0.3472 
    113 H113       22.9024  -35.8478  -38.6516 H         1 UNK         0.3472 
    114 H114       20.0720  -32.7323  -39.6982 H         1 UNK         0.0970 
    115 H115       21.5759  -31.9431  -39.3401 H         1 UNK         0.0970 
    116 H116       18.4501  -32.0029  -41.8637 H         1 UNK         0.0612 
    117 H117       18.3728  -31.2832  -40.2727 H         1 UNK         0.0612 
@<TRIPOS>BOND
     1    1    2 1    
     2    1   62 1    
     3    1   63 1    
     4    1   64 1    
     5    2    3 2    
     6    2    4 am   BACKBONE|DICT|INTERRES
     7    4    5 1    
     8    4   65 1    
     9    5    6 1    
    10    5   25 1    
    11    5   66 1    
    12    6    7 1    
    13    6   67 1    
    14    6   68 1    
    15    7    8 1    
    16    8    9 1    
    17    8   69 1    
    18    8   70 1    
    19    9   10 ar   
    20    9   14 ar   
    21   10   11 ar   
    22   10   71 1    
    23   11   12 ar   
    24   11   61 1    
    25   12   13 ar   
    26   12   72 1    
    27   13   14 ar   
    28   13   15 1    
    29   14   73 1    
    30   15   16 1    
    31   15   74 1    
    32   15   75 1    
    33   16   17 1    
    34   17   18 1    
    35   17   76 1    
    36   17   77 1    
    37   18   19 1    
    38   18   27 1    
    39   18   78 1    
    40   19   20 am   BACKBONE|DICT|INTERRES
    41   19   79 1    
    42   20   21 2    
    43   20   22 1    
    44   22   23 1    
    45   22   24 1    
    46   22   80 1    
    47   23   81 1    
    48   23   82 1    
    49   23   83 1    
    50   24   25 am   BACKBONE|DICT|INTERRES
    51   24   84 1    
    52   25   26 2    
    53   27   28 2    
    54   27   29 am   BACKBONE|DICT|INTERRES
    55   29   30 1    
    56   29   85 1    
    57   30   31 1    
    58   30   32 1    
    59   30   86 1    
    60   31   87 1    
    61   31   88 1    
    62   31   89 1    
    63   32   33 2    
    64   32   34 am   BACKBONE|DICT|INTERRES
    65   34   35 1    
    66   34   90 1    
    67   35   36 1    
    68   35   37 1    
    69   35   91 1    
    70   36   92 1    
    71   36   93 1    
    72   36   94 1    
    73   37   38 2    
    74   37   39 am   BACKBONE|DICT|INTERRES
    75   39   40 1    
    76   39   95 1    
    77   40   41 1    
    78   40   42 1    
    79   40   96 1    
    80   41   97 1    
    81   41   98 1    
    82   41   99 1    
    83   42   43 2    
    84   42   44 am   BACKBONE|DICT|INTERRES
    85   44   45 1    
    86   44  100 1    
    87   45   46 1    
    88   45   47 1    
    89   45  101 1    
    90   46  102 1    
    91   46  103 1    
    92   46  104 1    
    93   47   48 2    
    94   47   49 am   BACKBONE|DICT|INTERRES
    95   49   50 1    
    96   49  105 1    
    97   50   51 1    
    98   50   52 1    
    99   50  106 1    
   100   51  107 1    
   101   51  108 1    
   102   51  109 1    
   103   52   53 2    
   104   52   54 am   BACKBONE|DICT|INTERRES
   105   54   55 1    
   106   54  110 1    
   107   55   56 1    
   108   55   59 1    
   109   55  111 1    
   110   56   57 am   BACKBONE|DICT|INTERRES
   111   56   58 2    
   112   57  112 1    
   113   57  113 1    
   114   59   60 1    
   115   59  114 1    
   116   59  115 1    
   117   60   61 1    
   118   61  116 1    
   119   61  117 1    
@<TRIPOS>SUBSTRUCTURE
     1 UNK         1 GROUP             0       ****    0 ROOT    
