@<TRIPOS>MOLECULE
3R8
117   119    1
SMALL
USER_CHARGES


@<TRIPOS>ATOM
      1 CA         16.7640  -25.1398  -39.9866 C.3       0 UNK        -0.2013 
      2 C          17.1400  -24.7649  -41.4124 C.2       0 UNK         0.4866 
      3 O          17.2743  -23.5800  -41.7200 O.2       0 UNK        -0.5176 
      4 N          17.3001  -25.7668  -42.2851 N.am      1 UNK        -0.4884 
      5 CA         17.7277  -25.6202  -43.6808 C.3       1 UNK         0.0853 
      6 C6         17.6172  -26.9575  -44.4601 C.3       10 UNK        -0.0849 
      7 S7         15.9494  -27.7002  -44.4037 S.3       10 UNK        -0.2776 
      8 C8         16.1527  -29.1720  -45.4664 C.3       10 UNK         0.0316 
      9 C9         17.2581  -30.0922  -44.9649 C.ar      10 UNK        -0.0863 
     10 C10        17.0662  -30.8655  -43.8172 C.ar      10 UNK        -0.1009 
     11 C11        18.1029  -31.6576  -43.3173 C.ar      10 UNK        -0.0712 
     12 C12        19.3403  -31.6613  -43.9697 C.ar      10 UNK        -0.0894 
     13 C13        19.5484  -30.9049  -45.1267 C.ar      10 UNK        -0.0745 
     14 C14        18.4854  -30.1430  -45.6324 C.ar      10 UNK        -0.0972 
     15 C15        20.9414  -30.9347  -45.7677 C.3       10 UNK         0.0209 
     16 S16        21.2851  -29.6680  -47.0435 S.3       10 UNK        -0.2568 
     17 C17        20.9979  -28.1228  -46.1189 C.3       10 UNK        -0.0983 
     18 CA         22.2659  -27.2885  -45.8247 C.3       3 UNK         0.0876 
     19 N          21.8789  -26.0003  -45.2663 N.am      3 UNK        -0.4424 
     20 C          21.4856  -24.9346  -45.9654 C.2       2 UNK         0.4918 
     21 O          21.5589  -24.8509  -47.1924 O.2       2 UNK        -0.4875 
     22 CA         20.8057  -23.8205  -45.1489 C.3       2 UNK         0.0481 
     23 CB         20.7133  -22.4930  -45.9233 C.3       2 UNK        -0.1831 
     24 N          19.4567  -24.2537  -44.7715 N.am      2 UNK        -0.4498 
     25 C          19.1779  -25.0969  -43.7672 C.2       1 UNK         0.5027 
     26 O          20.0274  -25.5133  -42.9740 O.2       1 UNK        -0.4969 
     27 C          23.1735  -27.9690  -44.7906 C.2       3 UNK         0.5005 
     28 O          22.8966  -27.8616  -43.5920 O.2       3 UNK        -0.5279 
     29 N          24.2203  -28.6634  -45.2622 N.am      4 UNK        -0.4463 
     30 CA         25.2610  -29.3225  -44.4613 C.3       4 UNK         0.0283 
     31 CB         24.6860  -30.5693  -43.7501 C.3       4 UNK        -0.1875 
     32 C          25.9587  -28.3144  -43.5227 C.2       4 UNK         0.4949 
     33 O          26.3321  -27.2346  -43.9857 O.2       4 UNK        -0.5039 
     34 N          26.1129  -28.6590  -42.2366 N.am      5 UNK        -0.4663 
     35 CA         26.5514  -27.7279  -41.1936 C.3       5 UNK         0.0242 
     36 CB         26.9973  -28.5105  -39.9462 C.3       5 UNK        -0.1982 
     37 C          25.4458  -26.7128  -40.8523 C.2       5 UNK         0.5017 
     38 O          25.6978  -25.5081  -40.8870 O.2       5 UNK        -0.5012 
     39 N          24.2461  -27.2314  -40.5581 N.am      6 UNK        -0.4439 
     40 CA         23.0145  -26.5002  -40.2580 C.3       6 UNK         0.0297 
     41 CB         23.1707  -25.6106  -39.0022 C.3       6 UNK        -0.2006 
     42 C          21.8825  -27.5272  -40.1008 C.2       6 UNK         0.4892 
     43 O          21.3802  -27.7169  -38.9917 O.2       6 UNK        -0.5089 
     44 N          21.5449  -28.2058  -41.2078 N.am      7 UNK        -0.4243 
     45 CA         20.5428  -29.2735  -41.3288 C.3       7 UNK         0.0196 
     46 CB         19.1244  -28.7289  -41.0663 C.3       7 UNK        -0.2007 
     47 C          20.8957  -30.4904  -40.4543 C.2       7 UNK         0.5020 
     48 O          20.1273  -30.8830  -39.5744 O.2       7 UNK        -0.5147 
     49 N          22.0803  -31.0604  -40.7045 N.am      8 UNK        -0.4734 
     50 CA         22.6817  -32.1523  -39.9319 C.3       8 UNK         0.0238 
     51 CB         24.2107  -32.1025  -40.1204 C.3       8 UNK        -0.1912 
     52 C          22.0886  -33.5418  -40.2536 C.2       8 UNK         0.5038 
     53 O          22.8394  -34.4711  -40.5578 O.2       8 UNK        -0.5046 
     54 N          20.7587  -33.6679  -40.1751 N.am      9 UNK        -0.4200 
     55 CA         20.0406  -34.9517  -40.2287 C.3       9 UNK         0.0839 
     56 C          20.2181  -35.7568  -38.9128 C.2       9 UNK         0.5513 
     57 N          20.2262  -37.0801  -38.9935 N.am      9 UNK        -0.7519 
     58 O          20.3076  -35.1977  -37.8211 O.2       9 UNK        -0.4960 
     59 C59        18.5366  -34.7658  -40.5603 C.3       10 UNK        -0.0876 
     60 S60        18.2806  -34.2269  -42.2829 S.3       10 UNK        -0.2414 
     61 C61        17.9065  -32.4644  -42.0423 C.3       10 UNK         0.0169 
     62 H62        16.6828  -26.2189  -39.8563 H         1 UNK         0.0903 
     63 H63        17.5183  -24.7715  -39.2917 H         1 UNK         0.0903 
     64 H64        15.8067  -24.6925  -39.7203 H         1 UNK         0.0903 
     65 H65        17.1546  -26.7182  -41.9810 H         1 UNK         0.3096 
     66 H66        17.0665  -24.8875  -44.1489 H         1 UNK         0.1121 
     67 H67        17.8880  -26.8128  -45.5080 H         1 UNK         0.0849 
     68 H68        18.3261  -27.6845  -44.0592 H         1 UNK         0.0849 
     69 H69        15.2105  -29.7211  -45.4974 H         1 UNK         0.0865 
     70 H70        16.3500  -28.8500  -46.4902 H         1 UNK         0.0865 
     71 H71        16.1165  -30.8274  -43.3011 H         1 UNK         0.1346 
     72 H72        20.1486  -32.2569  -43.5670 H         1 UNK         0.1412 
     73 H73        18.6144  -29.5523  -46.5275 H         1 UNK         0.1426 
     74 H74        21.0940  -31.9177  -46.2149 H         1 UNK         0.0716 
     75 H75        21.6946  -30.8324  -44.9849 H         1 UNK         0.0716 
     76 H76        20.4726  -28.3287  -45.1852 H         1 UNK         0.0695 
     77 H77        20.3028  -27.5347  -46.7201 H         1 UNK         0.0695 
     78 H78        22.8291  -27.1263  -46.7464 H         1 UNK         0.0983 
     79 H79        21.7736  -25.9973  -44.2568 H         1 UNK         0.3095 
     80 H80        21.3990  -23.6435  -44.2490 H         1 UNK         0.0454 
     81 H81        21.7035  -22.1499  -46.2257 H         1 UNK         0.0851 
     82 H82        20.2728  -21.7071  -45.3098 H         1 UNK         0.0851 
     83 H83        20.1115  -22.5883  -46.8280 H         1 UNK         0.0851 
     84 H84        18.7129  -23.9794  -45.3978 H         1 UNK         0.2976 
     85 H85        24.3667  -28.6846  -46.2621 H         1 UNK         0.3116 
     86 H86        26.0239  -29.6632  -45.1629 H         1 UNK         0.0646 
     87 H87        25.4707  -31.1410  -43.2533 H         1 UNK         0.0847 
     88 H88        24.2158  -31.2428  -44.4668 H         1 UNK         0.0847 
     89 H89        23.9344  -30.3067  -43.0066 H         1 UNK         0.0847 
     90 H90        25.8191  -29.5783  -41.9433 H         1 UNK         0.3040 
     91 H91        27.4132  -27.1685  -41.5657 H         1 UNK         0.1015 
     92 H92        27.3346  -27.8306  -39.1624 H         1 UNK         0.0786 
     93 H93        27.8301  -29.1759  -40.1746 H         1 UNK         0.0786 
     94 H94        26.1919  -29.1144  -39.5274 H         1 UNK         0.0786 
     95 H95        24.1486  -28.2359  -40.5774 H         1 UNK         0.3172 
     96 H96        22.7697  -25.8652  -41.1121 H         1 UNK         0.0595 
     97 H97        23.5105  -26.1868  -38.1409 H         1 UNK         0.0839 
     98 H98        22.2204  -25.1482  -38.7321 H         1 UNK         0.0839 
     99 H99        23.8787  -24.7984  -39.1625 H         1 UNK         0.0839 
    100 H100       22.0443  -27.9839  -42.0718 H         1 UNK         0.2998 
    101 H101       20.5767  -29.6067  -42.3669 H         1 UNK         0.0822 
    102 H102       18.9207  -27.8732  -41.7056 H         1 UNK         0.0787 
    103 H103       18.9905  -28.4138  -40.0311 H         1 UNK         0.0787 
    104 H104       18.3677  -29.4842  -41.2786 H         1 UNK         0.0787 
    105 H105       22.6257  -30.7011  -41.4724 H         1 UNK         0.3055 
    106 H106       22.4794  -31.9723  -38.8732 H         1 UNK         0.1106 
    107 H107       24.4973  -32.2994  -41.1538 H         1 UNK         0.0828 
    108 H108       24.6168  -31.1331  -39.8327 H         1 UNK         0.0828 
    109 H109       24.7050  -32.8509  -39.4993 H         1 UNK         0.0828 
    110 H110       20.2268  -32.8528  -39.8901 H         1 UNK         0.2931 
    111 H111       20.4858  -35.5439  -41.0316 H         1 UNK         0.0412 
    112 H112       20.1452  -37.5487  -39.8831 H         1 UNK         0.3472 
    113 H113       20.3252  -37.6230  -38.1494 H         1 UNK         0.3472 
    114 H114       18.0000  -35.7098  -40.4454 H         1 UNK         0.0970 
    115 H115       18.0644  -34.0687  -39.8655 H         1 UNK         0.0970 
    116 H116       16.8854  -32.3696  -41.6696 H         1 UNK         0.0612 
    117 H117       18.5559  -32.0571  -41.2713 H         1 UNK         0.0612 
@<TRIPOS>BOND
     1    1    2 1    
     2    1   62 1    
     3    1   63 1    
     4    1   64 1    
     5    2    3 2    
     6    2    4 am   BACKBONE|DICT|INTERRES
     7    4    5 1    
     8    4   65 1    
     9    5    6 1    
    10    5   25 1    
    11    5   66 1    
    12    6    7 1    
    13    6   67 1    
    14    6   68 1    
    15    7    8 1    
    16    8    9 1    
    17    8   69 1    
    18    8   70 1    
    19    9   10 ar   
    20    9   14 ar   
    21   10   11 ar   
    22   10   71 1    
    23   11   12 ar   
    24   11   61 1    
    25   12   13 ar   
    26   12   72 1    
    27   13   14 ar   
    28   13   15 1    
    29   14   73 1    
    30   15   16 1    
    31   15   74 1    
    32   15   75 1    
    33   16   17 1    
    34   17   18 1    
    35   17   76 1    
    36   17   77 1    
    37   18   19 1    
    38   18   27 1    
    39   18   78 1    
    40   19   20 am   BACKBONE|DICT|INTERRES
    41   19   79 1    
    42   20   21 2    
    43   20   22 1    
    44   22   23 1    
    45   22   24 1    
    46   22   80 1    
    47   23   81 1    
    48   23   82 1    
    49   23   83 1    
    50   24   25 am   BACKBONE|DICT|INTERRES
    51   24   84 1    
    52   25   26 2    
    53   27   28 2    
    54   27   29 am   BACKBONE|DICT|INTERRES
    55   29   30 1    
    56   29   85 1    
    57   30   31 1    
    58   30   32 1    
    59   30   86 1    
    60   31   87 1    
    61   31   88 1    
    62   31   89 1    
    63   32   33 2    
    64   32   34 am   BACKBONE|DICT|INTERRES
    65   34   35 1    
    66   34   90 1    
    67   35   36 1    
    68   35   37 1    
    69   35   91 1    
    70   36   92 1    
    71   36   93 1    
    72   36   94 1    
    73   37   38 2    
    74   37   39 am   BACKBONE|DICT|INTERRES
    75   39   40 1    
    76   39   95 1    
    77   40   41 1    
    78   40   42 1    
    79   40   96 1    
    80   41   97 1    
    81   41   98 1    
    82   41   99 1    
    83   42   43 2    
    84   42   44 am   BACKBONE|DICT|INTERRES
    85   44   45 1    
    86   44  100 1    
    87   45   46 1    
    88   45   47 1    
    89   45  101 1    
    90   46  102 1    
    91   46  103 1    
    92   46  104 1    
    93   47   48 2    
    94   47   49 am   BACKBONE|DICT|INTERRES
    95   49   50 1    
    96   49  105 1    
    97   50   51 1    
    98   50   52 1    
    99   50  106 1    
   100   51  107 1    
   101   51  108 1    
   102   51  109 1    
   103   52   53 2    
   104   52   54 am   BACKBONE|DICT|INTERRES
   105   54   55 1    
   106   54  110 1    
   107   55   56 1    
   108   55   59 1    
   109   55  111 1    
   110   56   57 am   BACKBONE|DICT|INTERRES
   111   56   58 2    
   112   57  112 1    
   113   57  113 1    
   114   59   60 1    
   115   59  114 1    
   116   59  115 1    
   117   60   61 1    
   118   61  116 1    
   119   61  117 1    
@<TRIPOS>SUBSTRUCTURE
     1 UNK         1 GROUP             0       ****    0 ROOT    
