@<TRIPOS>MOLECULE
3R8
117   119    1
SMALL
USER_CHARGES


@<TRIPOS>ATOM
      1 CA         18.9477  -29.1076  -42.2952 C.3       0 UNK        -0.2013 
      2 C          18.1296  -27.8949  -42.6993 C.2       0 UNK         0.4866 
      3 O          18.0996  -26.9137  -41.9588 O.2       0 UNK        -0.5176 
      4 N          17.4843  -27.9493  -43.8737 N.am      1 UNK        -0.4884 
      5 CA         16.5430  -26.9417  -44.3942 C.3       1 UNK         0.0853 
      6 C6         15.9270  -27.3676  -45.7487 C.3       10 UNK        -0.0849 
      7 S7         15.1197  -29.0025  -45.6660 S.3       10 UNK        -0.2776 
      8 C8         16.0815  -29.9622  -46.8798 C.3       10 UNK         0.0316 
      9 C9         17.4576  -30.3619  -46.3612 C.ar      10 UNK        -0.0863 
     10 C10        17.5826  -31.4327  -45.4692 C.ar      10 UNK        -0.1009 
     11 C11        18.8446  -31.8662  -45.0524 C.ar      10 UNK        -0.0712 
     12 C12        19.9852  -31.2127  -45.5262 C.ar      10 UNK        -0.0894 
     13 C13        19.8773  -30.1366  -46.4109 C.ar      10 UNK        -0.0745 
     14 C14        18.6091  -29.7125  -46.8228 C.ar      10 UNK        -0.0972 
     15 C15        21.1354  -29.4877  -46.9771 C.3       10 UNK         0.0209 
     16 S16        21.4085  -27.7976  -46.3609 S.3       10 UNK        -0.2568 
     17 C17        21.8719  -28.0945  -44.6200 C.3       10 UNK        -0.0983 
     18 CA         21.9907  -26.7966  -43.7678 C.3       3 UNK         0.0876 
     19 N          20.8076  -25.9424  -43.9054 N.am      3 UNK        -0.4424 
     20 C          20.7263  -24.8241  -44.6388 C.2       2 UNK         0.4918 
     21 O          21.7000  -24.2386  -45.1135 O.2       2 UNK        -0.4875 
     22 CA         19.3002  -24.3256  -44.9352 C.3       2 UNK         0.0481 
     23 CB         19.2037  -23.5249  -46.2470 C.3       2 UNK        -0.1831 
     24 N          18.4019  -25.4797  -44.9896 N.am      2 UNK        -0.4498 
     25 C          17.1575  -25.5311  -44.5051 C.2       1 UNK         0.5027 
     26 O          16.5236  -24.5487  -44.1172 O.2       1 UNK        -0.4969 
     27 C          22.2365  -27.1235  -42.2801 C.2       3 UNK         0.5005 
     28 O          22.8495  -28.1509  -41.9730 O.2       3 UNK        -0.5279 
     29 N          21.7343  -26.2700  -41.3736 N.am      4 UNK        -0.4463 
     30 CA         21.6614  -26.4459  -39.9152 C.3       4 UNK         0.0283 
     31 CB         20.6296  -25.4502  -39.3535 C.3       4 UNK        -0.1875 
     32 C          23.0155  -26.3704  -39.1719 C.2       4 UNK         0.4949 
     33 O          23.0863  -25.8273  -38.0689 O.2       4 UNK        -0.5039 
     34 N          24.0579  -26.9301  -39.7870 N.am      5 UNK        -0.4663 
     35 CA         25.4284  -27.0629  -39.2957 C.3       5 UNK         0.0242 
     36 CB         26.1154  -25.6909  -39.1399 C.3       5 UNK        -0.1982 
     37 C          26.2193  -27.9545  -40.2598 C.2       5 UNK         0.5017 
     38 O          26.9517  -28.8355  -39.8105 O.2       5 UNK        -0.5012 
     39 N          26.0376  -27.7160  -41.5686 N.am      6 UNK        -0.4439 
     40 CA         26.6548  -28.4712  -42.6618 C.3       6 UNK         0.0297 
     41 CB         26.3960  -27.7446  -43.9922 C.3       6 UNK        -0.2006 
     42 C          26.1718  -29.9293  -42.7465 C.2       6 UNK         0.4892 
     43 O          26.9847  -30.8141  -43.0174 O.2       6 UNK        -0.5089 
     44 N          24.8710  -30.1452  -42.5144 N.am      7 UNK        -0.4243 
     45 CA         24.2327  -31.4619  -42.4942 C.3       7 UNK         0.0196 
     46 CB         23.2246  -31.5615  -43.6491 C.3       7 UNK        -0.2007 
     47 C          23.5242  -31.7109  -41.1588 C.2       7 UNK         0.5020 
     48 O          23.5994  -32.8254  -40.6405 O.2       7 UNK        -0.5147 
     49 N          22.8377  -30.6825  -40.6364 N.am      8 UNK        -0.4734 
     50 CA         22.0067  -30.6567  -39.4239 C.3       8 UNK         0.0238 
     51 CB         22.8229  -30.9803  -38.1569 C.3       8 UNK        -0.1912 
     52 C          20.7290  -31.5107  -39.5238 C.2       8 UNK         0.5038 
     53 O          19.6417  -30.9635  -39.3404 O.2       8 UNK        -0.5046 
     54 N          20.8974  -32.8047  -39.8319 N.am      9 UNK        -0.4200 
     55 CA         19.8796  -33.8481  -40.0472 C.3       9 UNK         0.0839 
     56 C          18.6841  -33.8336  -39.0463 C.2       9 UNK         0.5513 
     57 N          17.4446  -33.9546  -39.5035 N.am      9 UNK        -0.7519 
     58 O          18.8878  -33.7818  -37.8350 O.2       9 UNK        -0.4960 
     59 C59        19.5254  -34.0485  -41.5520 C.3       10 UNK        -0.0876 
     60 S60        18.8174  -32.5870  -42.3827 S.3       10 UNK        -0.2414 
     61 C61        18.9864  -33.0660  -44.1271 C.3       10 UNK         0.0169 
     62 H62        18.3846  -29.7111  -41.5839 H         1 UNK         0.0903 
     63 H63        19.1934  -29.7296  -43.1536 H         1 UNK         0.0903 
     64 H64        19.8772  -28.8093  -41.8135 H         1 UNK         0.0903 
     65 H65        17.5458  -28.7937  -44.4291 H         1 UNK         0.3096 
     66 H66        15.7327  -26.8697  -43.6652 H         1 UNK         0.1121 
     67 H67        16.6854  -27.3710  -46.5335 H         1 UNK         0.0849 
     68 H68        15.1725  -26.6443  -46.0647 H         1 UNK         0.0849 
     69 H69        15.5212  -30.8648  -47.1286 H         1 UNK         0.0865 
     70 H70        16.1636  -29.3997  -47.8113 H         1 UNK         0.0865 
     71 H71        16.6974  -31.9449  -45.1168 H         1 UNK         0.1346 
     72 H72        20.9612  -31.5633  -45.2266 H         1 UNK         0.1412 
     73 H73        18.5252  -28.8969  -47.5284 H         1 UNK         0.1426 
     74 H74        21.0539  -29.4513  -48.0643 H         1 UNK         0.0716 
     75 H75        22.0182  -30.0917  -46.7608 H         1 UNK         0.0716 
     76 H76        22.8193  -28.6364  -44.6160 H         1 UNK         0.0695 
     77 H77        21.1311  -28.7671  -44.1880 H         1 UNK         0.0695 
     78 H78        22.8757  -26.2523  -44.1041 H         1 UNK         0.0983 
     79 H79        19.9558  -26.2990  -43.4942 H         1 UNK         0.3095 
     80 H80        19.0161  -23.6763  -44.1045 H         1 UNK         0.0454 
     81 H81        19.5206  -24.1203  -47.1039 H         1 UNK         0.0851 
     82 H82        19.8357  -22.6367  -46.2126 H         1 UNK         0.0851 
     83 H83        18.1838  -23.1876  -46.4313 H         1 UNK         0.0851 
     84 H84        18.8222  -26.3418  -45.3116 H         1 UNK         0.2976 
     85 H85        21.2982  -25.4315  -41.7296 H         1 UNK         0.3116 
     86 H86        21.2667  -27.4453  -39.7330 H         1 UNK         0.0646 
     87 H87        19.6615  -25.5626  -39.8426 H         1 UNK         0.0847 
     88 H88        20.9554  -24.4174  -39.4819 H         1 UNK         0.0847 
     89 H89        20.4659  -25.6107  -38.2869 H         1 UNK         0.0847 
     90 H90        23.8438  -27.4226  -40.6508 H         1 UNK         0.3040 
     91 H91        25.3986  -27.5607  -38.3240 H         1 UNK         0.1015 
     92 H92        26.0939  -25.1188  -40.0680 H         1 UNK         0.0786 
     93 H93        27.1610  -25.8091  -38.8522 H         1 UNK         0.0786 
     94 H94        25.6401  -25.0884  -38.3661 H         1 UNK         0.0786 
     95 H95        25.4587  -26.9330  -41.8329 H         1 UNK         0.3172 
     96 H96        27.7327  -28.4881  -42.4868 H         1 UNK         0.0595 
     97 H97        25.3309  -27.6712  -44.2157 H         1 UNK         0.0839 
     98 H98        26.8653  -28.2749  -44.8222 H         1 UNK         0.0839 
     99 H99        26.8089  -26.7357  -43.9821 H         1 UNK         0.0839 
    100 H100       24.2774  -29.3495  -42.3033 H         1 UNK         0.2998 
    101 H101       24.9771  -32.2512  -42.6193 H         1 UNK         0.0822 
    102 H102       23.7055  -31.3945  -44.6130 H         1 UNK         0.0787 
    103 H103       22.7646  -32.5503  -43.6795 H         1 UNK         0.0787 
    104 H104       22.4222  -30.8318  -43.5407 H         1 UNK         0.0787 
    105 H105       22.8070  -29.8215  -41.1763 H         1 UNK         0.3055 
    106 H106       21.6711  -29.6254  -39.3246 H         1 UNK         0.1106 
    107 H107       23.1994  -32.0032  -38.1560 H         1 UNK         0.0828 
    108 H108       22.2108  -30.8621  -37.2619 H         1 UNK         0.0828 
    109 H109       23.6765  -30.3097  -38.0565 H         1 UNK         0.0828 
    110 H110       21.8587  -33.0974  -39.9826 H         1 UNK         0.2931 
    111 H111       20.4054  -34.7618  -39.7668 H         1 UNK         0.0412 
    112 H112       16.6766  -33.9695  -38.8507 H         1 UNK         0.3472 
    113 H113       17.2653  -33.9693  -40.4955 H         1 UNK         0.3472 
    114 H114       18.8513  -34.8965  -41.6835 H         1 UNK         0.0970 
    115 H115       20.4371  -34.3247  -42.0839 H         1 UNK         0.0970 
    116 H116       19.9565  -33.5398  -44.2846 H         1 UNK         0.0612 
    117 H117       18.2335  -33.8180  -44.3679 H         1 UNK         0.0612 
@<TRIPOS>BOND
     1    1    2 1    
     2    1   62 1    
     3    1   63 1    
     4    1   64 1    
     5    2    3 2    
     6    2    4 am   BACKBONE|DICT|INTERRES
     7    4    5 1    
     8    4   65 1    
     9    5    6 1    
    10    5   25 1    
    11    5   66 1    
    12    6    7 1    
    13    6   67 1    
    14    6   68 1    
    15    7    8 1    
    16    8    9 1    
    17    8   69 1    
    18    8   70 1    
    19    9   10 ar   
    20    9   14 ar   
    21   10   11 ar   
    22   10   71 1    
    23   11   12 ar   
    24   11   61 1    
    25   12   13 ar   
    26   12   72 1    
    27   13   14 ar   
    28   13   15 1    
    29   14   73 1    
    30   15   16 1    
    31   15   74 1    
    32   15   75 1    
    33   16   17 1    
    34   17   18 1    
    35   17   76 1    
    36   17   77 1    
    37   18   19 1    
    38   18   27 1    
    39   18   78 1    
    40   19   20 am   BACKBONE|DICT|INTERRES
    41   19   79 1    
    42   20   21 2    
    43   20   22 1    
    44   22   23 1    
    45   22   24 1    
    46   22   80 1    
    47   23   81 1    
    48   23   82 1    
    49   23   83 1    
    50   24   25 am   BACKBONE|DICT|INTERRES
    51   24   84 1    
    52   25   26 2    
    53   27   28 2    
    54   27   29 am   BACKBONE|DICT|INTERRES
    55   29   30 1    
    56   29   85 1    
    57   30   31 1    
    58   30   32 1    
    59   30   86 1    
    60   31   87 1    
    61   31   88 1    
    62   31   89 1    
    63   32   33 2    
    64   32   34 am   BACKBONE|DICT|INTERRES
    65   34   35 1    
    66   34   90 1    
    67   35   36 1    
    68   35   37 1    
    69   35   91 1    
    70   36   92 1    
    71   36   93 1    
    72   36   94 1    
    73   37   38 2    
    74   37   39 am   BACKBONE|DICT|INTERRES
    75   39   40 1    
    76   39   95 1    
    77   40   41 1    
    78   40   42 1    
    79   40   96 1    
    80   41   97 1    
    81   41   98 1    
    82   41   99 1    
    83   42   43 2    
    84   42   44 am   BACKBONE|DICT|INTERRES
    85   44   45 1    
    86   44  100 1    
    87   45   46 1    
    88   45   47 1    
    89   45  101 1    
    90   46  102 1    
    91   46  103 1    
    92   46  104 1    
    93   47   48 2    
    94   47   49 am   BACKBONE|DICT|INTERRES
    95   49   50 1    
    96   49  105 1    
    97   50   51 1    
    98   50   52 1    
    99   50  106 1    
   100   51  107 1    
   101   51  108 1    
   102   51  109 1    
   103   52   53 2    
   104   52   54 am   BACKBONE|DICT|INTERRES
   105   54   55 1    
   106   54  110 1    
   107   55   56 1    
   108   55   59 1    
   109   55  111 1    
   110   56   57 am   BACKBONE|DICT|INTERRES
   111   56   58 2    
   112   57  112 1    
   113   57  113 1    
   114   59   60 1    
   115   59  114 1    
   116   59  115 1    
   117   60   61 1    
   118   61  116 1    
   119   61  117 1    
@<TRIPOS>SUBSTRUCTURE
     1 UNK         1 GROUP             0       ****    0 ROOT    
