@<TRIPOS>MOLECULE
3R8
117   119    1
SMALL
USER_CHARGES


@<TRIPOS>ATOM
      1 CA         11.6814  -25.0294  -46.6295 C.3       0 UNK        -0.2013 
      2 C          13.0424  -25.6741  -46.8460 C.2       0 UNK         0.4866 
      3 O          13.5190  -25.7338  -47.9802 O.2       0 UNK        -0.5176 
      4 N          13.6666  -26.1662  -45.7695 N.am      1 UNK        -0.4884 
      5 CA         15.0102  -26.7526  -45.7721 C.3       1 UNK         0.0853 
      6 C6         15.2644  -27.6459  -44.5235 C.3       10 UNK        -0.0849 
      7 S7         14.7718  -26.9206  -42.9140 S.3       10 UNK        -0.2776 
      8 C8         16.2709  -26.0245  -42.3624 C.3       10 UNK         0.0316 
      9 C9         17.4070  -26.8617  -41.7677 C.ar      10 UNK        -0.0863 
     10 C10        17.4770  -28.2581  -41.8756 C.ar      10 UNK        -0.1009 
     11 C11        18.5583  -28.9610  -41.3358 C.ar      10 UNK        -0.0712 
     12 C12        19.5586  -28.2697  -40.6527 C.ar      10 UNK        -0.0894 
     13 C13        19.5194  -26.8782  -40.5557 C.ar      10 UNK        -0.0745 
     14 C14        18.4403  -26.1833  -41.1098 C.ar      10 UNK        -0.0972 
     15 C15        20.6694  -26.1300  -39.8965 C.3       10 UNK         0.0209 
     16 S16        22.2074  -26.2640  -40.8712 S.3       10 UNK        -0.2568 
     17 C17        21.7438  -25.4093  -42.4135 C.3       10 UNK        -0.0983 
     18 CA         21.2265  -26.3853  -43.5020 C.3       3 UNK         0.0876 
     19 N          20.3158  -25.7058  -44.4264 N.am      3 UNK        -0.4424 
     20 C          19.4721  -26.3389  -45.2477 C.2       2 UNK         0.4918 
     21 O          19.3686  -27.5666  -45.3214 O.2       2 UNK        -0.4875 
     22 CA         18.5825  -25.4574  -46.1336 C.3       2 UNK         0.0481 
     23 CB         19.2207  -25.2501  -47.5162 C.3       2 UNK        -0.1831 
     24 N          17.3128  -26.1596  -46.2812 N.am      2 UNK        -0.4498 
     25 C          16.1150  -25.6865  -45.9247 C.2       1 UNK         0.5027 
     26 O          15.8914  -24.5030  -45.6539 O.2       1 UNK        -0.4969 
     27 C          22.3739  -27.0774  -44.2653 C.2       3 UNK         0.5005 
     28 O          22.8656  -26.5244  -45.2539 O.2       3 UNK        -0.5279 
     29 N          22.7812  -28.2622  -43.7959 N.am      4 UNK        -0.4463 
     30 CA         23.8197  -29.0875  -44.4039 C.3       4 UNK         0.0283 
     31 CB         23.1703  -30.0977  -45.3655 C.3       4 UNK        -0.1875 
     32 C          24.6050  -29.8175  -43.3118 C.2       4 UNK         0.4949 
     33 O          24.0349  -30.1520  -42.2697 O.2       4 UNK        -0.5039 
     34 N          25.8932  -30.0631  -43.5948 N.am      5 UNK        -0.4663 
     35 CA         26.8515  -30.8633  -42.8163 C.3       5 UNK         0.0242 
     36 CB         26.5014  -32.3597  -42.9421 C.3       5 UNK        -0.1982 
     37 C          27.0244  -30.4148  -41.3501 C.2       5 UNK         0.5017 
     38 O          27.2352  -31.2559  -40.4760 O.2       5 UNK        -0.5012 
     39 N          26.9299  -29.0967  -41.1140 N.am      6 UNK        -0.4439 
     40 CA         26.9314  -28.4356  -39.8015 C.3       6 UNK         0.0297 
     41 CB         28.3043  -28.5719  -39.1075 C.3       6 UNK        -0.2006 
     42 C          25.7526  -28.8982  -38.9199 C.2       6 UNK         0.4892 
     43 O          25.9484  -29.2517  -37.7557 O.2       6 UNK        -0.5089 
     44 N          24.5532  -28.8780  -39.5188 N.am      7 UNK        -0.4243 
     45 CA         23.2618  -29.2997  -38.9702 C.3       7 UNK         0.0196 
     46 CB         22.8740  -28.4741  -37.7240 C.3       7 UNK        -0.2007 
     47 C          23.1917  -30.8199  -38.7484 C.2       7 UNK         0.5020 
     48 O          22.8640  -31.2738  -37.6505 O.2       7 UNK        -0.5147 
     49 N          23.4882  -31.5810  -39.8075 N.am      8 UNK        -0.4734 
     50 CA         23.4438  -33.0433  -39.8209 C.3       8 UNK         0.0238 
     51 CB         24.8205  -33.6158  -39.4306 C.3       8 UNK        -0.1912 
     52 C          22.9427  -33.5330  -41.1867 C.2       8 UNK         0.5038 
     53 O          23.6334  -34.3026  -41.8569 O.2       8 UNK        -0.5046 
     54 N          21.7552  -33.0526  -41.5800 N.am      9 UNK        -0.4200 
     55 CA         21.0591  -33.3956  -42.8312 C.3       9 UNK         0.0839 
     56 C          20.8361  -34.9231  -43.0157 C.2       9 UNK         0.5513 
     57 N          20.9940  -35.4323  -44.2297 N.am      9 UNK        -0.7519 
     58 O          20.4716  -35.6336  -42.0807 O.2       9 UNK        -0.4960 
     59 C59        19.7011  -32.6561  -42.9525 C.3       10 UNK        -0.0876 
     60 S60        19.8545  -30.8413  -42.8608 S.3       10 UNK        -0.2414 
     61 C61        18.6785  -30.4630  -41.5237 C.3       10 UNK         0.0169 
     62 H62        11.3800  -25.0550  -45.5825 H         1 UNK         0.0903 
     63 H63        11.7049  -23.9881  -46.9499 H         1 UNK         0.0903 
     64 H64        10.9223  -25.5490  -47.2136 H         1 UNK         0.0903 
     65 H65        13.2490  -26.0665  -44.8543 H         1 UNK         0.3096 
     66 H66        15.0795  -27.3955  -46.6533 H         1 UNK         0.1121 
     67 H67        14.6867  -28.5646  -44.6362 H         1 UNK         0.0849 
     68 H68        16.3037  -27.9756  -44.4789 H         1 UNK         0.0849 
     69 H69        15.9477  -25.3076  -41.6060 H         1 UNK         0.0865 
     70 H70        16.6684  -25.4276  -43.1819 H         1 UNK         0.0865 
     71 H71        16.7059  -28.8110  -42.3903 H         1 UNK         0.1346 
     72 H72        20.3929  -28.8148  -40.2390 H         1 UNK         0.1412 
     73 H73        18.4115  -25.1041  -41.0411 H         1 UNK         0.1426 
     74 H74        20.8395  -26.5414  -38.9012 H         1 UNK         0.0716 
     75 H75        20.4226  -25.0768  -39.7540 H         1 UNK         0.0716 
     76 H76        22.5976  -24.8304  -42.7712 H         1 UNK         0.0695 
     77 H77        20.9769  -24.6737  -42.1653 H         1 UNK         0.0695 
     78 H78        20.6381  -27.1696  -43.0226 H         1 UNK         0.0983 
     79 H79        20.3768  -24.6990  -44.4594 H         1 UNK         0.3095 
     80 H80        18.4416  -24.4890  -45.6487 H         1 UNK         0.0454 
     81 H81        19.4068  -26.1981  -48.0227 H         1 UNK         0.0851 
     82 H82        20.1771  -24.7325  -47.4313 H         1 UNK         0.0851 
     83 H83        18.5806  -24.6468  -48.1600 H         1 UNK         0.0851 
     84 H84        17.4188  -27.1563  -46.4231 H         1 UNK         0.2976 
     85 H85        22.3804  -28.6400  -42.9466 H         1 UNK         0.3116 
     86 H86        24.5150  -28.4559  -44.9612 H         1 UNK         0.0646 
     87 H87        22.4668  -30.7501  -44.8459 H         1 UNK         0.0847 
     88 H88        23.9213  -30.7343  -45.8348 H         1 UNK         0.0847 
     89 H89        22.6278  -29.5922  -46.1645 H         1 UNK         0.0847 
     90 H90        26.2497  -29.7156  -44.4754 H         1 UNK         0.3040 
     91 H91        27.8275  -30.7171  -43.2823 H         1 UNK         0.1015 
     92 H92        25.5374  -32.5793  -42.4861 H         1 UNK         0.0786 
     93 H93        27.2469  -32.9876  -42.4524 H         1 UNK         0.0786 
     94 H94        26.4544  -32.6707  -43.9855 H         1 UNK         0.0786 
     95 H95        26.7647  -28.4969  -41.9105 H         1 UNK         0.3172 
     96 H96        26.7688  -27.3737  -39.9932 H         1 UNK         0.0595 
     97 H97        28.3368  -27.9802  -38.1919 H         1 UNK         0.0839 
     98 H98        29.1111  -28.2188  -39.7495 H         1 UNK         0.0839 
     99 H99        28.5219  -29.6040  -38.8315 H         1 UNK         0.0839 
    100 H100       24.5325  -28.6330  -40.4994 H         1 UNK         0.2998 
    101 H101       22.5340  -29.0779  -39.7487 H         1 UNK         0.0822 
    102 H102       21.8449  -28.6807  -37.4279 H         1 UNK         0.0787 
    103 H103       23.5087  -28.7038  -36.8678 H         1 UNK         0.0787 
    104 H104       22.9496  -27.4043  -37.9174 H         1 UNK         0.0787 
    105 H105       23.7292  -31.1288  -40.6895 H         1 UNK         0.3055 
    106 H106       22.7145  -33.3956  -39.0876 H         1 UNK         0.1106 
    107 H107       24.7951  -34.7055  -39.3954 H         1 UNK         0.0828 
    108 H108       25.5924  -33.3303  -40.1446 H         1 UNK         0.0828 
    109 H109       25.1319  -33.2659  -38.4464 H         1 UNK         0.0828 
    110 H110       21.2722  -32.4087  -40.9728 H         1 UNK         0.2931 
    111 H111       21.7039  -33.0496  -43.6417 H         1 UNK         0.0412 
    112 H112       21.2817  -34.8543  -45.0044 H         1 UNK         0.3472 
    113 H113       20.8362  -36.4179  -44.3727 H         1 UNK         0.3472 
    114 H114       19.2270  -32.8915  -43.9075 H         1 UNK         0.0970 
    115 H115       19.0107  -33.0069  -42.1829 H         1 UNK         0.0970 
    116 H116       19.0142  -30.9296  -40.5963 H         1 UNK         0.0612 
    117 H117       17.7054  -30.8963  -41.7608 H         1 UNK         0.0612 
@<TRIPOS>BOND
     1    1    2 1    
     2    1   62 1    
     3    1   63 1    
     4    1   64 1    
     5    2    3 2    
     6    2    4 am   BACKBONE|DICT|INTERRES
     7    4    5 1    
     8    4   65 1    
     9    5    6 1    
    10    5   25 1    
    11    5   66 1    
    12    6    7 1    
    13    6   67 1    
    14    6   68 1    
    15    7    8 1    
    16    8    9 1    
    17    8   69 1    
    18    8   70 1    
    19    9   10 ar   
    20    9   14 ar   
    21   10   11 ar   
    22   10   71 1    
    23   11   12 ar   
    24   11   61 1    
    25   12   13 ar   
    26   12   72 1    
    27   13   14 ar   
    28   13   15 1    
    29   14   73 1    
    30   15   16 1    
    31   15   74 1    
    32   15   75 1    
    33   16   17 1    
    34   17   18 1    
    35   17   76 1    
    36   17   77 1    
    37   18   19 1    
    38   18   27 1    
    39   18   78 1    
    40   19   20 am   BACKBONE|DICT|INTERRES
    41   19   79 1    
    42   20   21 2    
    43   20   22 1    
    44   22   23 1    
    45   22   24 1    
    46   22   80 1    
    47   23   81 1    
    48   23   82 1    
    49   23   83 1    
    50   24   25 am   BACKBONE|DICT|INTERRES
    51   24   84 1    
    52   25   26 2    
    53   27   28 2    
    54   27   29 am   BACKBONE|DICT|INTERRES
    55   29   30 1    
    56   29   85 1    
    57   30   31 1    
    58   30   32 1    
    59   30   86 1    
    60   31   87 1    
    61   31   88 1    
    62   31   89 1    
    63   32   33 2    
    64   32   34 am   BACKBONE|DICT|INTERRES
    65   34   35 1    
    66   34   90 1    
    67   35   36 1    
    68   35   37 1    
    69   35   91 1    
    70   36   92 1    
    71   36   93 1    
    72   36   94 1    
    73   37   38 2    
    74   37   39 am   BACKBONE|DICT|INTERRES
    75   39   40 1    
    76   39   95 1    
    77   40   41 1    
    78   40   42 1    
    79   40   96 1    
    80   41   97 1    
    81   41   98 1    
    82   41   99 1    
    83   42   43 2    
    84   42   44 am   BACKBONE|DICT|INTERRES
    85   44   45 1    
    86   44  100 1    
    87   45   46 1    
    88   45   47 1    
    89   45  101 1    
    90   46  102 1    
    91   46  103 1    
    92   46  104 1    
    93   47   48 2    
    94   47   49 am   BACKBONE|DICT|INTERRES
    95   49   50 1    
    96   49  105 1    
    97   50   51 1    
    98   50   52 1    
    99   50  106 1    
   100   51  107 1    
   101   51  108 1    
   102   51  109 1    
   103   52   53 2    
   104   52   54 am   BACKBONE|DICT|INTERRES
   105   54   55 1    
   106   54  110 1    
   107   55   56 1    
   108   55   59 1    
   109   55  111 1    
   110   56   57 am   BACKBONE|DICT|INTERRES
   111   56   58 2    
   112   57  112 1    
   113   57  113 1    
   114   59   60 1    
   115   59  114 1    
   116   59  115 1    
   117   60   61 1    
   118   61  116 1    
   119   61  117 1    
@<TRIPOS>SUBSTRUCTURE
     1 UNK         1 GROUP             0       ****    0 ROOT    
