@<TRIPOS>MOLECULE
3R8
117   119    1
SMALL
USER_CHARGES


@<TRIPOS>ATOM
      1 CA         14.9009  -22.2863  -47.0503 C.3       0 UNK        -0.2013 
      2 C          15.7484  -23.0598  -46.0512 C.2       0 UNK         0.4866 
      3 O          16.5394  -22.4539  -45.3284 O.2       0 UNK        -0.5176 
      4 N          15.5817  -24.3894  -46.0073 N.am      1 UNK        -0.4884 
      5 CA         16.3134  -25.3442  -45.1676 C.3       1 UNK         0.0853 
      6 C6         16.0715  -25.1304  -43.6446 C.3       10 UNK        -0.0849 
      7 S7         16.8220  -26.4145  -42.5855 S.3       10 UNK        -0.2776 
      8 C8         15.6690  -27.8040  -42.8117 C.3       10 UNK         0.0316 
      9 C9         16.4214  -29.0553  -43.2345 C.ar      10 UNK        -0.0863 
     10 C10        16.7433  -30.0353  -42.2905 C.ar      10 UNK        -0.1009 
     11 C11        17.4444  -31.1834  -42.6701 C.ar      10 UNK        -0.0712 
     12 C12        17.8112  -31.3521  -44.0081 C.ar      10 UNK        -0.0894 
     13 C13        17.5305  -30.3607  -44.9537 C.ar      10 UNK        -0.0745 
     14 C14        16.8167  -29.2250  -44.5654 C.ar      10 UNK        -0.0972 
     15 C15        18.0443  -30.4979  -46.3823 C.3       10 UNK         0.0209 
     16 S16        19.3715  -29.3014  -46.7787 S.3       10 UNK        -0.2568 
     17 C17        20.5701  -29.5540  -45.4202 C.3       10 UNK        -0.0983 
     18 CA         21.2410  -28.2700  -44.8455 C.3       3 UNK         0.0876 
     19 N          20.4933  -27.0159  -45.0555 N.am      3 UNK        -0.4424 
     20 C          20.9748  -25.7944  -44.7717 C.2       2 UNK         0.4918 
     21 O          22.0701  -25.6112  -44.2398 O.2       2 UNK        -0.4875 
     22 CA         20.1234  -24.5565  -45.1078 C.3       2 UNK         0.0481 
     23 CB         20.4496  -24.0279  -46.5181 C.3       2 UNK        -0.1831 
     24 N          18.6779  -24.7031  -44.8998 N.am      2 UNK        -0.4498 
     25 C          17.7935  -25.4249  -45.6004 C.2       1 UNK         0.5027 
     26 O          18.0958  -26.1401  -46.5550 O.2       1 UNK        -0.4969 
     27 C          21.6066  -28.4909  -43.3622 C.2       3 UNK         0.5005 
     28 O          22.7100  -28.9481  -43.0661 O.2       3 UNK        -0.5279 
     29 N          20.6858  -28.1118  -42.4620 N.am      4 UNK        -0.4463 
     30 CA         20.7933  -28.2154  -41.0023 C.3       4 UNK         0.0283 
     31 CB         19.4472  -27.8175  -40.3766 C.3       4 UNK        -0.1875 
     32 C          21.9474  -27.4184  -40.3610 C.2       4 UNK         0.4949 
     33 O          22.2004  -27.5958  -39.1692 O.2       4 UNK        -0.5039 
     34 N          22.6366  -26.5691  -41.1377 N.am      5 UNK        -0.4663 
     35 CA         23.8952  -25.9326  -40.7443 C.3       5 UNK         0.0242 
     36 CB         24.2287  -24.8116  -41.7412 C.3       5 UNK        -0.1982 
     37 C          25.0646  -26.9327  -40.6444 C.2       5 UNK         0.5017 
     38 O          26.0074  -26.6712  -39.8958 O.2       5 UNK        -0.5012 
     39 N          24.9899  -28.0492  -41.3841 N.am      6 UNK        -0.4439 
     40 CA         25.9309  -29.1647  -41.2972 C.3       6 UNK         0.0297 
     41 CB         26.0027  -29.8677  -42.6619 C.3       6 UNK        -0.2006 
     42 C          25.4901  -30.1513  -40.2048 C.2       6 UNK         0.4892 
     43 O          24.2957  -30.2587  -39.9120 O.2       6 UNK        -0.5089 
     44 N          26.4652  -30.8780  -39.6411 N.am      7 UNK        -0.4243 
     45 CA         26.2592  -31.9157  -38.6266 C.3       7 UNK         0.0196 
     46 CB         27.6209  -32.4589  -38.1642 C.3       7 UNK        -0.2007 
     47 C          25.3707  -33.0514  -39.1590 C.2       7 UNK         0.5020 
     48 O          25.6657  -33.6010  -40.2225 O.2       7 UNK        -0.5147 
     49 N          24.2801  -33.3419  -38.4346 N.am      8 UNK        -0.4734 
     50 CA         23.2163  -34.2972  -38.7871 C.3       8 UNK         0.0238 
     51 CB         23.7431  -35.7461  -38.7025 C.3       8 UNK        -0.1912 
     52 C          22.5339  -33.9930  -40.1403 C.2       8 UNK         0.5038 
     53 O          22.0611  -34.9164  -40.8055 O.2       8 UNK        -0.5046 
     54 N          22.5169  -32.7085  -40.5245 N.am      9 UNK        -0.4200 
     55 CA         22.0757  -32.1877  -41.8271 C.3       9 UNK         0.0839 
     56 C          23.0121  -32.5620  -43.0176 C.2       9 UNK         0.5513 
     57 N          24.2260  -33.0526  -42.7901 N.am      9 UNK        -0.7519 
     58 O          22.6417  -32.3890  -44.1759 O.2       9 UNK        -0.4960 
     59 C59        20.5770  -32.4589  -42.1455 C.3       10 UNK        -0.0876 
     60 S60        19.4263  -31.8756  -40.8543 S.3       10 UNK        -0.2414 
     61 C61        17.8161  -32.2316  -41.6304 C.3       10 UNK         0.0169 
     62 H62        15.5420  -21.7583  -47.7557 H         1 UNK         0.0903 
     63 H63        14.2381  -22.9394  -47.6176 H         1 UNK         0.0903 
     64 H64        14.2877  -21.5504  -46.5307 H         1 UNK         0.0903 
     65 H65        14.9293  -24.8125  -46.6540 H         1 UNK         0.3096 
     66 H66        15.8844  -26.3131  -45.4213 H         1 UNK         0.1121 
     67 H67        14.9996  -25.1021  -43.4423 H         1 UNK         0.0849 
     68 H68        16.4501  -24.1614  -43.3171 H         1 UNK         0.0849 
     69 H69        15.1326  -27.9748  -41.8769 H         1 UNK         0.0865 
     70 H70        14.9076  -27.5666  -43.5556 H         1 UNK         0.0865 
     71 H71        16.4597  -29.9002  -41.2555 H         1 UNK         0.1346 
     72 H72        18.3552  -32.2377  -44.3061 H         1 UNK         0.1412 
     73 H73        16.5998  -28.4639  -45.3001 H         1 UNK         0.1426 
     74 H74        18.4189  -31.5069  -46.5615 H         1 UNK         0.0716 
     75 H75        17.2172  -30.3513  -47.0782 H         1 UNK         0.0716 
     76 H76        21.3456  -30.2292  -45.7861 H         1 UNK         0.0695 
     77 H77        20.0808  -30.1143  -44.6269 H         1 UNK         0.0695 
     78 H78        22.1855  -28.1391  -45.3785 H         1 UNK         0.0983 
     79 H79        19.6100  -27.0877  -45.5500 H         1 UNK         0.3095 
     80 H80        20.4259  -23.7815  -44.4017 H         1 UNK         0.0454 
     81 H81        20.2161  -24.7567  -47.2945 H         1 UNK         0.0851 
     82 H82        21.5110  -23.7932  -46.6075 H         1 UNK         0.0851 
     83 H83        19.8965  -23.1145  -46.7370 H         1 UNK         0.0851 
     84 H84        18.3047  -24.1557  -44.1364 H         1 UNK         0.2976 
     85 H85        19.8185  -27.7339  -42.8169 H         1 UNK         0.3116 
     86 H86        20.9773  -29.2646  -40.7671 H         1 UNK         0.0646 
     87 H87        18.6356  -28.4395  -40.7531 H         1 UNK         0.0847 
     88 H88        19.4663  -27.9396  -39.2929 H         1 UNK         0.0847 
     89 H89        19.1992  -26.7758  -40.5832 H         1 UNK         0.0847 
     90 H90        22.3595  -26.4644  -42.1060 H         1 UNK         0.3040 
     91 H91        23.7591  -25.4862  -39.7567 H         1 UNK         0.1015 
     92 H92        24.3908  -25.2020  -42.7469 H         1 UNK         0.0786 
     93 H93        25.1367  -24.2842  -41.4458 H         1 UNK         0.0786 
     94 H94        23.4274  -24.0742  -41.7937 H         1 UNK         0.0786 
     95 H95        24.1440  -28.2269  -41.9204 H         1 UNK         0.3172 
     96 H96        26.9256  -28.7863  -41.0520 H         1 UNK         0.0595 
     97 H97        25.0331  -30.2655  -42.9616 H         1 UNK         0.0839 
     98 H98        26.7024  -30.7041  -42.6386 H         1 UNK         0.0839 
     99 H99        26.3379  -29.1849  -43.4427 H         1 UNK         0.0839 
    100 H100       27.4124  -30.7518  -39.9672 H         1 UNK         0.2998 
    101 H101       25.7677  -31.4470  -37.7712 H         1 UNK         0.0822 
    102 H102       27.4948  -33.2216  -37.3945 H         1 UNK         0.0787 
    103 H103       28.1737  -32.9152  -38.9867 H         1 UNK         0.0787 
    104 H104       28.2409  -31.6697  -37.7385 H         1 UNK         0.0787 
    105 H105       24.1218  -32.8148  -37.5857 H         1 UNK         0.3055 
    106 H106       22.4362  -34.1853  -38.0322 H         1 UNK         0.1106 
    107 H107       22.9331  -36.4663  -38.8248 H         1 UNK         0.0828 
    108 H108       24.4813  -35.9539  -39.4779 H         1 UNK         0.0828 
    109 H109       24.2063  -35.9450  -37.7362 H         1 UNK         0.0828 
    110 H110       22.9767  -32.0244  -39.9357 H         1 UNK         0.2931 
    111 H111       22.1847  -31.1094  -41.7285 H         1 UNK         0.0412 
    112 H112       24.5660  -33.2093  -41.8472 H         1 UNK         0.3472 
    113 H113       24.8123  -33.2844  -43.5754 H         1 UNK         0.3472 
    114 H114       20.4044  -33.5218  -42.3199 H         1 UNK         0.0970 
    115 H115       20.3144  -31.9524  -43.0729 H         1 UNK         0.0970 
    116 H116       17.0532  -32.2622  -40.8512 H         1 UNK         0.0612 
    117 H117       17.8335  -33.2268  -42.0774 H         1 UNK         0.0612 
@<TRIPOS>BOND
     1    1    2 1    
     2    1   62 1    
     3    1   63 1    
     4    1   64 1    
     5    2    3 2    
     6    2    4 am   BACKBONE|DICT|INTERRES
     7    4    5 1    
     8    4   65 1    
     9    5    6 1    
    10    5   25 1    
    11    5   66 1    
    12    6    7 1    
    13    6   67 1    
    14    6   68 1    
    15    7    8 1    
    16    8    9 1    
    17    8   69 1    
    18    8   70 1    
    19    9   10 ar   
    20    9   14 ar   
    21   10   11 ar   
    22   10   71 1    
    23   11   12 ar   
    24   11   61 1    
    25   12   13 ar   
    26   12   72 1    
    27   13   14 ar   
    28   13   15 1    
    29   14   73 1    
    30   15   16 1    
    31   15   74 1    
    32   15   75 1    
    33   16   17 1    
    34   17   18 1    
    35   17   76 1    
    36   17   77 1    
    37   18   19 1    
    38   18   27 1    
    39   18   78 1    
    40   19   20 am   BACKBONE|DICT|INTERRES
    41   19   79 1    
    42   20   21 2    
    43   20   22 1    
    44   22   23 1    
    45   22   24 1    
    46   22   80 1    
    47   23   81 1    
    48   23   82 1    
    49   23   83 1    
    50   24   25 am   BACKBONE|DICT|INTERRES
    51   24   84 1    
    52   25   26 2    
    53   27   28 2    
    54   27   29 am   BACKBONE|DICT|INTERRES
    55   29   30 1    
    56   29   85 1    
    57   30   31 1    
    58   30   32 1    
    59   30   86 1    
    60   31   87 1    
    61   31   88 1    
    62   31   89 1    
    63   32   33 2    
    64   32   34 am   BACKBONE|DICT|INTERRES
    65   34   35 1    
    66   34   90 1    
    67   35   36 1    
    68   35   37 1    
    69   35   91 1    
    70   36   92 1    
    71   36   93 1    
    72   36   94 1    
    73   37   38 2    
    74   37   39 am   BACKBONE|DICT|INTERRES
    75   39   40 1    
    76   39   95 1    
    77   40   41 1    
    78   40   42 1    
    79   40   96 1    
    80   41   97 1    
    81   41   98 1    
    82   41   99 1    
    83   42   43 2    
    84   42   44 am   BACKBONE|DICT|INTERRES
    85   44   45 1    
    86   44  100 1    
    87   45   46 1    
    88   45   47 1    
    89   45  101 1    
    90   46  102 1    
    91   46  103 1    
    92   46  104 1    
    93   47   48 2    
    94   47   49 am   BACKBONE|DICT|INTERRES
    95   49   50 1    
    96   49  105 1    
    97   50   51 1    
    98   50   52 1    
    99   50  106 1    
   100   51  107 1    
   101   51  108 1    
   102   51  109 1    
   103   52   53 2    
   104   52   54 am   BACKBONE|DICT|INTERRES
   105   54   55 1    
   106   54  110 1    
   107   55   56 1    
   108   55   59 1    
   109   55  111 1    
   110   56   57 am   BACKBONE|DICT|INTERRES
   111   56   58 2    
   112   57  112 1    
   113   57  113 1    
   114   59   60 1    
   115   59  114 1    
   116   59  115 1    
   117   60   61 1    
   118   61  116 1    
   119   61  117 1    
@<TRIPOS>SUBSTRUCTURE
     1 UNK         1 GROUP             0       ****    0 ROOT    
