@<TRIPOS>MOLECULE
3R8
117   119    1
SMALL
USER_CHARGES


@<TRIPOS>ATOM
      1 CA         14.3727  -23.4079  -46.7004 C.3       0 UNK        -0.2013 
      2 C          14.0140  -23.6908  -45.2431 C.2       0 UNK         0.4866 
      3 O          13.0671  -23.0964  -44.7313 O.2       0 UNK        -0.5176 
      4 N          14.7144  -24.5898  -44.5374 N.am      1 UNK        -0.4884 
      5 CA         15.9096  -25.3260  -44.9666 C.3       1 UNK         0.0853 
      6 C6         16.2900  -26.4306  -43.9498 C.3       10 UNK        -0.0849 
      7 S7         15.1217  -27.8270  -43.9160 S.3       10 UNK        -0.2776 
      8 C8         15.5044  -28.5754  -42.2949 C.3       10 UNK         0.0316 
      9 C9         16.9951  -28.8372  -42.1052 C.ar      10 UNK        -0.0863 
     10 C10        17.6079  -29.9391  -42.7115 C.ar      10 UNK        -0.1009 
     11 C11        18.9772  -30.1699  -42.5409 C.ar      10 UNK        -0.0712 
     12 C12        19.7324  -29.2928  -41.7571 C.ar      10 UNK        -0.0894 
     13 C13        19.1329  -28.1862  -41.1508 C.ar      10 UNK        -0.0745 
     14 C14        17.7632  -27.9692  -41.3217 C.ar      10 UNK        -0.0972 
     15 C15        19.9569  -27.2215  -40.3107 C.3       10 UNK         0.0209 
     16 S16        20.4484  -25.7523  -41.2666 S.3       10 UNK        -0.2568 
     17 C17        21.8083  -26.4069  -42.2921 C.3       10 UNK        -0.0983 
     18 CA         21.3658  -26.7483  -43.7366 C.3       3 UNK         0.0876 
     19 N          20.7899  -25.5948  -44.4339 N.am      3 UNK        -0.4424 
     20 C          20.1669  -25.6637  -45.6153 C.2       2 UNK         0.4918 
     21 O          20.0759  -26.6915  -46.2910 O.2       2 UNK        -0.4875 
     22 CA         19.4207  -24.4071  -46.0785 C.3       2 UNK         0.0481 
     23 CB         19.8369  -23.9909  -47.4993 C.3       2 UNK        -0.1831 
     24 N          18.0118  -24.7852  -46.0667 N.am      2 UNK        -0.4498 
     25 C          17.1295  -24.3998  -45.1392 C.2       1 UNK         0.5027 
     26 O          17.2866  -23.4343  -44.3881 O.2       1 UNK        -0.4969 
     27 C          22.5422  -27.3638  -44.5171 C.2       3 UNK         0.5005 
     28 O          23.4365  -26.6330  -44.9533 O.2       3 UNK        -0.5279 
     29 N          22.5467  -28.6979  -44.6375 N.am      4 UNK        -0.4463 
     30 CA         23.6361  -29.4804  -45.2216 C.3       4 UNK         0.0283 
     31 CB         23.0915  -30.8352  -45.7092 C.3       4 UNK        -0.1875 
     32 C          24.7751  -29.6293  -44.1996 C.2       4 UNK         0.4949 
     33 O          24.8997  -30.6716  -43.5570 O.2       4 UNK        -0.5039 
     34 N          25.5386  -28.5424  -44.0287 N.am      5 UNK        -0.4663 
     35 CA         26.6716  -28.3282  -43.1162 C.3       5 UNK         0.0242 
     36 CB         27.7932  -29.3605  -43.3466 C.3       5 UNK        -0.1982 
     37 C          26.2973  -28.2407  -41.6248 C.2       5 UNK         0.5017 
     38 O          26.8871  -27.4252  -40.9149 O.2       5 UNK        -0.5012 
     39 N          25.3382  -29.0529  -41.1707 N.am      6 UNK        -0.4439 
     40 CA         24.8529  -29.1158  -39.7949 C.3       6 UNK         0.0297 
     41 CB         25.8380  -29.9320  -38.9334 C.3       6 UNK        -0.2006 
     42 C          23.4585  -29.7498  -39.7757 C.2       6 UNK         0.4892 
     43 O          23.0348  -30.3339  -40.7749 O.2       6 UNK        -0.5089 
     44 N          22.7920  -29.6755  -38.6154 N.am      7 UNK        -0.4243 
     45 CA         21.4833  -30.2874  -38.3412 C.3       7 UNK         0.0196 
     46 CB         20.9619  -29.7699  -36.9909 C.3       7 UNK        -0.2007 
     47 C          21.4733  -31.8294  -38.3775 C.2       7 UNK         0.5020 
     48 O          20.3964  -32.4220  -38.4330 O.2       7 UNK        -0.5147 
     49 N          22.6594  -32.4542  -38.3637 N.am      8 UNK        -0.4734 
     50 CA         22.8540  -33.8824  -38.6310 C.3       8 UNK         0.0238 
     51 CB         24.2571  -34.2932  -38.1545 C.3       8 UNK        -0.1912 
     52 C          22.6597  -34.2510  -40.1165 C.2       8 UNK         0.5038 
     53 O          22.4464  -35.4269  -40.4140 O.2       8 UNK        -0.5046 
     54 N          22.7396  -33.2533  -41.0093 N.am      9 UNK        -0.4200 
     55 CA         22.5331  -33.3449  -42.4634 C.3       9 UNK         0.0839 
     56 C          23.6220  -34.1484  -43.2362 C.2       9 UNK         0.5513 
     57 N          24.7812  -34.4249  -42.6509 N.am      9 UNK        -0.7519 
     58 O          23.4257  -34.5085  -44.3942 O.2       9 UNK        -0.4960 
     59 C59        21.0832  -33.7572  -42.8593 C.3       10 UNK        -0.0876 
     60 S60        19.8005  -32.7475  -42.0408 S.3       10 UNK        -0.2414 
     61 C61        19.6527  -31.3599  -43.2025 C.3       10 UNK         0.0169 
     62 H62        15.2697  -22.7928  -46.7645 H         1 UNK         0.0903 
     63 H63        14.5309  -24.3265  -47.2636 H         1 UNK         0.0903 
     64 H64        13.5644  -22.8643  -47.1895 H         1 UNK         0.0903 
     65 H65        14.4434  -24.7520  -43.5783 H         1 UNK         0.3096 
     66 H66        15.6952  -25.8026  -45.9252 H         1 UNK         0.1121 
     67 H67        17.2702  -26.8564  -44.1796 H         1 UNK         0.0849 
     68 H68        16.3740  -26.0053  -42.9476 H         1 UNK         0.0849 
     69 H69        14.9543  -29.5126  -42.1981 H         1 UNK         0.0865 
     70 H70        15.1283  -27.9231  -41.5051 H         1 UNK         0.0865 
     71 H71        17.0191  -30.6131  -43.3188 H         1 UNK         0.1346 
     72 H72        20.7892  -29.4733  -41.6224 H         1 UNK         0.1412 
     73 H73        17.2987  -27.1124  -40.8525 H         1 UNK         0.1426 
     74 H74        20.8439  -27.7098  -39.9063 H         1 UNK         0.0716 
     75 H75        19.3711  -26.8994  -39.4486 H         1 UNK         0.0716 
     76 H76        22.2346  -27.2841  -41.8009 H         1 UNK         0.0695 
     77 H77        22.6031  -25.6583  -42.3061 H         1 UNK         0.0695 
     78 H78        20.5724  -27.4957  -43.6802 H         1 UNK         0.0983 
     79 H79        20.8075  -24.7197  -43.9310 H         1 UNK         0.3095 
     80 H80        19.6216  -23.5796  -45.3946 H         1 UNK         0.0454 
     81 H81        19.6751  -24.7895  -48.2246 H         1 UNK         0.0851 
     82 H82        20.8951  -23.7294  -47.5324 H         1 UNK         0.0851 
     83 H83        19.2758  -23.1185  -47.8341 H         1 UNK         0.0851 
     84 H84        17.8031  -25.6117  -46.6116 H         1 UNK         0.2976 
     85 H85        21.7886  -29.2256  -44.2318 H         1 UNK         0.3116 
     86 H86        24.0316  -28.9539  -46.0932 H         1 UNK         0.0646 
     87 H87        22.6343  -31.4090  -44.9054 H         1 UNK         0.0847 
     88 H88        23.8914  -31.4479  -46.1271 H         1 UNK         0.0847 
     89 H89        22.3439  -30.7028  -46.4914 H         1 UNK         0.0847 
     90 H90        25.2501  -27.7178  -44.5461 H         1 UNK         0.3040 
     91 H91        27.0744  -27.3497  -43.3839 H         1 UNK         0.1015 
     92 H92        27.4855  -30.3691  -43.0689 H         1 UNK         0.0786 
     93 H93        28.6724  -29.1170  -42.7484 H         1 UNK         0.0786 
     94 H94        28.1069  -29.3799  -44.3903 H         1 UNK         0.0786 
     95 H95        24.8919  -29.6980  -41.8204 H         1 UNK         0.3172 
     96 H96        24.7673  -28.1016  -39.3990 H         1 UNK         0.0595 
     97 H97        25.9452  -30.9524  -39.3041 H         1 UNK         0.0839 
     98 H98        26.8290  -29.4780  -38.9242 H         1 UNK         0.0839 
     99 H99        25.5094  -29.9920  -37.8953 H         1 UNK         0.0839 
    100 H100       23.2218  -29.1829  -37.8449 H         1 UNK         0.2998 
    101 H101       20.7918  -29.9611  -39.1192 H         1 UNK         0.0822 
    102 H102       19.9738  -30.1770  -36.7711 H         1 UNK         0.0787 
    103 H103       21.6209  -30.0524  -36.1689 H         1 UNK         0.0787 
    104 H104       20.8680  -28.6837  -36.9912 H         1 UNK         0.0787 
    105 H105       23.4907  -31.8887  -38.2794 H         1 UNK         0.3055 
    106 H106       22.1142  -34.4464  -38.0581 H         1 UNK         0.1106 
    107 H107       24.4273  -35.3588  -38.3157 H         1 UNK         0.0828 
    108 H108       25.0411  -33.7541  -38.6878 H         1 UNK         0.0828 
    109 H109       24.3850  -34.1056  -37.0882 H         1 UNK         0.0828 
    110 H110       22.9042  -32.3098  -40.6755 H         1 UNK         0.2931 
    111 H111       22.6704  -32.3199  -42.8050 H         1 UNK         0.0412 
    112 H112       24.9616  -34.1168  -41.7095 H         1 UNK         0.3472 
    113 H113       25.4843  -34.9348  -43.1619 H         1 UNK         0.3472 
    114 H114       20.9427  -33.6878  -43.9396 H         1 UNK         0.0970 
    115 H115       20.9065  -34.8029  -42.6026 H         1 UNK         0.0970 
    116 H116       19.0970  -31.6814  -44.0847 H         1 UNK         0.0612 
    117 H117       20.6442  -31.0668  -43.5472 H         1 UNK         0.0612 
@<TRIPOS>BOND
     1    1    2 1    
     2    1   62 1    
     3    1   63 1    
     4    1   64 1    
     5    2    3 2    
     6    2    4 am   BACKBONE|DICT|INTERRES
     7    4    5 1    
     8    4   65 1    
     9    5    6 1    
    10    5   25 1    
    11    5   66 1    
    12    6    7 1    
    13    6   67 1    
    14    6   68 1    
    15    7    8 1    
    16    8    9 1    
    17    8   69 1    
    18    8   70 1    
    19    9   10 ar   
    20    9   14 ar   
    21   10   11 ar   
    22   10   71 1    
    23   11   12 ar   
    24   11   61 1    
    25   12   13 ar   
    26   12   72 1    
    27   13   14 ar   
    28   13   15 1    
    29   14   73 1    
    30   15   16 1    
    31   15   74 1    
    32   15   75 1    
    33   16   17 1    
    34   17   18 1    
    35   17   76 1    
    36   17   77 1    
    37   18   19 1    
    38   18   27 1    
    39   18   78 1    
    40   19   20 am   BACKBONE|DICT|INTERRES
    41   19   79 1    
    42   20   21 2    
    43   20   22 1    
    44   22   23 1    
    45   22   24 1    
    46   22   80 1    
    47   23   81 1    
    48   23   82 1    
    49   23   83 1    
    50   24   25 am   BACKBONE|DICT|INTERRES
    51   24   84 1    
    52   25   26 2    
    53   27   28 2    
    54   27   29 am   BACKBONE|DICT|INTERRES
    55   29   30 1    
    56   29   85 1    
    57   30   31 1    
    58   30   32 1    
    59   30   86 1    
    60   31   87 1    
    61   31   88 1    
    62   31   89 1    
    63   32   33 2    
    64   32   34 am   BACKBONE|DICT|INTERRES
    65   34   35 1    
    66   34   90 1    
    67   35   36 1    
    68   35   37 1    
    69   35   91 1    
    70   36   92 1    
    71   36   93 1    
    72   36   94 1    
    73   37   38 2    
    74   37   39 am   BACKBONE|DICT|INTERRES
    75   39   40 1    
    76   39   95 1    
    77   40   41 1    
    78   40   42 1    
    79   40   96 1    
    80   41   97 1    
    81   41   98 1    
    82   41   99 1    
    83   42   43 2    
    84   42   44 am   BACKBONE|DICT|INTERRES
    85   44   45 1    
    86   44  100 1    
    87   45   46 1    
    88   45   47 1    
    89   45  101 1    
    90   46  102 1    
    91   46  103 1    
    92   46  104 1    
    93   47   48 2    
    94   47   49 am   BACKBONE|DICT|INTERRES
    95   49   50 1    
    96   49  105 1    
    97   50   51 1    
    98   50   52 1    
    99   50  106 1    
   100   51  107 1    
   101   51  108 1    
   102   51  109 1    
   103   52   53 2    
   104   52   54 am   BACKBONE|DICT|INTERRES
   105   54   55 1    
   106   54  110 1    
   107   55   56 1    
   108   55   59 1    
   109   55  111 1    
   110   56   57 am   BACKBONE|DICT|INTERRES
   111   56   58 2    
   112   57  112 1    
   113   57  113 1    
   114   59   60 1    
   115   59  114 1    
   116   59  115 1    
   117   60   61 1    
   118   61  116 1    
   119   61  117 1    
@<TRIPOS>SUBSTRUCTURE
     1 UNK         1 GROUP             0       ****    0 ROOT    
