@<TRIPOS>MOLECULE
3R8
117   119    1
SMALL
USER_CHARGES


@<TRIPOS>ATOM
      1 CA         13.9409  -27.4345  -44.0950 C.3       0 UNK        -0.2013 
      2 C          15.2279  -26.7634  -43.6390 C.2       0 UNK         0.4866 
      3 O          15.1835  -25.6351  -43.1484 O.2       0 UNK        -0.5176 
      4 N          16.3671  -27.4514  -43.8048 N.am      1 UNK        -0.4884 
      5 CA         17.7215  -27.0146  -43.4269 C.3       1 UNK         0.0853 
      6 C6         17.9308  -26.8754  -41.8919 C.3       10 UNK        -0.0849 
      7 S7         17.5943  -28.4183  -40.9757 S.3       10 UNK        -0.2776 
      8 C8         19.2775  -29.0434  -40.6635 C.3       10 UNK         0.0316 
      9 C9         19.8800  -29.6768  -41.9084 C.ar      10 UNK        -0.0863 
     10 C10        19.5782  -31.0039  -42.2212 C.ar      10 UNK        -0.1009 
     11 C11        20.1147  -31.6117  -43.3583 C.ar      10 UNK        -0.0712 
     12 C12        20.9649  -30.8773  -44.1906 C.ar      10 UNK        -0.0894 
     13 C13        21.2695  -29.5448  -43.8917 C.ar      10 UNK        -0.0745 
     14 C14        20.7308  -28.9505  -42.7462 C.ar      10 UNK        -0.0972 
     15 C15        22.1425  -28.7294  -44.8285 C.3       10 UNK         0.0209 
     16 S16        21.1120  -27.9601  -46.1070 S.3       10 UNK        -0.2568 
     17 C17        22.2215  -26.6728  -46.7830 C.3       10 UNK        -0.0983 
     18 CA         21.9860  -25.2362  -46.2253 C.3       3 UNK         0.0876 
     19 N          20.5825  -24.9112  -45.9968 N.am      3 UNK        -0.4424 
     20 C          19.6407  -24.7454  -46.9279 C.2       2 UNK         0.4918 
     21 O          19.8736  -24.7409  -48.1381 O.2       2 UNK        -0.4875 
     22 CA         18.1934  -24.5912  -46.4113 C.3       2 UNK         0.0481 
     23 CB         17.1601  -24.5309  -47.5514 C.3       2 UNK        -0.1831 
     24 N          17.8212  -25.6733  -45.4913 N.am      2 UNK        -0.4498 
     25 C          18.1714  -25.7521  -44.1987 C.2       1 UNK         0.5027 
     26 O          18.8359  -24.8813  -43.6331 O.2       1 UNK        -0.4969 
     27 C          22.7373  -24.9764  -44.9098 C.2       3 UNK         0.5005 
     28 O          22.2006  -25.2437  -43.8314 O.2       3 UNK        -0.5279 
     29 N          23.9632  -24.4483  -45.0197 N.am      4 UNK        -0.4463 
     30 CA         24.7724  -23.9665  -43.8940 C.3       4 UNK         0.0283 
     31 CB         25.8609  -23.0241  -44.4360 C.3       4 UNK        -0.1875 
     32 C          25.4061  -25.0702  -43.0270 C.2       4 UNK         0.4949 
     33 O          25.9256  -24.7545  -41.9563 O.2       4 UNK        -0.5039 
     34 N          25.3848  -26.3262  -43.4974 N.am      5 UNK        -0.4663 
     35 CA         26.0108  -27.4752  -42.8331 C.3       5 UNK         0.0242 
     36 CB         25.9747  -28.6935  -43.7704 C.3       5 UNK        -0.1982 
     37 C          25.3966  -27.8320  -41.4674 C.2       5 UNK         0.5017 
     38 O          26.1275  -28.3114  -40.6002 O.2       5 UNK        -0.5012 
     39 N          24.0823  -27.5948  -41.3103 N.am      6 UNK        -0.4439 
     40 CA         23.2713  -27.8480  -40.1076 C.3       6 UNK         0.0297 
     41 CB         23.5938  -26.8006  -39.0216 C.3       6 UNK        -0.2006 
     42 C          23.3853  -29.3000  -39.5915 C.2       6 UNK         0.4892 
     43 O          23.5979  -29.5220  -38.3973 O.2       6 UNK        -0.5089 
     44 N          23.2984  -30.2563  -40.5241 N.am      7 UNK        -0.4243 
     45 CA         23.5186  -31.6827  -40.2917 C.3       7 UNK         0.0196 
     46 CB         23.7411  -32.3613  -41.6524 C.3       7 UNK        -0.2007 
     47 C          22.3808  -32.3588  -39.5050 C.2       7 UNK         0.5020 
     48 O          21.2587  -31.8507  -39.4516 O.2       7 UNK        -0.5147 
     49 N          22.6950  -33.5202  -38.9170 N.am      8 UNK        -0.4734 
     50 CA         21.7706  -34.3593  -38.1502 C.3       8 UNK         0.0238 
     51 CB         22.5822  -35.2202  -37.1634 C.3       8 UNK        -0.1912 
     52 C          20.8851  -35.2073  -39.0828 C.2       8 UNK         0.5038 
     53 O          21.0571  -36.4255  -39.1649 O.2       8 UNK        -0.5046 
     54 N          19.9695  -34.5374  -39.7835 N.am      9 UNK        -0.4200 
     55 CA         19.0244  -35.1097  -40.7492 C.3       9 UNK         0.0839 
     56 C          17.7316  -34.2559  -40.8461 C.2       9 UNK         0.5513 
     57 N          16.7608  -34.6773  -41.6455 N.am      9 UNK        -0.7519 
     58 O          17.5821  -33.2279  -40.1886 O.2       9 UNK        -0.4960 
     59 C59        19.6793  -35.4477  -42.1260 C.3       10 UNK        -0.0876 
     60 S60        20.8462  -34.1954  -42.7672 S.3       10 UNK        -0.2414 
     61 C61        19.7641  -33.0565  -43.6810 C.3       10 UNK         0.0169 
     62 H62        13.2546  -27.5375  -43.2549 H         1 UNK         0.0903 
     63 H63        13.4540  -26.8312  -44.8607 H         1 UNK         0.0903 
     64 H64        14.1207  -28.4268  -44.5084 H         1 UNK         0.0903 
     65 H65        16.3186  -28.3785  -44.2052 H         1 UNK         0.3096 
     66 H66        18.3911  -27.8031  -43.7735 H         1 UNK         0.1121 
     67 H67        17.2838  -26.0942  -41.4898 H         1 UNK         0.0849 
     68 H68        18.9501  -26.5555  -41.6685 H         1 UNK         0.0849 
     69 H69        19.9106  -28.2408  -40.2847 H         1 UNK         0.0865 
     70 H70        19.2335  -29.7886  -39.8671 H         1 UNK         0.0865 
     71 H71        18.9230  -31.5653  -41.5722 H         1 UNK         0.1346 
     72 H72        21.3760  -31.3367  -45.0791 H         1 UNK         0.1412 
     73 H73        20.9526  -27.9151  -42.5253 H         1 UNK         0.1426 
     74 H74        22.8968  -29.3611  -45.2998 H         1 UNK         0.0716 
     75 H75        22.6759  -27.9611  -44.2686 H         1 UNK         0.0716 
     76 H76        23.2622  -26.9822  -46.6698 H         1 UNK         0.0695 
     77 H77        22.0474  -26.6565  -47.8599 H         1 UNK         0.0695 
     78 H78        22.3629  -24.5204  -46.9593 H         1 UNK         0.0983 
     79 H79        20.3133  -24.8875  -45.0163 H         1 UNK         0.3095 
     80 H80        18.1446  -23.6419  -45.8740 H         1 UNK         0.0454 
     81 H81        17.3722  -23.7023  -48.2284 H         1 UNK         0.0851 
     82 H82        17.1596  -25.4455  -48.1456 H         1 UNK         0.0851 
     83 H83        16.1518  -24.3797  -47.1658 H         1 UNK         0.0851 
     84 H84        17.2932  -26.4383  -45.8862 H         1 UNK         0.2976 
     85 H85        24.3407  -24.2808  -45.9422 H         1 UNK         0.3116 
     86 H86        24.1217  -23.3849  -43.2371 H         1 UNK         0.0646 
     87 H87        26.4580  -22.6060  -43.6242 H         1 UNK         0.0847 
     88 H88        25.4270  -22.1834  -44.9777 H         1 UNK         0.0847 
     89 H89        26.5460  -23.5418  -45.1086 H         1 UNK         0.0847 
     90 H90        24.9577  -26.4880  -44.3970 H         1 UNK         0.3040 
     91 H91        27.0574  -27.2172  -42.6545 H         1 UNK         0.1015 
     92 H92        26.4672  -28.4821  -44.7197 H         1 UNK         0.0786 
     93 H93        24.9554  -29.0142  -43.9819 H         1 UNK         0.0786 
     94 H94        26.4926  -29.5429  -43.3221 H         1 UNK         0.0786 
     95 H95        23.5987  -27.1664  -42.0876 H         1 UNK         0.3172 
     96 H96        22.2315  -27.7053  -40.3999 H         1 UNK         0.0595 
     97 H97        23.4687  -25.7859  -39.3996 H         1 UNK         0.0839 
     98 H98        24.6177  -26.8984  -38.6590 H         1 UNK         0.0839 
     99 H99        22.9312  -26.9101  -38.1621 H         1 UNK         0.0839 
    100 H100       23.0690  -29.9869  -41.4689 H         1 UNK         0.2998 
    101 H101       24.4333  -31.7861  -39.7037 H         1 UNK         0.0822 
    102 H102       24.6436  -31.9878  -42.1367 H         1 UNK         0.0787 
    103 H103       23.8526  -33.4415  -41.5500 H         1 UNK         0.0787 
    104 H104       22.9050  -32.1812  -42.3276 H         1 UNK         0.0787 
    105 H105       23.6275  -33.8875  -39.0433 H         1 UNK         0.3055 
    106 H106       21.1085  -33.7178  -37.5634 H         1 UNK         0.1106 
    107 H107       23.1494  -34.5996  -36.4694 H         1 UNK         0.0828 
    108 H108       21.9242  -35.8525  -36.5657 H         1 UNK         0.0828 
    109 H109       23.2851  -35.8764  -37.6783 H         1 UNK         0.0828 
    110 H110       19.9168  -33.5293  -39.6794 H         1 UNK         0.2931 
    111 H111       18.6789  -36.0513  -40.3177 H         1 UNK         0.0412 
    112 H112       15.9123  -34.1361  -41.7070 H         1 UNK         0.3472 
    113 H113       16.8439  -35.5348  -42.1686 H         1 UNK         0.3472 
    114 H114       18.9366  -35.6796  -42.8904 H         1 UNK         0.0970 
    115 H115       20.2545  -36.3675  -42.0109 H         1 UNK         0.0970 
    116 H116       19.8665  -33.2477  -44.7500 H         1 UNK         0.0612 
    117 H117       18.7178  -33.2410  -43.4363 H         1 UNK         0.0612 
@<TRIPOS>BOND
     1    1    2 1    
     2    1   62 1    
     3    1   63 1    
     4    1   64 1    
     5    2    3 2    
     6    2    4 am   BACKBONE|DICT|INTERRES
     7    4    5 1    
     8    4   65 1    
     9    5    6 1    
    10    5   25 1    
    11    5   66 1    
    12    6    7 1    
    13    6   67 1    
    14    6   68 1    
    15    7    8 1    
    16    8    9 1    
    17    8   69 1    
    18    8   70 1    
    19    9   10 ar   
    20    9   14 ar   
    21   10   11 ar   
    22   10   71 1    
    23   11   12 ar   
    24   11   61 1    
    25   12   13 ar   
    26   12   72 1    
    27   13   14 ar   
    28   13   15 1    
    29   14   73 1    
    30   15   16 1    
    31   15   74 1    
    32   15   75 1    
    33   16   17 1    
    34   17   18 1    
    35   17   76 1    
    36   17   77 1    
    37   18   19 1    
    38   18   27 1    
    39   18   78 1    
    40   19   20 am   BACKBONE|DICT|INTERRES
    41   19   79 1    
    42   20   21 2    
    43   20   22 1    
    44   22   23 1    
    45   22   24 1    
    46   22   80 1    
    47   23   81 1    
    48   23   82 1    
    49   23   83 1    
    50   24   25 am   BACKBONE|DICT|INTERRES
    51   24   84 1    
    52   25   26 2    
    53   27   28 2    
    54   27   29 am   BACKBONE|DICT|INTERRES
    55   29   30 1    
    56   29   85 1    
    57   30   31 1    
    58   30   32 1    
    59   30   86 1    
    60   31   87 1    
    61   31   88 1    
    62   31   89 1    
    63   32   33 2    
    64   32   34 am   BACKBONE|DICT|INTERRES
    65   34   35 1    
    66   34   90 1    
    67   35   36 1    
    68   35   37 1    
    69   35   91 1    
    70   36   92 1    
    71   36   93 1    
    72   36   94 1    
    73   37   38 2    
    74   37   39 am   BACKBONE|DICT|INTERRES
    75   39   40 1    
    76   39   95 1    
    77   40   41 1    
    78   40   42 1    
    79   40   96 1    
    80   41   97 1    
    81   41   98 1    
    82   41   99 1    
    83   42   43 2    
    84   42   44 am   BACKBONE|DICT|INTERRES
    85   44   45 1    
    86   44  100 1    
    87   45   46 1    
    88   45   47 1    
    89   45  101 1    
    90   46  102 1    
    91   46  103 1    
    92   46  104 1    
    93   47   48 2    
    94   47   49 am   BACKBONE|DICT|INTERRES
    95   49   50 1    
    96   49  105 1    
    97   50   51 1    
    98   50   52 1    
    99   50  106 1    
   100   51  107 1    
   101   51  108 1    
   102   51  109 1    
   103   52   53 2    
   104   52   54 am   BACKBONE|DICT|INTERRES
   105   54   55 1    
   106   54  110 1    
   107   55   56 1    
   108   55   59 1    
   109   55  111 1    
   110   56   57 am   BACKBONE|DICT|INTERRES
   111   56   58 2    
   112   57  112 1    
   113   57  113 1    
   114   59   60 1    
   115   59  114 1    
   116   59  115 1    
   117   60   61 1    
   118   61  116 1    
   119   61  117 1    
@<TRIPOS>SUBSTRUCTURE
     1 UNK         1 GROUP             0       ****    0 ROOT    
