@<TRIPOS>MOLECULE
3R8
117   119    1
SMALL
USER_CHARGES


@<TRIPOS>ATOM
      1 CA         21.2642  -30.2767  -48.9951 C.3       0 UNK        -0.2013 
      2 C          20.7778  -29.2531  -47.9798 C.2       0 UNK         0.4866 
      3 O          21.1012  -28.0717  -48.1048 O.2       0 UNK        -0.5176 
      4 N          20.0051  -29.7040  -46.9819 N.am      1 UNK        -0.4884 
      5 CA         19.4473  -28.9114  -45.8775 C.3       1 UNK         0.0853 
      6 C6         18.3769  -27.8734  -46.3248 C.3       10 UNK        -0.0849 
      7 S7         16.9563  -28.6726  -47.1469 S.3       10 UNK        -0.2776 
      8 C8         15.6186  -28.4501  -45.9216 C.3       10 UNK         0.0316 
      9 C9         15.8808  -29.1333  -44.5807 C.ar      10 UNK        -0.0863 
     10 C10        16.3664  -30.4440  -44.5215 C.ar      10 UNK        -0.1009 
     11 C11        16.5965  -31.0641  -43.2904 C.ar      10 UNK        -0.0712 
     12 C12        16.3068  -30.3786  -42.1077 C.ar      10 UNK        -0.0894 
     13 C13        15.8050  -29.0747  -42.1499 C.ar      10 UNK        -0.0745 
     14 C14        15.5984  -28.4573  -43.3886 C.ar      10 UNK        -0.0972 
     15 C15        15.4607  -28.3443  -40.8573 C.3       10 UNK         0.0209 
     16 S16        16.9345  -27.9060  -39.8783 S.3       10 UNK        -0.2568 
     17 C17        17.7398  -26.6662  -40.9441 C.3       10 UNK        -0.0983 
     18 CA         19.2848  -26.7888  -40.8965 C.3       3 UNK         0.0876 
     19 N          19.8868  -26.4663  -42.1918 N.am      3 UNK        -0.4424 
     20 C          21.1926  -26.5095  -42.4920 C.2       2 UNK         0.4918 
     21 O          22.0779  -26.7738  -41.6774 O.2       2 UNK        -0.4875 
     22 CA         21.5375  -26.2389  -43.9695 C.3       2 UNK         0.0481 
     23 CB         23.0311  -26.4462  -44.3010 C.3       2 UNK        -0.1831 
     24 N          20.6644  -26.9985  -44.8786 N.am      2 UNK        -0.4498 
     25 C          20.5780  -28.3352  -44.9979 C.2       1 UNK         0.5027 
     26 O          21.3350  -29.1290  -44.4367 O.2       1 UNK        -0.4969 
     27 C          19.8886  -25.9439  -39.7548 C.2       3 UNK         0.5005 
     28 O          19.8277  -24.7134  -39.8165 O.2       3 UNK        -0.5279 
     29 N          20.4803  -26.6258  -38.7618 N.am      4 UNK        -0.4463 
     30 CA         21.1930  -26.0720  -37.6014 C.3       4 UNK         0.0283 
     31 CB         20.2290  -25.2864  -36.6861 C.3       4 UNK        -0.1875 
     32 C          22.4615  -25.2620  -37.9533 C.2       4 UNK         0.4949 
     33 O          22.9317  -24.4884  -37.1179 O.2       4 UNK        -0.5039 
     34 N          23.0135  -25.4630  -39.1571 N.am      5 UNK        -0.4663 
     35 CA         24.2092  -24.7895  -39.6640 C.3       5 UNK         0.0242 
     36 CB         23.7826  -23.6492  -40.6095 C.3       5 UNK        -0.1982 
     37 C          25.1279  -25.8208  -40.3372 C.2       5 UNK         0.5017 
     38 O          25.5457  -25.6168  -41.4780 O.2       5 UNK        -0.5012 
     39 N          25.4029  -26.9180  -39.6114 N.am      6 UNK        -0.4439 
     40 CA         26.1265  -28.1213  -40.0480 C.3       6 UNK         0.0297 
     41 CB         27.6003  -27.8042  -40.3826 C.3       6 UNK        -0.2006 
     42 C          25.3771  -28.8189  -41.1980 C.2       6 UNK         0.4892 
     43 O          25.8586  -28.8443  -42.3327 O.2       6 UNK        -0.5089 
     44 N          24.1755  -29.3147  -40.8706 N.am      7 UNK        -0.4243 
     45 CA         23.1978  -29.8607  -41.8114 C.3       7 UNK         0.0196 
     46 CB         21.9060  -30.2181  -41.0582 C.3       7 UNK        -0.2007 
     47 C          23.7093  -31.0701  -42.6048 C.2       7 UNK         0.5020 
     48 O          24.3313  -31.9651  -42.0286 O.2       7 UNK        -0.5147 
     49 N          23.3801  -31.1008  -43.9018 N.am      8 UNK        -0.4734 
     50 CA         23.7186  -32.1920  -44.8235 C.3       8 UNK         0.0238 
     51 CB         23.4097  -31.7513  -46.2630 C.3       8 UNK        -0.1912 
     52 C          22.9805  -33.4992  -44.4880 C.2       8 UNK         0.5038 
     53 O          23.5250  -34.5828  -44.7008 O.2       8 UNK        -0.5046 
     54 N          21.7665  -33.3562  -43.9478 N.am      9 UNK        -0.4200 
     55 CA         20.9337  -34.4222  -43.3799 C.3       9 UNK         0.0839 
     56 C          21.3040  -34.8161  -41.9183 C.2       9 UNK         0.5513 
     57 N          22.3039  -34.2110  -41.2859 N.am      9 UNK        -0.7519 
     58 O          20.6808  -35.7089  -41.3496 O.2       9 UNK        -0.4960 
     59 C59        19.4244  -34.0972  -43.5499 C.3       10 UNK        -0.0876 
     60 S60        18.9647  -32.4209  -42.9885 S.3       10 UNK        -0.2414 
     61 C61        17.1670  -32.4710  -43.2422 C.3       10 UNK         0.0169 
     62 H62        20.9015  -31.2799  -48.7717 H         1 UNK         0.0903 
     63 H63        20.9197  -30.0068  -49.9931 H         1 UNK         0.0903 
     64 H64        22.3535  -30.3047  -49.0066 H         1 UNK         0.0903 
     65 H65        19.7871  -30.6895  -46.9430 H         1 UNK         0.3096 
     66 H66        18.9444  -29.6281  -45.2266 H         1 UNK         0.1121 
     67 H67        18.0057  -27.3064  -45.4691 H         1 UNK         0.0849 
     68 H68        18.8012  -27.1454  -47.0181 H         1 UNK         0.0849 
     69 H69        15.4495  -27.3808  -45.7842 H         1 UNK         0.0865 
     70 H70        14.6948  -28.8530  -46.3386 H         1 UNK         0.0865 
     71 H71        16.5797  -30.9790  -45.4369 H         1 UNK         0.1346 
     72 H72        16.4792  -30.8568  -41.1530 H         1 UNK         0.1412 
     73 H73        15.2056  -27.4500  -43.4234 H         1 UNK         0.1426 
     74 H74        14.8156  -28.9820  -40.2512 H         1 UNK         0.0716 
     75 H75        14.8867  -27.4391  -41.0615 H         1 UNK         0.0716 
     76 H76        17.3934  -25.6687  -40.6656 H         1 UNK         0.0695 
     77 H77        17.3870  -26.8179  -41.9640 H         1 UNK         0.0695 
     78 H78        19.5415  -27.8364  -40.7249 H         1 UNK         0.0983 
     79 H79        19.2431  -26.2059  -42.9224 H         1 UNK         0.3095 
     80 H80        21.3145  -25.1850  -44.1414 H         1 UNK         0.0454 
     81 H81        23.6600  -25.8144  -43.6721 H         1 UNK         0.0851 
     82 H82        23.2451  -26.1871  -45.3375 H         1 UNK         0.0851 
     83 H83        23.3546  -27.4738  -44.1422 H         1 UNK         0.0851 
     84 H84        20.0310  -26.4395  -45.4324 H         1 UNK         0.2976 
     85 H85        20.4746  -27.6352  -38.8145 H         1 UNK         0.3116 
     86 H86        21.5462  -26.9340  -37.0336 H         1 UNK         0.0646 
     87 H87        19.8918  -24.3602  -37.1523 H         1 UNK         0.0847 
     88 H88        19.3476  -25.8768  -36.4363 H         1 UNK         0.0847 
     89 H89        20.7119  -25.0170  -35.7460 H         1 UNK         0.0847 
     90 H90        22.5698  -26.1025  -39.8108 H         1 UNK         0.3040 
     91 H91        24.7825  -24.3559  -38.8415 H         1 UNK         0.1015 
     92 H92        24.6498  -23.1075  -40.9890 H         1 UNK         0.0786 
     93 H93        23.1479  -22.9268  -40.0960 H         1 UNK         0.0786 
     94 H94        23.2285  -24.0288  -41.4691 H         1 UNK         0.0786 
     95 H95        24.9944  -26.9673  -38.6881 H         1 UNK         0.3172 
     96 H96        26.1269  -28.8120  -39.2031 H         1 UNK         0.0595 
     97 H97        27.6943  -27.1371  -41.2399 H         1 UNK         0.0839 
     98 H98        28.1459  -28.7169  -40.6251 H         1 UNK         0.0839 
     99 H99        28.1073  -27.3374  -39.5382 H         1 UNK         0.0839 
    100 H100       23.8819  -29.2584  -39.9075 H         1 UNK         0.2998 
    101 H101       22.9769  -29.0609  -42.5151 H         1 UNK         0.0822 
    102 H102       21.1310  -30.5457  -41.7523 H         1 UNK         0.0787 
    103 H103       21.5104  -29.3577  -40.5199 H         1 UNK         0.0787 
    104 H104       22.0656  -31.0238  -40.3404 H         1 UNK         0.0787 
    105 H105       22.7979  -30.3479  -44.2641 H         1 UNK         0.3055 
    106 H106       24.7901  -32.3874  -44.7400 H         1 UNK         0.1106 
    107 H107       23.9701  -30.8565  -46.5342 H         1 UNK         0.0828 
    108 H108       23.6782  -32.5311  -46.9771 H         1 UNK         0.0828 
    109 H109       22.3493  -31.5365  -46.3966 H         1 UNK         0.0828 
    110 H110       21.4166  -32.4198  -43.8052 H         1 UNK         0.2931 
    111 H111       21.1211  -35.3250  -43.9642 H         1 UNK         0.0412 
    112 H112       22.8609  -33.4970  -41.7368 H         1 UNK         0.3472 
    113 H113       22.5250  -34.4932  -40.3442 H         1 UNK         0.3472 
    114 H114       18.8006  -34.8350  -43.0413 H         1 UNK         0.0970 
    115 H115       19.1638  -34.1742  -44.6067 H         1 UNK         0.0970 
    116 H116       16.9406  -32.9986  -44.1702 H         1 UNK         0.0612 
    117 H117       16.7021  -33.0421  -42.4373 H         1 UNK         0.0612 
@<TRIPOS>BOND
     1    1    2 1    
     2    1   62 1    
     3    1   63 1    
     4    1   64 1    
     5    2    3 2    
     6    2    4 am   BACKBONE|DICT|INTERRES
     7    4    5 1    
     8    4   65 1    
     9    5    6 1    
    10    5   25 1    
    11    5   66 1    
    12    6    7 1    
    13    6   67 1    
    14    6   68 1    
    15    7    8 1    
    16    8    9 1    
    17    8   69 1    
    18    8   70 1    
    19    9   10 ar   
    20    9   14 ar   
    21   10   11 ar   
    22   10   71 1    
    23   11   12 ar   
    24   11   61 1    
    25   12   13 ar   
    26   12   72 1    
    27   13   14 ar   
    28   13   15 1    
    29   14   73 1    
    30   15   16 1    
    31   15   74 1    
    32   15   75 1    
    33   16   17 1    
    34   17   18 1    
    35   17   76 1    
    36   17   77 1    
    37   18   19 1    
    38   18   27 1    
    39   18   78 1    
    40   19   20 am   BACKBONE|DICT|INTERRES
    41   19   79 1    
    42   20   21 2    
    43   20   22 1    
    44   22   23 1    
    45   22   24 1    
    46   22   80 1    
    47   23   81 1    
    48   23   82 1    
    49   23   83 1    
    50   24   25 am   BACKBONE|DICT|INTERRES
    51   24   84 1    
    52   25   26 2    
    53   27   28 2    
    54   27   29 am   BACKBONE|DICT|INTERRES
    55   29   30 1    
    56   29   85 1    
    57   30   31 1    
    58   30   32 1    
    59   30   86 1    
    60   31   87 1    
    61   31   88 1    
    62   31   89 1    
    63   32   33 2    
    64   32   34 am   BACKBONE|DICT|INTERRES
    65   34   35 1    
    66   34   90 1    
    67   35   36 1    
    68   35   37 1    
    69   35   91 1    
    70   36   92 1    
    71   36   93 1    
    72   36   94 1    
    73   37   38 2    
    74   37   39 am   BACKBONE|DICT|INTERRES
    75   39   40 1    
    76   39   95 1    
    77   40   41 1    
    78   40   42 1    
    79   40   96 1    
    80   41   97 1    
    81   41   98 1    
    82   41   99 1    
    83   42   43 2    
    84   42   44 am   BACKBONE|DICT|INTERRES
    85   44   45 1    
    86   44  100 1    
    87   45   46 1    
    88   45   47 1    
    89   45  101 1    
    90   46  102 1    
    91   46  103 1    
    92   46  104 1    
    93   47   48 2    
    94   47   49 am   BACKBONE|DICT|INTERRES
    95   49   50 1    
    96   49  105 1    
    97   50   51 1    
    98   50   52 1    
    99   50  106 1    
   100   51  107 1    
   101   51  108 1    
   102   51  109 1    
   103   52   53 2    
   104   52   54 am   BACKBONE|DICT|INTERRES
   105   54   55 1    
   106   54  110 1    
   107   55   56 1    
   108   55   59 1    
   109   55  111 1    
   110   56   57 am   BACKBONE|DICT|INTERRES
   111   56   58 2    
   112   57  112 1    
   113   57  113 1    
   114   59   60 1    
   115   59  114 1    
   116   59  115 1    
   117   60   61 1    
   118   61  116 1    
   119   61  117 1    
@<TRIPOS>SUBSTRUCTURE
     1 UNK         1 GROUP             0       ****    0 ROOT    
