@<TRIPOS>MOLECULE
3R8
117   119    1
SMALL
USER_CHARGES


@<TRIPOS>ATOM
      1 CA         16.2065  -25.1683  -40.2851 C.3       0 UNK        -0.2013 
      2 C          16.7607  -24.7628  -41.6426 C.2       0 UNK         0.4866 
      3 O          16.9364  -23.5716  -41.9019 O.2       0 UNK        -0.5176 
      4 N          17.0257  -25.7444  -42.5135 N.am      1 UNK        -0.4884 
      5 CA         17.6111  -25.5575  -43.8470 C.3       1 UNK         0.0853 
      6 C6         17.5325  -26.8494  -44.7100 C.3       10 UNK        -0.0849 
      7 S7         15.9075  -27.6786  -44.6739 S.3       10 UNK        -0.2776 
      8 C8         16.0829  -28.9178  -46.0018 C.3       10 UNK         0.0316 
      9 C9         17.2355  -29.8927  -45.7756 C.ar      10 UNK        -0.0863 
     10 C10        17.2259  -30.7716  -44.6871 C.ar      10 UNK        -0.1009 
     11 C11        18.2686  -31.6874  -44.4983 C.ar      10 UNK        -0.0712 
     12 C12        19.3220  -31.7253  -45.4181 C.ar      10 UNK        -0.0894 
     13 C13        19.3413  -30.8574  -46.5137 C.ar      10 UNK        -0.0745 
     14 C14        18.2946  -29.9458  -46.6865 C.ar      10 UNK        -0.0972 
     15 C15        20.4706  -30.9338  -47.5341 C.3       10 UNK         0.0209 
     16 S16        22.0018  -30.1313  -46.9581 S.3       10 UNK        -0.2568 
     17 C17        21.5090  -28.3709  -46.9038 C.3       10 UNK        -0.0983 
     18 CA         22.1225  -27.5298  -45.7529 C.3       3 UNK         0.0876 
     19 N          21.4769  -26.2190  -45.6727 N.am      3 UNK        -0.4424 
     20 C          21.9409  -25.1658  -44.9862 C.2       2 UNK         0.4918 
     21 O          23.0388  -25.1320  -44.4316 O.2       2 UNK        -0.4875 
     22 CA         20.9837  -23.9641  -44.8611 C.3       2 UNK         0.0481 
     23 CB         21.1597  -23.0059  -46.0495 C.3       2 UNK        -0.1831 
     24 N          19.5727  -24.3644  -44.7493 N.am      2 UNK        -0.4498 
     25 C          19.0820  -25.0973  -43.7381 C.2       1 UNK         0.5027 
     26 O          19.7699  -25.4771  -42.7863 O.2       1 UNK        -0.4969 
     27 C          22.0987  -28.2314  -44.3770 C.2       3 UNK         0.5005 
     28 O          23.1509  -28.6618  -43.9065 O.2       3 UNK        -0.5279 
     29 N          20.9217  -28.2897  -43.7335 N.am      4 UNK        -0.4463 
     30 CA         20.7002  -28.9345  -42.4319 C.3       4 UNK         0.0283 
     31 CB         19.2183  -28.8603  -42.0356 C.3       4 UNK        -0.1875 
     32 C          21.5679  -28.3801  -41.2949 C.2       4 UNK         0.4949 
     33 O          21.9803  -29.1486  -40.4273 O.2       4 UNK        -0.5039 
     34 N          21.8590  -27.0741  -41.3406 N.am      5 UNK        -0.4663 
     35 CA         22.7744  -26.3895  -40.4260 C.3       5 UNK         0.0242 
     36 CB         22.6940  -24.8760  -40.6812 C.3       5 UNK        -0.1982 
     37 C          24.2333  -26.8792  -40.5217 C.2       5 UNK         0.5017 
     38 O          24.9549  -26.7897  -39.5279 O.2       5 UNK        -0.5012 
     39 N          24.6386  -27.3863  -41.6947 N.am      6 UNK        -0.4439 
     40 CA         25.9585  -27.9695  -41.9405 C.3       6 UNK         0.0297 
     41 CB         26.4426  -27.5651  -43.3430 C.3       6 UNK        -0.2006 
     42 C          25.9309  -29.4996  -41.7975 C.2       6 UNK         0.4892 
     43 O          26.8541  -30.0658  -41.2116 O.2       6 UNK        -0.5089 
     44 N          24.8827  -30.1402  -42.3353 N.am      7 UNK        -0.4243 
     45 CA         24.6847  -31.5924  -42.3313 C.3       7 UNK         0.0196 
     46 CB         23.5847  -31.9533  -43.3437 C.3       7 UNK        -0.2007 
     47 C          24.3508  -32.1743  -40.9466 C.2       7 UNK         0.5020 
     48 O          24.6062  -33.3584  -40.7264 O.2       7 UNK        -0.5147 
     49 N          23.7944  -31.3432  -40.0522 N.am      8 UNK        -0.4734 
     50 CA         23.3529  -31.6562  -38.6892 C.3       8 UNK         0.0238 
     51 CB         24.5440  -32.0661  -37.7959 C.3       8 UNK        -0.1912 
     52 C          22.2014  -32.6773  -38.6827 C.2       8 UNK         0.5038 
     53 O          22.3185  -33.7405  -38.0693 O.2       8 UNK        -0.5046 
     54 N          21.1108  -32.3312  -39.3814 N.am      9 UNK        -0.4200 
     55 CA         19.8895  -33.1511  -39.4927 C.3       9 UNK         0.0839 
     56 C          19.1116  -33.3579  -38.1587 C.2       9 UNK         0.5513 
     57 N          19.3189  -32.5413  -37.1322 N.am      9 UNK        -0.7519 
     58 O          18.3031  -34.2769  -38.0579 O.2       9 UNK        -0.4960 
     59 C59        18.9239  -32.6251  -40.5875 C.3       10 UNK        -0.0876 
     60 S60        19.6898  -32.4958  -42.2376 S.3       10 UNK        -0.2414 
     61 C61        18.2338  -32.6596  -43.3244 C.3       10 UNK         0.0169 
     62 H62        15.2316  -24.7086  -40.1247 H         1 UNK         0.0903 
     63 H63        16.0906  -26.2485  -40.1977 H         1 UNK         0.0903 
     64 H64        16.8759  -24.8343  -39.4927 H         1 UNK         0.0903 
     65 H65        16.8380  -26.7025  -42.2569 H         1 UNK         0.3096 
     66 H66        17.0410  -24.7705  -44.3459 H         1 UNK         0.1121 
     67 H67        17.7764  -26.6207  -45.7492 H         1 UNK         0.0849 
     68 H68        18.2669  -27.5834  -44.3824 H         1 UNK         0.0849 
     69 H69        15.1535  -29.4841  -46.0759 H         1 UNK         0.0865 
     70 H70        16.1944  -28.3976  -46.9545 H         1 UNK         0.0865 
     71 H71        16.4008  -30.7406  -43.9884 H         1 UNK         0.1346 
     72 H72        20.1262  -32.4356  -45.2826 H         1 UNK         0.1412 
     73 H73        18.2988  -29.2847  -47.5425 H         1 UNK         0.1426 
     74 H74        20.1663  -30.4855  -48.4812 H         1 UNK         0.0716 
     75 H75        20.6868  -31.9807  -47.7521 H         1 UNK         0.0716 
     76 H76        21.7752  -27.9228  -47.8623 H         1 UNK         0.0695 
     77 H77        20.4235  -28.3124  -46.8488 H         1 UNK         0.0695 
     78 H78        23.1747  -27.3645  -45.9964 H         1 UNK         0.0983 
     79 H79        20.5797  -26.1293  -46.1238 H         1 UNK         0.3095 
     80 H80        21.2497  -23.4257  -43.9488 H         1 UNK         0.0454 
     81 H81        22.1976  -22.6815  -46.1372 H         1 UNK         0.0851 
     82 H82        20.8846  -23.4744  -46.9952 H         1 UNK         0.0851 
     83 H83        20.5525  -22.1086  -45.9294 H         1 UNK         0.0851 
     84 H84        18.9573  -24.0773  -45.4977 H         1 UNK         0.2976 
     85 H85        20.1138  -27.8909  -44.1812 H         1 UNK         0.3116 
     86 H86        20.9687  -29.9823  -42.5557 H         1 UNK         0.0646 
     87 H87        19.0445  -29.3765  -41.0911 H         1 UNK         0.0847 
     88 H88        18.5807  -29.3351  -42.7779 H         1 UNK         0.0847 
     89 H89        18.8854  -27.8321  -41.9024 H         1 UNK         0.0847 
     90 H90        21.4011  -26.5072  -42.0474 H         1 UNK         0.3040 
     91 H91        22.4329  -26.5864  -39.4073 H         1 UNK         0.1015 
     92 H92        21.6769  -24.5051  -40.5510 H         1 UNK         0.0786 
     93 H93        23.0156  -24.6210  -41.6917 H         1 UNK         0.0786 
     94 H94        23.3316  -24.3276  -39.9865 H         1 UNK         0.0786 
     95 H95        23.9627  -27.4667  -42.4472 H         1 UNK         0.3172 
     96 H96        26.6774  -27.5785  -41.2173 H         1 UNK         0.0595 
     97 H97        27.4337  -27.9731  -43.5455 H         1 UNK         0.0839 
     98 H98        26.5121  -26.4814  -43.4394 H         1 UNK         0.0839 
     99 H99        25.7751  -27.9267  -44.1261 H         1 UNK         0.0839 
    100 H100       24.1937  -29.5933  -42.8520 H         1 UNK         0.2998 
    101 H101       25.6166  -32.0558  -42.6623 H         1 UNK         0.0822 
    102 H102       23.8315  -31.5988  -44.3448 H         1 UNK         0.0787 
    103 H103       23.4473  -33.0336  -43.4052 H         1 UNK         0.0787 
    104 H104       22.6244  -31.5200  -43.0656 H         1 UNK         0.0787 
    105 H105       23.5486  -30.4104  -40.3693 H         1 UNK         0.3055 
    106 H106       22.9441  -30.7311  -38.2788 H         1 UNK         0.1106 
    107 H107       24.9894  -33.0094  -38.1130 H         1 UNK         0.0828 
    108 H108       25.3258  -31.3066  -37.8060 H         1 UNK         0.0828 
    109 H109       24.2268  -32.1916  -36.7600 H         1 UNK         0.0828 
    110 H110       21.1088  -31.4486  -39.8736 H         1 UNK         0.2931 
    111 H111       20.2164  -34.1453  -39.8040 H         1 UNK         0.0412 
    112 H112       19.9764  -31.7819  -37.2052 H         1 UNK         0.3472 
    113 H113       18.8103  -32.6880  -36.2743 H         1 UNK         0.3472 
    114 H114       18.0613  -33.2902  -40.6645 H         1 UNK         0.0970 
    115 H115       18.5283  -31.6461  -40.3123 H         1 UNK         0.0970 
    116 H116       17.3225  -32.5071  -42.7445 H         1 UNK         0.0612 
    117 H117       18.1890  -33.6813  -43.7036 H         1 UNK         0.0612 
@<TRIPOS>BOND
     1    1    2 1    
     2    1   62 1    
     3    1   63 1    
     4    1   64 1    
     5    2    3 2    
     6    2    4 am   BACKBONE|DICT|INTERRES
     7    4    5 1    
     8    4   65 1    
     9    5    6 1    
    10    5   25 1    
    11    5   66 1    
    12    6    7 1    
    13    6   67 1    
    14    6   68 1    
    15    7    8 1    
    16    8    9 1    
    17    8   69 1    
    18    8   70 1    
    19    9   10 ar   
    20    9   14 ar   
    21   10   11 ar   
    22   10   71 1    
    23   11   12 ar   
    24   11   61 1    
    25   12   13 ar   
    26   12   72 1    
    27   13   14 ar   
    28   13   15 1    
    29   14   73 1    
    30   15   16 1    
    31   15   74 1    
    32   15   75 1    
    33   16   17 1    
    34   17   18 1    
    35   17   76 1    
    36   17   77 1    
    37   18   19 1    
    38   18   27 1    
    39   18   78 1    
    40   19   20 am   BACKBONE|DICT|INTERRES
    41   19   79 1    
    42   20   21 2    
    43   20   22 1    
    44   22   23 1    
    45   22   24 1    
    46   22   80 1    
    47   23   81 1    
    48   23   82 1    
    49   23   83 1    
    50   24   25 am   BACKBONE|DICT|INTERRES
    51   24   84 1    
    52   25   26 2    
    53   27   28 2    
    54   27   29 am   BACKBONE|DICT|INTERRES
    55   29   30 1    
    56   29   85 1    
    57   30   31 1    
    58   30   32 1    
    59   30   86 1    
    60   31   87 1    
    61   31   88 1    
    62   31   89 1    
    63   32   33 2    
    64   32   34 am   BACKBONE|DICT|INTERRES
    65   34   35 1    
    66   34   90 1    
    67   35   36 1    
    68   35   37 1    
    69   35   91 1    
    70   36   92 1    
    71   36   93 1    
    72   36   94 1    
    73   37   38 2    
    74   37   39 am   BACKBONE|DICT|INTERRES
    75   39   40 1    
    76   39   95 1    
    77   40   41 1    
    78   40   42 1    
    79   40   96 1    
    80   41   97 1    
    81   41   98 1    
    82   41   99 1    
    83   42   43 2    
    84   42   44 am   BACKBONE|DICT|INTERRES
    85   44   45 1    
    86   44  100 1    
    87   45   46 1    
    88   45   47 1    
    89   45  101 1    
    90   46  102 1    
    91   46  103 1    
    92   46  104 1    
    93   47   48 2    
    94   47   49 am   BACKBONE|DICT|INTERRES
    95   49   50 1    
    96   49  105 1    
    97   50   51 1    
    98   50   52 1    
    99   50  106 1    
   100   51  107 1    
   101   51  108 1    
   102   51  109 1    
   103   52   53 2    
   104   52   54 am   BACKBONE|DICT|INTERRES
   105   54   55 1    
   106   54  110 1    
   107   55   56 1    
   108   55   59 1    
   109   55  111 1    
   110   56   57 am   BACKBONE|DICT|INTERRES
   111   56   58 2    
   112   57  112 1    
   113   57  113 1    
   114   59   60 1    
   115   59  114 1    
   116   59  115 1    
   117   60   61 1    
   118   61  116 1    
   119   61  117 1    
@<TRIPOS>SUBSTRUCTURE
     1 UNK         1 GROUP             0       ****    0 ROOT    
