@<TRIPOS>MOLECULE
3R8
117   119    1
SMALL
USER_CHARGES


@<TRIPOS>ATOM
      1 CA         19.5296  -30.1870  -48.6656 C.3       0 UNK        -0.2013 
      2 C          19.0682  -29.6570  -47.3177 C.2       0 UNK         0.4866 
      3 O          19.2784  -30.3119  -46.2975 O.2       0 UNK        -0.5176 
      4 N          18.4493  -28.4713  -47.2923 N.am      1 UNK        -0.4884 
      5 CA         17.9546  -27.8000  -46.0850 C.3       1 UNK         0.0853 
      6 C6         16.7347  -26.9091  -46.4347 C.3       10 UNK        -0.0849 
      7 S7         15.7015  -26.4585  -45.0021 S.3       10 UNK        -0.2776 
      8 C8         14.7473  -27.9875  -44.7116 C.3       10 UNK         0.0316 
      9 C9         15.4542  -28.9075  -43.7251 C.ar      10 UNK        -0.0863 
     10 C10        15.9008  -30.1775  -44.1088 C.ar      10 UNK        -0.1009 
     11 C11        16.5623  -31.0084  -43.1961 C.ar      10 UNK        -0.0712 
     12 C12        16.7534  -30.5596  -41.8827 C.ar      10 UNK        -0.0894 
     13 C13        16.3225  -29.2900  -41.4936 C.ar      10 UNK        -0.0745 
     14 C14        15.6627  -28.4756  -42.4138 C.ar      10 UNK        -0.0972 
     15 C15        16.5796  -28.7807  -40.0862 C.3       10 UNK         0.0209 
     16 S16        17.9767  -27.6165  -40.0624 S.3       10 UNK        -0.2568 
     17 C17        19.4070  -28.7546  -40.0670 C.3       10 UNK        -0.0983 
     18 CA         20.7003  -28.1705  -40.6890 C.3       3 UNK         0.0876 
     19 N          20.5923  -27.9508  -42.1412 N.am      3 UNK        -0.4424 
     20 C          21.6396  -27.6421  -42.9221 C.2       2 UNK         0.4918 
     21 O          22.7837  -27.5195  -42.4805 O.2       2 UNK        -0.4875 
     22 CA         21.3955  -27.3961  -44.4214 C.3       2 UNK         0.0481 
     23 CB         22.4748  -28.0739  -45.2844 C.3       2 UNK        -0.1831 
     24 N          20.0838  -27.8509  -44.8880 N.am      2 UNK        -0.4498 
     25 C          19.1135  -27.0646  -45.3737 C.2       1 UNK         0.5027 
     26 O          19.1465  -25.8333  -45.3373 O.2       1 UNK        -0.4969 
     27 C          21.2079  -26.9236  -39.9258 C.2       3 UNK         0.5005 
     28 O          21.9583  -27.0626  -38.9593 O.2       3 UNK        -0.5279 
     29 N          20.8489  -25.7269  -40.4170 N.am      4 UNK        -0.4463 
     30 CA         21.3021  -24.4268  -39.9124 C.3       4 UNK         0.0283 
     31 CB         20.4895  -23.3132  -40.5918 C.3       4 UNK        -0.1875 
     32 C          22.8116  -24.1781  -40.0972 C.2       4 UNK         0.4949 
     33 O          23.3813  -23.3766  -39.3574 O.2       4 UNK        -0.5039 
     34 N          23.4362  -24.8788  -41.0544 N.am      5 UNK        -0.4663 
     35 CA         24.8826  -24.8777  -41.2883 C.3       5 UNK         0.0242 
     36 CB         25.1398  -25.0237  -42.7993 C.3       5 UNK        -0.1982 
     37 C          25.6049  -25.9848  -40.4944 C.2       5 UNK         0.5017 
     38 O          26.8104  -26.1557  -40.6782 O.2       5 UNK        -0.5012 
     39 N          24.8668  -26.7240  -39.6490 N.am      6 UNK        -0.4439 
     40 CA         25.3000  -27.8727  -38.8449 C.3       6 UNK         0.0297 
     41 CB         26.3856  -27.4698  -37.8234 C.3       6 UNK        -0.2006 
     42 C          25.6917  -29.1027  -39.6879 C.2       6 UNK         0.4892 
     43 O          26.4634  -29.9407  -39.2166 O.2       6 UNK        -0.5089 
     44 N          25.1444  -29.2066  -40.9071 N.am      7 UNK        -0.4243 
     45 CA         25.2941  -30.3702  -41.7794 C.3       7 UNK         0.0196 
     46 CB         25.0801  -29.9288  -43.2364 C.3       7 UNK        -0.2007 
     47 C          24.2921  -31.4717  -41.3973 C.2       7 UNK         0.5020 
     48 O          23.3198  -31.2124  -40.6839 O.2       7 UNK        -0.5147 
     49 N          24.5222  -32.6799  -41.9280 N.am      8 UNK        -0.4734 
     50 CA         23.6528  -33.8517  -41.7511 C.3       8 UNK         0.0238 
     51 CB         24.3919  -35.1039  -42.2525 C.3       8 UNK        -0.1912 
     52 C          22.2751  -33.7285  -42.4350 C.2       8 UNK         0.5038 
     53 O          21.3702  -34.4798  -42.0735 O.2       8 UNK        -0.5046 
     54 N          22.1609  -32.7912  -43.3867 N.am      9 UNK        -0.4200 
     55 CA         20.9789  -32.4329  -44.1839 C.3       9 UNK         0.0839 
     56 C          20.5700  -33.4977  -45.2442 C.2       9 UNK         0.5513 
     57 N          19.7113  -33.1216  -46.1804 N.am      9 UNK        -0.7519 
     58 O          21.0367  -34.6352  -45.2559 O.2       9 UNK        -0.4960 
     59 C59        19.8118  -31.8507  -43.3200 C.3       10 UNK        -0.0876 
     60 S60        18.5132  -33.0196  -42.7714 S.3       10 UNK        -0.2414 
     61 C61        17.0399  -32.3885  -43.6515 C.3       10 UNK         0.0169 
     62 H62        19.0446  -31.1392  -48.8786 H         1 UNK         0.0903 
     63 H63        19.2974  -29.4976  -49.4770 H         1 UNK         0.0903 
     64 H64        20.6070  -30.3490  -48.6540 H         1 UNK         0.0903 
     65 H65        18.3361  -27.9568  -48.1547 H         1 UNK         0.3096 
     66 H66        17.6152  -28.5698  -45.3935 H         1 UNK         0.1121 
     67 H67        17.0510  -25.9948  -46.9404 H         1 UNK         0.0849 
     68 H68        16.0896  -27.4235  -47.1490 H         1 UNK         0.0849 
     69 H69        13.7732  -27.7184  -44.3005 H         1 UNK         0.0865 
     70 H70        14.5470  -28.4956  -45.6560 H         1 UNK         0.0865 
     71 H71        15.7425  -30.5176  -45.1234 H         1 UNK         0.1346 
     72 H72        17.2499  -31.1904  -41.1592 H         1 UNK         0.1412 
     73 H73        15.3300  -27.4907  -42.1141 H         1 UNK         0.1426 
     74 H74        16.7702  -29.6043  -39.3961 H         1 UNK         0.0716 
     75 H75        15.6886  -28.2711  -39.7164 H         1 UNK         0.0716 
     76 H76        19.1395  -29.6691  -40.5968 H         1 UNK         0.0695 
     77 H77        19.5956  -29.0598  -39.0360 H         1 UNK         0.0695 
     78 H78        21.4757  -28.9302  -40.5590 H         1 UNK         0.0983 
     79 H79        19.6704  -28.0134  -42.5478 H         1 UNK         0.3095 
     80 H80        21.4922  -26.3184  -44.5649 H         1 UNK         0.0454 
     81 H81        22.4487  -29.1593  -45.1848 H         1 UNK         0.0851 
     82 H82        23.4755  -27.7393  -45.0072 H         1 UNK         0.0851 
     83 H83        22.3417  -27.8349  -46.3395 H         1 UNK         0.0851 
     84 H84        19.9728  -28.8505  -45.0261 H         1 UNK         0.2976 
     85 H85        20.2175  -25.7139  -41.2052 H         1 UNK         0.3116 
     86 H86        21.0958  -24.3967  -38.8405 H         1 UNK         0.0646 
     87 H87        20.6399  -23.3037  -41.6721 H         1 UNK         0.0847 
     88 H88        20.7809  -22.3319  -40.2145 H         1 UNK         0.0847 
     89 H89        19.4221  -23.4263  -40.4008 H         1 UNK         0.0847 
     90 H90        22.9042  -25.5499  -41.5952 H         1 UNK         0.3040 
     91 H91        25.3053  -23.9239  -40.9645 H         1 UNK         0.1015 
     92 H92        24.8155  -25.9941  -43.1758 H         1 UNK         0.0786 
     93 H93        26.2026  -24.9286  -43.0258 H         1 UNK         0.0786 
     94 H94        24.6203  -24.2520  -43.3675 H         1 UNK         0.0786 
     95 H95        23.8774  -26.5113  -39.5740 H         1 UNK         0.3172 
     96 H96        24.4212  -28.1785  -38.2756 H         1 UNK         0.0595 
     97 H97        27.3335  -27.2346  -38.3080 H         1 UNK         0.0839 
     98 H98        26.5771  -28.2791  -37.1178 H         1 UNK         0.0839 
     99 H99        26.0803  -26.6008  -37.2408 H         1 UNK         0.0839 
    100 H100       24.4832  -28.5018  -41.2079 H         1 UNK         0.2998 
    101 H101       26.3075  -30.7651  -41.6780 H         1 UNK         0.0822 
    102 H102       25.7046  -29.0721  -43.4908 H         1 UNK         0.0787 
    103 H103       25.3311  -30.7291  -43.9333 H         1 UNK         0.0787 
    104 H104       24.0427  -29.6529  -43.4187 H         1 UNK         0.0787 
    105 H105       25.3432  -32.8102  -42.5030 H         1 UNK         0.3055 
    106 H106       23.4646  -33.9699  -40.6814 H         1 UNK         0.1106 
    107 H107       23.7875  -35.9998  -42.1029 H         1 UNK         0.0828 
    108 H108       24.6188  -35.0401  -43.3174 H         1 UNK         0.0828 
    109 H109       25.3284  -35.2557  -41.7156 H         1 UNK         0.0828 
    110 H110       22.9972  -32.2744  -43.6100 H         1 UNK         0.2931 
    111 H111       21.3527  -31.5980  -44.7786 H         1 UNK         0.0412 
    112 H112       19.3897  -32.1573  -46.2117 H         1 UNK         0.3472 
    113 H113       19.4281  -33.7779  -46.8899 H         1 UNK         0.3472 
    114 H114       19.3253  -31.0503  -43.8754 H         1 UNK         0.0970 
    115 H115       20.2136  -31.3572  -42.4337 H         1 UNK         0.0970 
    116 H116       17.2582  -32.3765  -44.7205 H         1 UNK         0.0612 
    117 H117       16.2241  -33.0980  -43.5093 H         1 UNK         0.0612 
@<TRIPOS>BOND
     1    1    2 1    
     2    1   62 1    
     3    1   63 1    
     4    1   64 1    
     5    2    3 2    
     6    2    4 am   BACKBONE|DICT|INTERRES
     7    4    5 1    
     8    4   65 1    
     9    5    6 1    
    10    5   25 1    
    11    5   66 1    
    12    6    7 1    
    13    6   67 1    
    14    6   68 1    
    15    7    8 1    
    16    8    9 1    
    17    8   69 1    
    18    8   70 1    
    19    9   10 ar   
    20    9   14 ar   
    21   10   11 ar   
    22   10   71 1    
    23   11   12 ar   
    24   11   61 1    
    25   12   13 ar   
    26   12   72 1    
    27   13   14 ar   
    28   13   15 1    
    29   14   73 1    
    30   15   16 1    
    31   15   74 1    
    32   15   75 1    
    33   16   17 1    
    34   17   18 1    
    35   17   76 1    
    36   17   77 1    
    37   18   19 1    
    38   18   27 1    
    39   18   78 1    
    40   19   20 am   BACKBONE|DICT|INTERRES
    41   19   79 1    
    42   20   21 2    
    43   20   22 1    
    44   22   23 1    
    45   22   24 1    
    46   22   80 1    
    47   23   81 1    
    48   23   82 1    
    49   23   83 1    
    50   24   25 am   BACKBONE|DICT|INTERRES
    51   24   84 1    
    52   25   26 2    
    53   27   28 2    
    54   27   29 am   BACKBONE|DICT|INTERRES
    55   29   30 1    
    56   29   85 1    
    57   30   31 1    
    58   30   32 1    
    59   30   86 1    
    60   31   87 1    
    61   31   88 1    
    62   31   89 1    
    63   32   33 2    
    64   32   34 am   BACKBONE|DICT|INTERRES
    65   34   35 1    
    66   34   90 1    
    67   35   36 1    
    68   35   37 1    
    69   35   91 1    
    70   36   92 1    
    71   36   93 1    
    72   36   94 1    
    73   37   38 2    
    74   37   39 am   BACKBONE|DICT|INTERRES
    75   39   40 1    
    76   39   95 1    
    77   40   41 1    
    78   40   42 1    
    79   40   96 1    
    80   41   97 1    
    81   41   98 1    
    82   41   99 1    
    83   42   43 2    
    84   42   44 am   BACKBONE|DICT|INTERRES
    85   44   45 1    
    86   44  100 1    
    87   45   46 1    
    88   45   47 1    
    89   45  101 1    
    90   46  102 1    
    91   46  103 1    
    92   46  104 1    
    93   47   48 2    
    94   47   49 am   BACKBONE|DICT|INTERRES
    95   49   50 1    
    96   49  105 1    
    97   50   51 1    
    98   50   52 1    
    99   50  106 1    
   100   51  107 1    
   101   51  108 1    
   102   51  109 1    
   103   52   53 2    
   104   52   54 am   BACKBONE|DICT|INTERRES
   105   54   55 1    
   106   54  110 1    
   107   55   56 1    
   108   55   59 1    
   109   55  111 1    
   110   56   57 am   BACKBONE|DICT|INTERRES
   111   56   58 2    
   112   57  112 1    
   113   57  113 1    
   114   59   60 1    
   115   59  114 1    
   116   59  115 1    
   117   60   61 1    
   118   61  116 1    
   119   61  117 1    
@<TRIPOS>SUBSTRUCTURE
     1 UNK         1 GROUP             0       ****    0 ROOT    
