@<TRIPOS>MOLECULE
3R8
117   119    1
SMALL
USER_CHARGES


@<TRIPOS>ATOM
      1 CA         20.8841  -24.5361  -41.1107 C.3       0 UNK        -0.2013 
      2 C          19.5352  -24.3023  -41.7766 C.2       0 UNK         0.4866 
      3 O          18.6569  -23.6782  -41.1801 O.2       0 UNK        -0.5176 
      4 N          19.3743  -24.7980  -43.0061 N.am      1 UNK        -0.4884 
      5 CA         18.1831  -24.6663  -43.8460 C.3       1 UNK         0.0853 
      6 C6         17.4282  -26.0193  -43.9755 C.3       10 UNK        -0.0849 
      7 S7         16.8271  -26.7354  -42.4101 S.3       10 UNK        -0.2776 
      8 C8         15.8031  -28.1154  -43.0295 C.3       10 UNK         0.0316 
      9 C9         16.6336  -29.1868  -43.7280 C.ar      10 UNK        -0.0863 
     10 C10        17.1039  -30.2950  -43.0179 C.ar      10 UNK        -0.1009 
     11 C11        17.8712  -31.2751  -43.6563 C.ar      10 UNK        -0.0712 
     12 C12        18.1843  -31.1317  -45.0125 C.ar      10 UNK        -0.0894 
     13 C13        17.7295  -30.0206  -45.7320 C.ar      10 UNK        -0.0745 
     14 C14        16.9289  -29.0723  -45.0897 C.ar      10 UNK        -0.0972 
     15 C15        18.1057  -29.8169  -47.1975 C.3       10 UNK         0.0209 
     16 S16        19.9020  -29.9010  -47.5355 S.3       10 UNK        -0.2568 
     17 C17        20.6653  -28.9155  -46.2007 C.3       10 UNK        -0.0983 
     18 CA         21.1211  -27.4996  -46.6342 C.3       3 UNK         0.0876 
     19 N          19.9808  -26.6568  -46.9932 N.am      3 UNK        -0.4424 
     20 C          20.0482  -25.5090  -47.6821 C.2       2 UNK         0.4918 
     21 O          21.0492  -25.1242  -48.2868 O.2       2 UNK        -0.4875 
     22 CA         18.7877  -24.6203  -47.6415 C.3       2 UNK         0.0481 
     23 CB         17.7840  -25.0515  -48.7226 C.3       2 UNK        -0.1831 
     24 N          18.1482  -24.6727  -46.3212 N.am      2 UNK        -0.4498 
     25 C          18.6757  -24.1292  -45.2112 C.2       1 UNK         0.5027 
     26 O          19.5646  -23.2735  -45.2438 O.2       1 UNK        -0.4969 
     27 C          21.8817  -26.8554  -45.4581 C.2       3 UNK         0.5005 
     28 O          21.2756  -26.1490  -44.6448 O.2       3 UNK        -0.5279 
     29 N          23.1662  -27.2027  -45.3044 N.am      4 UNK        -0.4463 
     30 CA         23.9882  -26.8811  -44.1306 C.3       4 UNK         0.0283 
     31 CB         25.4760  -26.9990  -44.5096 C.3       4 UNK        -0.1875 
     32 C          23.6162  -27.7627  -42.9180 C.2       4 UNK         0.4949 
     33 O          24.4697  -28.4530  -42.3612 O.2       4 UNK        -0.5039 
     34 N          22.3335  -27.7327  -42.5378 N.am      5 UNK        -0.4663 
     35 CA         21.6639  -28.5613  -41.5295 C.3       5 UNK         0.0242 
     36 CB         20.1437  -28.4527  -41.7543 C.3       5 UNK        -0.1982 
     37 C          22.0588  -28.2602  -40.0669 C.2       5 UNK         0.5017 
     38 O          21.2299  -28.3972  -39.1656 O.2       5 UNK        -0.5012 
     39 N          23.3224  -27.8886  -39.8332 N.am      6 UNK        -0.4439 
     40 CA         23.9210  -27.6414  -38.5201 C.3       6 UNK         0.0297 
     41 CB         25.1116  -26.6801  -38.6922 C.3       6 UNK        -0.2006 
     42 C          24.3198  -28.9726  -37.8560 C.2       6 UNK         0.4892 
     43 O          25.5074  -29.2377  -37.6648 O.2       6 UNK        -0.5089 
     44 N          23.3067  -29.8081  -37.5810 N.am      7 UNK        -0.4243 
     45 CA         23.3809  -31.1883  -37.0768 C.3       7 UNK         0.0196 
     46 CB         24.0292  -31.2378  -35.6767 C.3       7 UNK        -0.2007 
     47 C          24.0288  -32.1871  -38.0617 C.2       7 UNK         0.5020 
     48 O          24.3752  -33.2978  -37.6587 O.2       7 UNK        -0.5147 
     49 N          24.1648  -31.7951  -39.3366 N.am      8 UNK        -0.4734 
     50 CA         24.7341  -32.6136  -40.4123 C.3       8 UNK         0.0238 
     51 CB         25.2003  -31.6859  -41.5461 C.3       8 UNK        -0.1912 
     52 C          23.7570  -33.6696  -40.9599 C.2       8 UNK         0.5038 
     53 O          24.2049  -34.6353  -41.5796 O.2       8 UNK        -0.5046 
     54 N          22.4526  -33.4542  -40.7480 N.am      9 UNK        -0.4200 
     55 CA         21.3543  -34.3347  -41.1683 C.3       9 UNK         0.0839 
     56 C          21.4128  -35.7290  -40.4870 C.2       9 UNK         0.5513 
     57 N          21.1100  -36.7914  -41.2202 N.am      9 UNK        -0.7519 
     58 O          21.6803  -35.8480  -39.2932 O.2       9 UNK        -0.4960 
     59 C59        19.9796  -33.6664  -40.9134 C.3       10 UNK        -0.0876 
     60 S60        19.7800  -32.0992  -41.8294 S.3       10 UNK        -0.2414 
     61 C61        18.3472  -32.4921  -42.8780 C.3       10 UNK         0.0169 
     62 H62        20.7744  -25.2236  -40.2722 H         1 UNK         0.0903 
     63 H63        21.6119  -24.9573  -41.8040 H         1 UNK         0.0903 
     64 H64        21.2855  -23.5965  -40.7321 H         1 UNK         0.0903 
     65 H65        20.1598  -25.2353  -43.4862 H         1 UNK         0.3096 
     66 H66        17.5049  -23.9148  -43.4361 H         1 UNK         0.1121 
     67 H67        16.5587  -25.9130  -44.6262 H         1 UNK         0.0849 
     68 H68        18.0934  -26.7545  -44.4300 H         1 UNK         0.0849 
     69 H69        15.2637  -28.5546  -42.1888 H         1 UNK         0.0865 
     70 H70        15.0389  -27.7297  -43.7060 H         1 UNK         0.0865 
     71 H71        16.8763  -30.3960  -41.9654 H         1 UNK         0.1346 
     72 H72        18.7940  -31.8756  -45.5067 H         1 UNK         0.1412 
     73 H73        16.5533  -28.2249  -45.6457 H         1 UNK         0.1426 
     74 H74        17.6019  -30.5753  -47.7978 H         1 UNK         0.0716 
     75 H75        17.7411  -28.8538  -47.5578 H         1 UNK         0.0716 
     76 H76        19.9998  -28.8518  -45.3394 H         1 UNK         0.0695 
     77 H77        21.5220  -29.4979  -45.8552 H         1 UNK         0.0695 
     78 H78        21.7928  -27.5765  -47.4921 H         1 UNK         0.0983 
     79 H79        19.1209  -26.8762  -46.5198 H         1 UNK         0.3095 
     80 H80        19.0888  -23.5905  -47.8456 H         1 UNK         0.0454 
     81 H81        16.9088  -24.4017  -48.7329 H         1 UNK         0.0851 
     82 H82        18.2357  -24.9982  -49.7142 H         1 UNK         0.0851 
     83 H83        17.4404  -26.0764  -48.5774 H         1 UNK         0.0851 
     84 H84        17.3653  -25.3021  -46.2266 H         1 UNK         0.2976 
     85 H85        23.5850  -27.8236  -45.9828 H         1 UNK         0.3116 
     86 H86        23.8006  -25.8438  -43.8445 H         1 UNK         0.0646 
     87 H87        26.1158  -26.7234  -43.6701 H         1 UNK         0.0847 
     88 H88        25.7294  -26.3362  -45.3371 H         1 UNK         0.0847 
     89 H89        25.7409  -28.0166  -44.7995 H         1 UNK         0.0847 
     90 H90        21.7306  -27.1243  -43.0838 H         1 UNK         0.3040 
     91 H91        21.9510  -29.5985  -41.7147 H         1 UNK         0.1015 
     92 H92        19.7812  -27.4400  -41.5790 H         1 UNK         0.0786 
     93 H93        19.5927  -29.1135  -41.0840 H         1 UNK         0.0786 
     94 H94        19.8672  -28.7357  -42.7704 H         1 UNK         0.0786 
     95 H95        23.9523  -27.8964  -40.6319 H         1 UNK         0.3172 
     96 H96        23.1874  -27.1538  -37.8745 H         1 UNK         0.0595 
     97 H97        25.8800  -27.0991  -39.3435 H         1 UNK         0.0839 
     98 H98        25.5801  -26.4629  -37.7314 H         1 UNK         0.0839 
     99 H99        24.7937  -25.7286  -39.1190 H         1 UNK         0.0839 
    100 H100       22.3760  -29.4793  -37.8219 H         1 UNK         0.2998 
    101 H101       22.3465  -31.5172  -36.9665 H         1 UNK         0.0822 
    102 H102       23.5525  -30.5353  -34.9931 H         1 UNK         0.0787 
    103 H103       23.9333  -32.2308  -35.2357 H         1 UNK         0.0787 
    104 H104       25.0933  -31.0030  -35.7126 H         1 UNK         0.0787 
    105 H105       23.8856  -30.8558  -39.5763 H         1 UNK         0.3055 
    106 H106       25.6049  -33.1454  -40.0216 H         1 UNK         0.1106 
    107 H107       25.6944  -32.2530  -42.3362 H         1 UNK         0.0828 
    108 H108       24.3642  -31.1551  -42.0031 H         1 UNK         0.0828 
    109 H109       25.9134  -30.9426  -41.1884 H         1 UNK         0.0828 
    110 H110       22.1857  -32.6377  -40.2213 H         1 UNK         0.2931 
    111 H111       21.4625  -34.4816  -42.2451 H         1 UNK         0.0412 
    112 H112       21.1249  -37.7040  -40.7914 H         1 UNK         0.3472 
    113 H113       20.8798  -36.7020  -42.1981 H         1 UNK         0.3472 
    114 H114       19.1724  -34.3481  -41.1888 H         1 UNK         0.0970 
    115 H115       19.8445  -33.4611  -39.8497 H         1 UNK         0.0970 
    116 H116       18.6112  -33.3042  -43.5573 H         1 UNK         0.0612 
    117 H117       17.5314  -32.8606  -42.2540 H         1 UNK         0.0612 
@<TRIPOS>BOND
     1    1    2 1    
     2    1   62 1    
     3    1   63 1    
     4    1   64 1    
     5    2    3 2    
     6    2    4 am   BACKBONE|DICT|INTERRES
     7    4    5 1    
     8    4   65 1    
     9    5    6 1    
    10    5   25 1    
    11    5   66 1    
    12    6    7 1    
    13    6   67 1    
    14    6   68 1    
    15    7    8 1    
    16    8    9 1    
    17    8   69 1    
    18    8   70 1    
    19    9   10 ar   
    20    9   14 ar   
    21   10   11 ar   
    22   10   71 1    
    23   11   12 ar   
    24   11   61 1    
    25   12   13 ar   
    26   12   72 1    
    27   13   14 ar   
    28   13   15 1    
    29   14   73 1    
    30   15   16 1    
    31   15   74 1    
    32   15   75 1    
    33   16   17 1    
    34   17   18 1    
    35   17   76 1    
    36   17   77 1    
    37   18   19 1    
    38   18   27 1    
    39   18   78 1    
    40   19   20 am   BACKBONE|DICT|INTERRES
    41   19   79 1    
    42   20   21 2    
    43   20   22 1    
    44   22   23 1    
    45   22   24 1    
    46   22   80 1    
    47   23   81 1    
    48   23   82 1    
    49   23   83 1    
    50   24   25 am   BACKBONE|DICT|INTERRES
    51   24   84 1    
    52   25   26 2    
    53   27   28 2    
    54   27   29 am   BACKBONE|DICT|INTERRES
    55   29   30 1    
    56   29   85 1    
    57   30   31 1    
    58   30   32 1    
    59   30   86 1    
    60   31   87 1    
    61   31   88 1    
    62   31   89 1    
    63   32   33 2    
    64   32   34 am   BACKBONE|DICT|INTERRES
    65   34   35 1    
    66   34   90 1    
    67   35   36 1    
    68   35   37 1    
    69   35   91 1    
    70   36   92 1    
    71   36   93 1    
    72   36   94 1    
    73   37   38 2    
    74   37   39 am   BACKBONE|DICT|INTERRES
    75   39   40 1    
    76   39   95 1    
    77   40   41 1    
    78   40   42 1    
    79   40   96 1    
    80   41   97 1    
    81   41   98 1    
    82   41   99 1    
    83   42   43 2    
    84   42   44 am   BACKBONE|DICT|INTERRES
    85   44   45 1    
    86   44  100 1    
    87   45   46 1    
    88   45   47 1    
    89   45  101 1    
    90   46  102 1    
    91   46  103 1    
    92   46  104 1    
    93   47   48 2    
    94   47   49 am   BACKBONE|DICT|INTERRES
    95   49   50 1    
    96   49  105 1    
    97   50   51 1    
    98   50   52 1    
    99   50  106 1    
   100   51  107 1    
   101   51  108 1    
   102   51  109 1    
   103   52   53 2    
   104   52   54 am   BACKBONE|DICT|INTERRES
   105   54   55 1    
   106   54  110 1    
   107   55   56 1    
   108   55   59 1    
   109   55  111 1    
   110   56   57 am   BACKBONE|DICT|INTERRES
   111   56   58 2    
   112   57  112 1    
   113   57  113 1    
   114   59   60 1    
   115   59  114 1    
   116   59  115 1    
   117   60   61 1    
   118   61  116 1    
   119   61  117 1    
@<TRIPOS>SUBSTRUCTURE
     1 UNK         1 GROUP             0       ****    0 ROOT    
