@<TRIPOS>MOLECULE
3R8
117   119    1
SMALL
USER_CHARGES


@<TRIPOS>ATOM
      1 CA         14.0182  -23.6794  -46.4948 C.3       0 UNK        -0.2013 
      2 C          14.8640  -24.1986  -45.3416 C.2       0 UNK         0.4866 
      3 O          14.8356  -23.6181  -44.2566 O.2       0 UNK        -0.5176 
      4 N          15.6146  -25.2858  -45.5732 N.am      1 UNK        -0.4884 
      5 CA         16.5064  -25.9458  -44.6083 C.3       1 UNK         0.0853 
      6 C6         15.7365  -26.5866  -43.4176 C.3       10 UNK        -0.0849 
      7 S7         16.6328  -27.9591  -42.6066 S.3       10 UNK        -0.2776 
      8 C8         16.2134  -29.3987  -43.6384 C.3       10 UNK         0.0316 
      9 C9         17.4740  -30.0418  -44.1981 C.ar      10 UNK        -0.0863 
     10 C10        18.1162  -31.0734  -43.5046 C.ar      10 UNK        -0.1009 
     11 C11        19.2718  -31.6675  -44.0252 C.ar      10 UNK        -0.0712 
     12 C12        19.7987  -31.2039  -45.2346 C.ar      10 UNK        -0.0894 
     13 C13        19.1683  -30.1709  -45.9333 C.ar      10 UNK        -0.0745 
     14 C14        17.9971  -29.6084  -45.4182 C.ar      10 UNK        -0.0972 
     15 C15        19.7232  -29.6911  -47.2660 C.3       10 UNK         0.0209 
     16 S16        20.0203  -27.8950  -47.2874 S.3       10 UNK        -0.2568 
     17 C17        21.6182  -27.7357  -46.4075 C.3       10 UNK        -0.0983 
     18 CA         21.6177  -26.7737  -45.1790 C.3       3 UNK         0.0876 
     19 N          20.6629  -25.6747  -45.3327 N.am      3 UNK        -0.4424 
     20 C          20.7308  -24.4521  -44.7937 C.2       2 UNK         0.4918 
     21 O          21.6707  -24.0553  -44.1060 O.2       2 UNK        -0.4875 
     22 CA         19.5050  -23.5459  -45.0266 C.3       2 UNK         0.0481 
     23 CB         19.7166  -22.6610  -46.2645 C.3       2 UNK        -0.1831 
     24 N          18.2586  -24.3118  -45.1776 N.am      2 UNK        -0.4498 
     25 C          17.7023  -25.0497  -44.2027 C.2       1 UNK         0.5027 
     26 O          18.1329  -25.0576  -43.0498 O.2       1 UNK        -0.4969 
     27 C          21.5335  -27.4948  -43.8104 C.2       3 UNK         0.5005 
     28 O          22.2493  -28.4766  -43.6149 O.2       3 UNK        -0.5279 
     29 N          20.7603  -26.9653  -42.8448 N.am      4 UNK        -0.4463 
     30 CA         20.7209  -27.4095  -41.4411 C.3       4 UNK         0.0283 
     31 CB         19.7121  -26.5572  -40.6558 C.3       4 UNK        -0.1875 
     32 C          22.0830  -27.3846  -40.7170 C.2       4 UNK         0.4949 
     33 O          22.2478  -28.0820  -39.7182 O.2       4 UNK        -0.5039 
     34 N          23.0343  -26.5921  -41.2299 N.am      5 UNK        -0.4663 
     35 CA         24.4205  -26.5270  -40.7646 C.3       5 UNK         0.0242 
     36 CB         25.0766  -25.2668  -41.3534 C.3       5 UNK        -0.1982 
     37 C          25.2595  -27.7786  -41.0979 C.2       5 UNK         0.5017 
     38 O          26.3441  -27.9241  -40.5312 O.2       5 UNK        -0.5012 
     39 N          24.7820  -28.6417  -42.0092 N.am      6 UNK        -0.4439 
     40 CA         25.4361  -29.9002  -42.3784 C.3       6 UNK         0.0297 
     41 CB         24.8026  -30.4412  -43.6699 C.3       6 UNK        -0.2006 
     42 C          25.3707  -30.9497  -41.2526 C.2       6 UNK         0.4892 
     43 O          24.5221  -30.8602  -40.3607 O.2       6 UNK        -0.5089 
     44 N          26.2791  -31.9327  -41.3252 N.am      7 UNK        -0.4243 
     45 CA         26.4424  -33.0169  -40.3536 C.3       7 UNK         0.0196 
     46 CB         27.5923  -33.9346  -40.8014 C.3       7 UNK        -0.2007 
     47 C          25.1499  -33.8237  -40.1407 C.2       7 UNK         0.5020 
     48 O          24.6199  -34.3882  -41.0986 O.2       7 UNK        -0.5147 
     49 N          24.6801  -33.8424  -38.8861 N.am      8 UNK        -0.4734 
     50 CA         23.4597  -34.4909  -38.3854 C.3       8 UNK         0.0238 
     51 CB         23.4978  -36.0162  -38.6241 C.3       8 UNK        -0.1912 
     52 C          22.1351  -33.8606  -38.8666 C.2       8 UNK         0.5038 
     53 O          21.0787  -34.4216  -38.5689 O.2       8 UNK        -0.5046 
     54 N          22.1862  -32.7113  -39.5551 N.am      9 UNK        -0.4200 
     55 CA         20.9985  -31.9586  -39.9967 C.3       9 UNK         0.0839 
     56 C          20.4452  -30.9681  -38.9321 C.2       9 UNK         0.5513 
     57 N          21.0805  -30.8011  -37.7779 N.am      9 UNK        -0.7519 
     58 O          19.3999  -30.3604  -39.1461 O.2       9 UNK        -0.4960 
     59 C59        21.2212  -31.2610  -41.3623 C.3       10 UNK        -0.0876 
     60 S60        21.5999  -32.4448  -42.6949 S.3       10 UNK        -0.2414 
     61 C61        19.9305  -32.8377  -43.3055 C.3       10 UNK         0.0169 
     62 H62        12.9646  -23.6809  -46.2168 H         1 UNK         0.0903 
     63 H63        14.3044  -22.6567  -46.7389 H         1 UNK         0.0903 
     64 H64        14.1322  -24.2868  -47.3924 H         1 UNK         0.0903 
     65 H65        15.5824  -25.7104  -46.4908 H         1 UNK         0.3096 
     66 H66        16.9589  -26.7629  -45.1687 H         1 UNK         0.1121 
     67 H67        14.7713  -26.9682  -43.7539 H         1 UNK         0.0849 
     68 H68        15.5019  -25.8317  -42.6649 H         1 UNK         0.0849 
     69 H69        15.6587  -30.1190  -43.0351 H         1 UNK         0.0865 
     70 H70        15.5475  -29.1105  -44.4530 H         1 UNK         0.0865 
     71 H71        17.7092  -31.4199  -42.5643 H         1 UNK         0.1346 
     72 H72        20.6946  -31.6594  -45.6337 H         1 UNK         0.1412 
     73 H73        17.4969  -28.8278  -45.9726 H         1 UNK         0.1426 
     74 H74        19.0017  -29.9328  -48.0473 H         1 UNK         0.0716 
     75 H75        20.6437  -30.2153  -47.5272 H         1 UNK         0.0716 
     76 H76        21.9994  -28.7258  -46.1515 H         1 UNK         0.0695 
     77 H77        22.3251  -27.3512  -47.1440 H         1 UNK         0.0695 
     78 H78        22.6094  -26.3160  -45.1588 H         1 UNK         0.0983 
     79 H79        19.8579  -25.9020  -45.8985 H         1 UNK         0.3095 
     80 H80        19.4007  -22.8962  -44.1551 H         1 UNK         0.0454 
     81 H81        20.6247  -22.0645  -46.1656 H         1 UNK         0.0851 
     82 H82        19.8140  -23.2528  -47.1755 H         1 UNK         0.0851 
     83 H83        18.8886  -21.9654  -46.4016 H         1 UNK         0.0851 
     84 H84        17.8317  -24.3216  -46.0931 H         1 UNK         0.2976 
     85 H85        20.1824  -26.1663  -43.0717 H         1 UNK         0.3116 
     86 H86        20.3658  -28.4394  -41.4358 H         1 UNK         0.0646 
     87 H87        19.6831  -26.8520  -39.6057 H         1 UNK         0.0847 
     88 H88        18.7023  -26.6777  -41.0426 H         1 UNK         0.0847 
     89 H89        19.9622  -25.4963  -40.6926 H         1 UNK         0.0847 
     90 H90        22.7998  -26.0345  -42.0386 H         1 UNK         0.3040 
     91 H91        24.4083  -26.4326  -39.6764 H         1 UNK         0.1015 
     92 H92        24.5392  -24.3646  -41.0600 H         1 UNK         0.0786 
     93 H93        25.1085  -25.3003  -42.4432 H         1 UNK         0.0786 
     94 H94        26.1032  -25.1583  -41.0004 H         1 UNK         0.0786 
     95 H95        23.8653  -28.4762  -42.4144 H         1 UNK         0.3172 
     96 H96        26.4876  -29.6841  -42.5793 H         1 UNK         0.0595 
     97 H97        25.2934  -31.3567  -44.0016 H         1 UNK         0.0839 
     98 H98        24.8788  -29.7191  -44.4830 H         1 UNK         0.0839 
     99 H99        23.7471  -30.6721  -43.5309 H         1 UNK         0.0839 
    100 H100       26.9139  -31.9404  -42.1102 H         1 UNK         0.2998 
    101 H101       26.7307  -32.5553  -39.4068 H         1 UNK         0.0822 
    102 H102       28.5327  -33.3882  -40.8770 H         1 UNK         0.0787 
    103 H103       27.7459  -34.7441  -40.0864 H         1 UNK         0.0787 
    104 H104       27.3891  -34.3915  -41.7710 H         1 UNK         0.0787 
    105 H105       25.1942  -33.3180  -38.1906 H         1 UNK         0.3055 
    106 H106       23.4699  -34.3369  -37.3052 H         1 UNK         0.1106 
    107 H107       23.4011  -36.2656  -39.6808 H         1 UNK         0.0828 
    108 H108       24.4269  -36.4533  -38.2586 H         1 UNK         0.0828 
    109 H109       22.6811  -36.5151  -38.1010 H         1 UNK         0.0828 
    110 H110       23.0835  -32.2881  -39.7656 H         1 UNK         0.2931 
    111 H111       20.1882  -32.6732  -40.1525 H         1 UNK         0.0412 
    112 H112       21.9465  -31.2813  -37.5976 H         1 UNK         0.3472 
    113 H113       20.7079  -30.1563  -37.0992 H         1 UNK         0.3472 
    114 H114       20.3388  -30.6910  -41.6530 H         1 UNK         0.0970 
    115 H115       22.0362  -30.5384  -41.2971 H         1 UNK         0.0970 
    116 H116       19.3161  -33.1804  -42.4717 H         1 UNK         0.0612 
    117 H117       20.0031  -33.6790  -43.9959 H         1 UNK         0.0612 
@<TRIPOS>BOND
     1    1    2 1    
     2    1   62 1    
     3    1   63 1    
     4    1   64 1    
     5    2    3 2    
     6    2    4 am   BACKBONE|DICT|INTERRES
     7    4    5 1    
     8    4   65 1    
     9    5    6 1    
    10    5   25 1    
    11    5   66 1    
    12    6    7 1    
    13    6   67 1    
    14    6   68 1    
    15    7    8 1    
    16    8    9 1    
    17    8   69 1    
    18    8   70 1    
    19    9   10 ar   
    20    9   14 ar   
    21   10   11 ar   
    22   10   71 1    
    23   11   12 ar   
    24   11   61 1    
    25   12   13 ar   
    26   12   72 1    
    27   13   14 ar   
    28   13   15 1    
    29   14   73 1    
    30   15   16 1    
    31   15   74 1    
    32   15   75 1    
    33   16   17 1    
    34   17   18 1    
    35   17   76 1    
    36   17   77 1    
    37   18   19 1    
    38   18   27 1    
    39   18   78 1    
    40   19   20 am   BACKBONE|DICT|INTERRES
    41   19   79 1    
    42   20   21 2    
    43   20   22 1    
    44   22   23 1    
    45   22   24 1    
    46   22   80 1    
    47   23   81 1    
    48   23   82 1    
    49   23   83 1    
    50   24   25 am   BACKBONE|DICT|INTERRES
    51   24   84 1    
    52   25   26 2    
    53   27   28 2    
    54   27   29 am   BACKBONE|DICT|INTERRES
    55   29   30 1    
    56   29   85 1    
    57   30   31 1    
    58   30   32 1    
    59   30   86 1    
    60   31   87 1    
    61   31   88 1    
    62   31   89 1    
    63   32   33 2    
    64   32   34 am   BACKBONE|DICT|INTERRES
    65   34   35 1    
    66   34   90 1    
    67   35   36 1    
    68   35   37 1    
    69   35   91 1    
    70   36   92 1    
    71   36   93 1    
    72   36   94 1    
    73   37   38 2    
    74   37   39 am   BACKBONE|DICT|INTERRES
    75   39   40 1    
    76   39   95 1    
    77   40   41 1    
    78   40   42 1    
    79   40   96 1    
    80   41   97 1    
    81   41   98 1    
    82   41   99 1    
    83   42   43 2    
    84   42   44 am   BACKBONE|DICT|INTERRES
    85   44   45 1    
    86   44  100 1    
    87   45   46 1    
    88   45   47 1    
    89   45  101 1    
    90   46  102 1    
    91   46  103 1    
    92   46  104 1    
    93   47   48 2    
    94   47   49 am   BACKBONE|DICT|INTERRES
    95   49   50 1    
    96   49  105 1    
    97   50   51 1    
    98   50   52 1    
    99   50  106 1    
   100   51  107 1    
   101   51  108 1    
   102   51  109 1    
   103   52   53 2    
   104   52   54 am   BACKBONE|DICT|INTERRES
   105   54   55 1    
   106   54  110 1    
   107   55   56 1    
   108   55   59 1    
   109   55  111 1    
   110   56   57 am   BACKBONE|DICT|INTERRES
   111   56   58 2    
   112   57  112 1    
   113   57  113 1    
   114   59   60 1    
   115   59  114 1    
   116   59  115 1    
   117   60   61 1    
   118   61  116 1    
   119   61  117 1    
@<TRIPOS>SUBSTRUCTURE
     1 UNK         1 GROUP             0       ****    0 ROOT    
