@<TRIPOS>MOLECULE
3R8
117   119    1
SMALL
USER_CHARGES


@<TRIPOS>ATOM
      1 CA         19.5265  -28.2050  -41.2034 C.3       0 UNK        -0.2013 
      2 C          19.3772  -27.3093  -42.4228 C.2       0 UNK         0.4866 
      3 O          19.9220  -27.6362  -43.4816 O.2       0 UNK        -0.5176 
      4 N          18.6536  -26.1859  -42.2737 N.am      1 UNK        -0.4884 
      5 CA         18.3494  -25.1797  -43.3045 C.3       1 UNK         0.0853 
      6 C6         17.3550  -25.7135  -44.3746 C.3       10 UNK        -0.0849 
      7 S7         15.6366  -25.8993  -43.7805 S.3       10 UNK        -0.2776 
      8 C8         15.5939  -27.5302  -42.9486 C.3       10 UNK         0.0316 
      9 C9         16.0682  -28.7399  -43.7572 C.ar      10 UNK        -0.0863 
     10 C10        16.4004  -29.9059  -43.0595 C.ar      10 UNK        -0.1009 
     11 C11        16.8851  -31.0302  -43.7319 C.ar      10 UNK        -0.0712 
     12 C12        17.0585  -30.9825  -45.1165 C.ar      10 UNK        -0.0894 
     13 C13        16.7325  -29.8260  -45.8294 C.ar      10 UNK        -0.0745 
     14 C14        16.1960  -28.7273  -45.1528 C.ar      10 UNK        -0.0972 
     15 C15        17.0147  -29.7423  -47.3225 C.3       10 UNK         0.0209 
     16 S16        18.4283  -28.6442  -47.6833 S.3       10 UNK        -0.2568 
     17 C17        19.7720  -29.4290  -46.7264 C.3       10 UNK        -0.0983 
     18 CA         21.0774  -28.5941  -46.7285 C.3       3 UNK         0.0876 
     19 N          20.8812  -27.2476  -46.1888 N.am      3 UNK        -0.4424 
     20 C          21.5819  -26.1593  -46.5425 C.2       2 UNK         0.4918 
     21 O          22.4771  -26.1724  -47.3876 O.2       2 UNK        -0.4875 
     22 CA         21.2123  -24.8283  -45.8547 C.3       2 UNK         0.0481 
     23 CB         21.1587  -23.6585  -46.8531 C.3       2 UNK        -0.1831 
     24 N          19.9210  -24.9484  -45.1800 N.am      2 UNK        -0.4498 
     25 C          19.6639  -24.6304  -43.9059 C.2       1 UNK         0.5027 
     26 O          20.4269  -23.9788  -43.1913 O.2       1 UNK        -0.4969 
     27 C          22.1833  -29.2897  -45.9178 C.2       3 UNK         0.5005 
     28 O          23.1996  -29.6913  -46.4868 O.2       3 UNK        -0.5279 
     29 N          21.9776  -29.3675  -44.5954 N.am      4 UNK        -0.4463 
     30 CA         22.9878  -29.7674  -43.6127 C.3       4 UNK         0.0283 
     31 CB         22.3535  -30.7246  -42.5930 C.3       4 UNK        -0.1875 
     32 C          23.5993  -28.5379  -42.9157 C.2       4 UNK         0.4949 
     33 O          24.7000  -28.6413  -42.3730 O.2       4 UNK        -0.5039 
     34 N          22.9001  -27.3923  -42.9727 N.am      5 UNK        -0.4663 
     35 CA         23.2956  -26.0814  -42.4532 C.3       5 UNK         0.0242 
     36 CB         24.4800  -25.5088  -43.2664 C.3       5 UNK        -0.1982 
     37 C          23.5234  -26.1166  -40.9320 C.2       5 UNK         0.5017 
     38 O          22.5514  -26.2319  -40.1852 O.2       5 UNK        -0.5012 
     39 N          24.7876  -26.0100  -40.5032 N.am      6 UNK        -0.4439 
     40 CA         25.2024  -26.0647  -39.1005 C.3       6 UNK         0.0297 
     41 CB         26.6177  -25.4771  -38.9731 C.3       6 UNK        -0.2006 
     42 C          25.1530  -27.4810  -38.4971 C.2       6 UNK         0.4892 
     43 O          25.0966  -27.5996  -37.2719 O.2       6 UNK        -0.5089 
     44 N          25.1930  -28.5203  -39.3421 N.am      7 UNK        -0.4243 
     45 CA         25.0903  -29.9191  -38.9287 C.3       7 UNK         0.0196 
     46 CB         25.8779  -30.7918  -39.9213 C.3       7 UNK        -0.2007 
     47 C          23.6215  -30.3638  -38.8697 C.2       7 UNK         0.5020 
     48 O          22.7533  -29.7370  -39.4802 O.2       7 UNK        -0.5147 
     49 N          23.3750  -31.4720  -38.1638 N.am      8 UNK        -0.4734 
     50 CA         22.0947  -32.1797  -38.1865 C.3       8 UNK         0.0238 
     51 CB         21.9534  -33.0092  -36.8996 C.3       8 UNK        -0.1912 
     52 C          22.0191  -33.0891  -39.4237 C.2       8 UNK         0.5038 
     53 O          23.0448  -33.6348  -39.8405 O.2       8 UNK        -0.5046 
     54 N          20.8091  -33.2548  -39.9674 N.am      9 UNK        -0.4200 
     55 CA         20.5172  -34.1653  -41.0841 C.3       9 UNK         0.0839 
     56 C          20.6674  -35.6580  -40.6819 C.2       9 UNK         0.5513 
     57 N          21.1166  -36.5045  -41.5981 N.am      9 UNK        -0.7519 
     58 O          20.3390  -36.0595  -39.5670 O.2       9 UNK        -0.4960 
     59 C59        19.1105  -33.9022  -41.6761 C.3       10 UNK        -0.0876 
     60 S60        18.9561  -32.2259  -42.3719 S.3       10 UNK        -0.2414 
     61 C61        17.2407  -32.2897  -42.9615 C.3       10 UNK         0.0169 
     62 H62        19.2136  -29.2200  -41.4467 H         1 UNK         0.0903 
     63 H63        20.5687  -28.2346  -40.8848 H         1 UNK         0.0903 
     64 H64        18.9248  -27.8573  -40.3642 H         1 UNK         0.0903 
     65 H65        18.2846  -25.9689  -41.3585 H         1 UNK         0.3096 
     66 H66        17.8812  -24.3336  -42.7986 H         1 UNK         0.1121 
     67 H67        17.2817  -25.0118  -45.2078 H         1 UNK         0.0849 
     68 H68        17.7188  -26.6470  -44.8013 H         1 UNK         0.0849 
     69 H69        16.1813  -27.4563  -42.0329 H         1 UNK         0.0865 
     70 H70        14.5675  -27.7178  -42.6308 H         1 UNK         0.0865 
     71 H71        16.2951  -29.9372  -41.9834 H         1 UNK         0.1346 
     72 H72        17.4709  -31.8378  -45.6341 H         1 UNK         0.1412 
     73 H73        15.9349  -27.8451  -45.7198 H         1 UNK         0.1426 
     74 H74        16.1305  -29.3663  -47.8390 H         1 UNK         0.0716 
     75 H75        17.2161  -30.7315  -47.7367 H         1 UNK         0.0716 
     76 H76        19.4267  -29.5781  -45.7022 H         1 UNK         0.0695 
     77 H77        19.9513  -30.4225  -47.1416 H         1 UNK         0.0695 
     78 H78        21.4223  -28.5159  -47.7623 H         1 UNK         0.0983 
     79 H79        20.2417  -27.1836  -45.4046 H         1 UNK         0.3095 
     80 H80        21.9984  -24.6264  -45.1251 H         1 UNK         0.0454 
     81 H81        22.1239  -23.5110  -47.3392 H         1 UNK         0.0851 
     82 H82        20.4202  -23.8314  -47.6367 H         1 UNK         0.0851 
     83 H83        20.9048  -22.7238  -46.3531 H         1 UNK         0.0851 
     84 H84        19.2136  -25.4520  -45.6965 H         1 UNK         0.2976 
     85 H85        21.1099  -28.9924  -44.2216 H         1 UNK         0.3116 
     86 H86        23.8032  -30.2996  -44.1069 H         1 UNK         0.0646 
     87 H87        21.5558  -30.2460  -42.0251 H         1 UNK         0.0847 
     88 H88        23.0960  -31.0779  -41.8771 H         1 UNK         0.0847 
     89 H89        21.9355  -31.6045  -43.0815 H         1 UNK         0.0847 
     90 H90        21.9682  -27.4334  -43.3668 H         1 UNK         0.3040 
     91 H91        22.4452  -25.4191  -42.6075 H         1 UNK         0.1015 
     92 H92        24.2189  -25.4163  -44.3205 H         1 UNK         0.0786 
     93 H93        25.3704  -26.1356  -43.2090 H         1 UNK         0.0786 
     94 H94        24.7505  -24.5110  -42.9179 H         1 UNK         0.0786 
     95 H95        25.5197  -25.9414  -41.1957 H         1 UNK         0.3172 
     96 H96        24.5223  -25.4384  -38.5190 H         1 UNK         0.0595 
     97 H97        26.6546  -24.4467  -39.3272 H         1 UNK         0.0839 
     98 H98        27.3486  -26.0554  -39.5399 H         1 UNK         0.0839 
     99 H99        26.9450  -25.4710  -37.9324 H         1 UNK         0.0839 
    100 H100       25.1443  -28.3467  -40.3406 H         1 UNK         0.2998 
    101 H101       25.5314  -30.0403  -37.9367 H         1 UNK         0.0822 
    102 H102       25.4536  -30.7478  -40.9246 H         1 UNK         0.0787 
    103 H103       26.9202  -30.4786  -39.9848 H         1 UNK         0.0787 
    104 H104       25.8727  -31.8387  -39.6153 H         1 UNK         0.0787 
    105 H105       24.1492  -31.9598  -37.7359 H         1 UNK         0.3055 
    106 H106       21.2800  -31.4522  -38.2259 H         1 UNK         0.1106 
    107 H107       21.9950  -32.3766  -36.0127 H         1 UNK         0.0828 
    108 H108       20.9979  -33.5351  -36.8770 H         1 UNK         0.0828 
    109 H109       22.7393  -33.7609  -36.8138 H         1 UNK         0.0828 
    110 H110       20.0132  -32.7879  -39.5600 H         1 UNK         0.2931 
    111 H111       21.2517  -33.9584  -41.8659 H         1 UNK         0.0412 
    112 H112       21.2061  -37.4808  -41.3624 H         1 UNK         0.3472 
    113 H113       21.3802  -36.1859  -42.5180 H         1 UNK         0.3472 
    114 H114       18.3385  -34.0477  -40.9179 H         1 UNK         0.0970 
    115 H115       18.8951  -34.6151  -42.4747 H         1 UNK         0.0970 
    116 H116       17.1053  -33.1670  -43.5960 H         1 UNK         0.0612 
    117 H117       16.5687  -32.4136  -42.1109 H         1 UNK         0.0612 
@<TRIPOS>BOND
     1    1    2 1    
     2    1   62 1    
     3    1   63 1    
     4    1   64 1    
     5    2    3 2    
     6    2    4 am   BACKBONE|DICT|INTERRES
     7    4    5 1    
     8    4   65 1    
     9    5    6 1    
    10    5   25 1    
    11    5   66 1    
    12    6    7 1    
    13    6   67 1    
    14    6   68 1    
    15    7    8 1    
    16    8    9 1    
    17    8   69 1    
    18    8   70 1    
    19    9   10 ar   
    20    9   14 ar   
    21   10   11 ar   
    22   10   71 1    
    23   11   12 ar   
    24   11   61 1    
    25   12   13 ar   
    26   12   72 1    
    27   13   14 ar   
    28   13   15 1    
    29   14   73 1    
    30   15   16 1    
    31   15   74 1    
    32   15   75 1    
    33   16   17 1    
    34   17   18 1    
    35   17   76 1    
    36   17   77 1    
    37   18   19 1    
    38   18   27 1    
    39   18   78 1    
    40   19   20 am   BACKBONE|DICT|INTERRES
    41   19   79 1    
    42   20   21 2    
    43   20   22 1    
    44   22   23 1    
    45   22   24 1    
    46   22   80 1    
    47   23   81 1    
    48   23   82 1    
    49   23   83 1    
    50   24   25 am   BACKBONE|DICT|INTERRES
    51   24   84 1    
    52   25   26 2    
    53   27   28 2    
    54   27   29 am   BACKBONE|DICT|INTERRES
    55   29   30 1    
    56   29   85 1    
    57   30   31 1    
    58   30   32 1    
    59   30   86 1    
    60   31   87 1    
    61   31   88 1    
    62   31   89 1    
    63   32   33 2    
    64   32   34 am   BACKBONE|DICT|INTERRES
    65   34   35 1    
    66   34   90 1    
    67   35   36 1    
    68   35   37 1    
    69   35   91 1    
    70   36   92 1    
    71   36   93 1    
    72   36   94 1    
    73   37   38 2    
    74   37   39 am   BACKBONE|DICT|INTERRES
    75   39   40 1    
    76   39   95 1    
    77   40   41 1    
    78   40   42 1    
    79   40   96 1    
    80   41   97 1    
    81   41   98 1    
    82   41   99 1    
    83   42   43 2    
    84   42   44 am   BACKBONE|DICT|INTERRES
    85   44   45 1    
    86   44  100 1    
    87   45   46 1    
    88   45   47 1    
    89   45  101 1    
    90   46  102 1    
    91   46  103 1    
    92   46  104 1    
    93   47   48 2    
    94   47   49 am   BACKBONE|DICT|INTERRES
    95   49   50 1    
    96   49  105 1    
    97   50   51 1    
    98   50   52 1    
    99   50  106 1    
   100   51  107 1    
   101   51  108 1    
   102   51  109 1    
   103   52   53 2    
   104   52   54 am   BACKBONE|DICT|INTERRES
   105   54   55 1    
   106   54  110 1    
   107   55   56 1    
   108   55   59 1    
   109   55  111 1    
   110   56   57 am   BACKBONE|DICT|INTERRES
   111   56   58 2    
   112   57  112 1    
   113   57  113 1    
   114   59   60 1    
   115   59  114 1    
   116   59  115 1    
   117   60   61 1    
   118   61  116 1    
   119   61  117 1    
@<TRIPOS>SUBSTRUCTURE
     1 UNK         1 GROUP             0       ****    0 ROOT    
