@<TRIPOS>MOLECULE
3R8
117   119    1
SMALL
USER_CHARGES


@<TRIPOS>ATOM
      1 CA         18.8981  -24.6194  -39.9068 C.3       0 UNK        -0.2013 
      2 C          20.1926  -25.1656  -40.4998 C.2       0 UNK         0.4866 
      3 O          21.2076  -25.1906  -39.8072 O.2       0 UNK        -0.5176 
      4 N          20.2161  -25.6066  -41.7615 N.am      1 UNK        -0.4884 
      5 CA         19.1361  -25.5898  -42.7529 C.3       1 UNK         0.0853 
      6 C6         18.6346  -27.0261  -43.0637 C.3       10 UNK        -0.0849 
      7 S7         17.8694  -27.8415  -41.6234 S.3       10 UNK        -0.2776 
      8 C8         16.8801  -29.1524  -42.4145 C.3       10 UNK         0.0316 
      9 C9         17.7134  -30.0313  -43.3382 C.ar      10 UNK        -0.0863 
     10 C10        18.6890  -30.8833  -42.8110 C.ar      10 UNK        -0.1009 
     11 C11        19.4638  -31.6827  -43.6563 C.ar      10 UNK        -0.0712 
     12 C12        19.2567  -31.6277  -45.0374 C.ar      10 UNK        -0.0894 
     13 C13        18.2833  -30.7810  -45.5769 C.ar      10 UNK        -0.0745 
     14 C14        17.5104  -29.9898  -44.7217 C.ar      10 UNK        -0.0972 
     15 C15        18.0741  -30.7184  -47.0849 C.3       10 UNK         0.0209 
     16 S16        18.5421  -29.1039  -47.7912 S.3       10 UNK        -0.2568 
     17 C17        20.2994  -28.9852  -47.3121 C.3       10 UNK        -0.0983 
     18 CA         20.8921  -27.5698  -47.5241 C.3       3 UNK         0.0876 
     19 N          20.0769  -26.5279  -46.8900 N.am      3 UNK        -0.4424 
     20 C          20.1657  -25.2150  -47.1444 C.2       2 UNK         0.4918 
     21 O          20.9632  -24.7218  -47.9421 O.2       2 UNK        -0.4875 
     22 CA         19.1891  -24.2929  -46.3868 C.3       2 UNK         0.0481 
     23 CB         17.9188  -24.0619  -47.2207 C.3       2 UNK        -0.1831 
     24 N          18.8160  -24.8045  -45.0624 N.am      2 UNK        -0.4498 
     25 C          19.6661  -24.9009  -44.0296 C.2       1 UNK         0.5027 
     26 O          20.8255  -24.4809  -44.0784 O.2       1 UNK        -0.4969 
     27 C          22.3527  -27.5365  -47.0310 C.2       3 UNK         0.5005 
     28 O          23.2746  -27.6833  -47.8353 O.2       3 UNK        -0.5279 
     29 N          22.5285  -27.3514  -45.7177 N.am      4 UNK        -0.4463 
     30 CA         23.7966  -27.3047  -44.9993 C.3       4 UNK         0.0283 
     31 CB         24.4034  -28.7158  -44.8793 C.3       4 UNK        -0.1875 
     32 C          23.5124  -26.7241  -43.6119 C.2       4 UNK         0.4949 
     33 O          22.4031  -26.8922  -43.1000 O.2       4 UNK        -0.5039 
     34 N          24.5150  -26.0778  -43.0080 N.am      5 UNK        -0.4663 
     35 CA         24.4228  -25.3938  -41.7121 C.3       5 UNK         0.0242 
     36 CB         25.5304  -24.3250  -41.6398 C.3       5 UNK        -0.1982 
     37 C          24.4413  -26.3521  -40.5001 C.2       5 UNK         0.5017 
     38 O          25.1992  -26.1309  -39.5531 O.2       5 UNK        -0.5012 
     39 N          23.6090  -27.3956  -40.5443 N.am      6 UNK        -0.4439 
     40 CA         23.3533  -28.3349  -39.4607 C.3       6 UNK         0.0297 
     41 CB         24.4299  -29.4344  -39.4323 C.3       6 UNK        -0.2006 
     42 C          21.9593  -28.9291  -39.6763 C.2       6 UNK         0.4892 
     43 O          21.6549  -29.3628  -40.7889 O.2       6 UNK        -0.5089 
     44 N          21.1484  -28.9512  -38.6106 N.am      7 UNK        -0.4243 
     45 CA         19.8046  -29.5361  -38.6188 C.3       7 UNK         0.0196 
     46 CB         18.9981  -28.9871  -37.4316 C.3       7 UNK        -0.2007 
     47 C          19.8265  -31.0733  -38.6017 C.2       7 UNK         0.5020 
     48 O          18.9178  -31.6968  -39.1490 O.2       7 UNK        -0.5147 
     49 N          20.8621  -31.6558  -37.9841 N.am      8 UNK        -0.4734 
     50 CA         21.1519  -33.0862  -38.0312 C.3       8 UNK         0.0238 
     51 CB         21.8552  -33.5083  -36.7309 C.3       8 UNK        -0.1912 
     52 C          22.0417  -33.3616  -39.2497 C.2       8 UNK         0.5038 
     53 O          23.0819  -32.7147  -39.3915 O.2       8 UNK        -0.5046 
     54 N          21.6221  -34.3048  -40.0987 N.am      9 UNK        -0.4200 
     55 CA         22.3161  -34.6613  -41.3471 C.3       9 UNK         0.0839 
     56 C          23.5530  -35.5879  -41.1620 C.2       9 UNK         0.5513 
     57 N          23.8250  -36.1109  -39.9724 N.am      9 UNK        -0.7519 
     58 O          24.2836  -35.8327  -42.1184 O.2       9 UNK        -0.4960 
     59 C59        21.3389  -35.2385  -42.4073 C.3       10 UNK        -0.0876 
     60 S60        19.8360  -34.2395  -42.7005 S.3       10 UNK        -0.2414 
     61 C61        20.5294  -32.6014  -43.0815 C.3       10 UNK         0.0169 
     62 H62        18.0811  -25.3308  -40.0224 H         1 UNK         0.0903 
     63 H63        19.0185  -24.4278  -38.8405 H         1 UNK         0.0903 
     64 H64        18.6213  -23.6805  -40.3857 H         1 UNK         0.0903 
     65 H65        21.0946  -25.9423  -42.1508 H         1 UNK         0.3096 
     66 H66        18.2958  -24.9857  -42.4086 H         1 UNK         0.1121 
     67 H67        19.4594  -27.6535  -43.4095 H         1 UNK         0.0849 
     68 H68        17.8940  -27.0204  -43.8648 H         1 UNK         0.0849 
     69 H69        16.4308  -29.7730  -41.6378 H         1 UNK         0.0865 
     70 H70        16.0510  -28.6947  -42.9563 H         1 UNK         0.0865 
     71 H71        18.8524  -30.9160  -41.7421 H         1 UNK         0.1346 
     72 H72        19.8577  -32.2441  -45.6918 H         1 UNK         0.1412 
     73 H73        16.7602  -29.3326  -45.1399 H         1 UNK         0.1426 
     74 H74        17.0237  -30.9102  -47.3081 H         1 UNK         0.0716 
     75 H75        18.6419  -31.5018  -47.5894 H         1 UNK         0.0716 
     76 H76        20.8597  -29.7248  -47.8875 H         1 UNK         0.0695 
     77 H77        20.3963  -29.2737  -46.2642 H         1 UNK         0.0695 
     78 H78        20.9068  -27.3687  -48.5978 H         1 UNK         0.0983 
     79 H79        19.3606  -26.8501  -46.2581 H         1 UNK         0.3095 
     80 H80        19.6835  -23.3286  -46.2508 H         1 UNK         0.0454 
     81 H81        18.1662  -23.6539  -48.2018 H         1 UNK         0.0851 
     82 H82        17.2491  -23.3506  -46.7372 H         1 UNK         0.0851 
     83 H83        17.3664  -24.9881  -47.3845 H         1 UNK         0.0851 
     84 H84        17.8650  -25.1278  -44.9547 H         1 UNK         0.2976 
     85 H85        21.7253  -27.1965  -45.1206 H         1 UNK         0.3116 
     86 H86        24.4838  -26.6437  -45.5315 H         1 UNK         0.0646 
     87 H87        25.3358  -28.6951  -44.3137 H         1 UNK         0.0847 
     88 H88        23.7263  -29.4007  -44.3667 H         1 UNK         0.0847 
     89 H89        24.6310  -29.1399  -45.8572 H         1 UNK         0.0847 
     90 H90        25.4092  -26.0275  -43.4756 H         1 UNK         0.3040 
     91 H91        23.4639  -24.8711  -41.6709 H         1 UNK         0.1015 
     92 H92        25.4532  -23.7416  -40.7211 H         1 UNK         0.0786 
     93 H93        25.4594  -23.6223  -42.4703 H         1 UNK         0.0786 
     94 H94        26.5248  -24.7726  -41.6606 H         1 UNK         0.0786 
     95 H95        23.0007  -27.4947  -41.3551 H         1 UNK         0.3172 
     96 H96        23.3665  -27.7935  -38.5123 H         1 UNK         0.0595 
     97 H97        24.4541  -29.9956  -40.3674 H         1 UNK         0.0839 
     98 H98        24.2366  -30.1492  -38.6315 H         1 UNK         0.0839 
     99 H99        25.4230  -29.0182  -39.2642 H         1 UNK         0.0839 
    100 H100       21.4704  -28.5563  -37.7385 H         1 UNK         0.2998 
    101 H101       19.3046  -29.2301  -39.5388 H         1 UNK         0.0822 
    102 H102       17.9847  -29.3908  -37.4311 H         1 UNK         0.0787 
    103 H103       19.4537  -29.2478  -36.4756 H         1 UNK         0.0787 
    104 H104       18.9121  -27.9015  -37.4810 H         1 UNK         0.0787 
    105 H105       21.5888  -31.0639  -37.6101 H         1 UNK         0.3055 
    106 H106       20.2212  -33.6513  -38.1186 H         1 UNK         0.1106 
    107 H107       21.2307  -33.3082  -35.8601 H         1 UNK         0.0828 
    108 H108       22.0719  -34.5770  -36.7347 H         1 UNK         0.0828 
    109 H109       22.8016  -32.9847  -36.5913 H         1 UNK         0.0828 
    110 H110       20.7577  -34.7935  -39.9177 H         1 UNK         0.2931 
    111 H111       22.7241  -33.7387  -41.7637 H         1 UNK         0.0412 
    112 H112       24.6317  -36.7064  -39.8668 H         1 UNK         0.3472 
    113 H113       23.2354  -35.9140  -39.1800 H         1 UNK         0.3472 
    114 H114       21.8497  -35.3593  -43.3646 H         1 UNK         0.0970 
    115 H115       21.0159  -36.2391  -42.1140 H         1 UNK         0.0970 
    116 H116       21.3538  -32.7071  -43.7884 H         1 UNK         0.0612 
    117 H117       20.9478  -32.1603  -42.1749 H         1 UNK         0.0612 
@<TRIPOS>BOND
     1    1    2 1    
     2    1   62 1    
     3    1   63 1    
     4    1   64 1    
     5    2    3 2    
     6    2    4 am   BACKBONE|DICT|INTERRES
     7    4    5 1    
     8    4   65 1    
     9    5    6 1    
    10    5   25 1    
    11    5   66 1    
    12    6    7 1    
    13    6   67 1    
    14    6   68 1    
    15    7    8 1    
    16    8    9 1    
    17    8   69 1    
    18    8   70 1    
    19    9   10 ar   
    20    9   14 ar   
    21   10   11 ar   
    22   10   71 1    
    23   11   12 ar   
    24   11   61 1    
    25   12   13 ar   
    26   12   72 1    
    27   13   14 ar   
    28   13   15 1    
    29   14   73 1    
    30   15   16 1    
    31   15   74 1    
    32   15   75 1    
    33   16   17 1    
    34   17   18 1    
    35   17   76 1    
    36   17   77 1    
    37   18   19 1    
    38   18   27 1    
    39   18   78 1    
    40   19   20 am   BACKBONE|DICT|INTERRES
    41   19   79 1    
    42   20   21 2    
    43   20   22 1    
    44   22   23 1    
    45   22   24 1    
    46   22   80 1    
    47   23   81 1    
    48   23   82 1    
    49   23   83 1    
    50   24   25 am   BACKBONE|DICT|INTERRES
    51   24   84 1    
    52   25   26 2    
    53   27   28 2    
    54   27   29 am   BACKBONE|DICT|INTERRES
    55   29   30 1    
    56   29   85 1    
    57   30   31 1    
    58   30   32 1    
    59   30   86 1    
    60   31   87 1    
    61   31   88 1    
    62   31   89 1    
    63   32   33 2    
    64   32   34 am   BACKBONE|DICT|INTERRES
    65   34   35 1    
    66   34   90 1    
    67   35   36 1    
    68   35   37 1    
    69   35   91 1    
    70   36   92 1    
    71   36   93 1    
    72   36   94 1    
    73   37   38 2    
    74   37   39 am   BACKBONE|DICT|INTERRES
    75   39   40 1    
    76   39   95 1    
    77   40   41 1    
    78   40   42 1    
    79   40   96 1    
    80   41   97 1    
    81   41   98 1    
    82   41   99 1    
    83   42   43 2    
    84   42   44 am   BACKBONE|DICT|INTERRES
    85   44   45 1    
    86   44  100 1    
    87   45   46 1    
    88   45   47 1    
    89   45  101 1    
    90   46  102 1    
    91   46  103 1    
    92   46  104 1    
    93   47   48 2    
    94   47   49 am   BACKBONE|DICT|INTERRES
    95   49   50 1    
    96   49  105 1    
    97   50   51 1    
    98   50   52 1    
    99   50  106 1    
   100   51  107 1    
   101   51  108 1    
   102   51  109 1    
   103   52   53 2    
   104   52   54 am   BACKBONE|DICT|INTERRES
   105   54   55 1    
   106   54  110 1    
   107   55   56 1    
   108   55   59 1    
   109   55  111 1    
   110   56   57 am   BACKBONE|DICT|INTERRES
   111   56   58 2    
   112   57  112 1    
   113   57  113 1    
   114   59   60 1    
   115   59  114 1    
   116   59  115 1    
   117   60   61 1    
   118   61  116 1    
   119   61  117 1    
@<TRIPOS>SUBSTRUCTURE
     1 UNK         1 GROUP             0       ****    0 ROOT    
