@<TRIPOS>MOLECULE
3R8
117   119    1
SMALL
USER_CHARGES


@<TRIPOS>ATOM
      1 CA         18.7923  -23.8447  -39.7118 C.3       0 UNK        -0.2013 
      2 C          18.3388  -23.8746  -41.1639 C.2       0 UNK         0.4866 
      3 O          17.8979  -22.8521  -41.6903 O.2       0 UNK        -0.5176 
      4 N          18.4343  -25.0428  -41.8098 N.am      1 UNK        -0.4884 
      5 CA         18.0958  -25.2580  -43.2205 C.3       1 UNK         0.0853 
      6 C6         18.0035  -26.7624  -43.5699 C.3       10 UNK        -0.0849 
      7 S7         16.8459  -27.7106  -42.5172 S.3       10 UNK        -0.2776 
      8 C8         16.2195  -28.9842  -43.6688 C.3       10 UNK         0.0316 
      9 C9         17.3382  -29.8830  -44.1787 C.ar      10 UNK        -0.0863 
     10 C10        17.6911  -31.0525  -43.4976 C.ar      10 UNK        -0.1009 
     11 C11        18.7639  -31.8379  -43.9397 C.ar      10 UNK        -0.0712 
     12 C12        19.4982  -31.4296  -45.0595 C.ar      10 UNK        -0.0894 
     13 C13        19.1622  -30.2518  -45.7305 C.ar      10 UNK        -0.0745 
     14 C14        18.0521  -29.5163  -45.3199 C.ar      10 UNK        -0.0972 
     15 C15        20.0572  -29.6840  -46.8140 C.3       10 UNK         0.0209 
     16 S16        21.1300  -28.4450  -46.0327 S.3       10 UNK        -0.2568 
     17 C17        21.8335  -27.5363  -47.4463 C.3       10 UNK        -0.0983 
     18 CA         22.1270  -26.0524  -47.1012 C.3       3 UNK         0.0876 
     19 N          20.8918  -25.3230  -46.7830 N.am      3 UNK        -0.4424 
     20 C          20.7609  -23.9905  -46.8173 C.2       2 UNK         0.4918 
     21 O          21.6538  -23.2290  -47.1897 O.2       2 UNK        -0.4875 
     22 CA         19.4185  -23.3941  -46.3474 C.3       2 UNK         0.0481 
     23 CB         18.5140  -23.1132  -47.5581 C.3       2 UNK        -0.1831 
     24 N          18.6688  -24.1858  -45.3598 N.am      2 UNK        -0.4498 
     25 C          19.1152  -24.5621  -44.1515 C.2       1 UNK         0.5027 
     26 O          20.2830  -24.4169  -43.7814 O.2       1 UNK        -0.4969 
     27 C          23.2041  -25.9375  -45.9923 C.2       3 UNK         0.5005 
     28 O          24.3643  -26.2591  -46.2528 O.2       3 UNK        -0.5279 
     29 N          22.7967  -25.5225  -44.7804 N.am      4 UNK        -0.4463 
     30 CA         23.5800  -25.4204  -43.5442 C.3       4 UNK         0.0283 
     31 CB         24.7826  -24.4661  -43.7093 C.3       4 UNK        -0.1875 
     32 C          23.9739  -26.7755  -42.9191 C.2       4 UNK         0.4949 
     33 O          24.8409  -26.7927  -42.0442 O.2       4 UNK        -0.5039 
     34 N          23.3288  -27.8778  -43.3345 N.am      5 UNK        -0.4663 
     35 CA         23.4766  -29.1952  -42.7086 C.3       5 UNK         0.0242 
     36 CB         23.2139  -30.3182  -43.7292 C.3       5 UNK        -0.1982 
     37 C          22.5655  -29.2908  -41.4755 C.2       5 UNK         0.5017 
     38 O          23.0601  -29.1683  -40.3544 O.2       5 UNK        -0.5012 
     39 N          21.2558  -29.4766  -41.7064 N.am      6 UNK        -0.4439 
     40 CA         20.1747  -29.5287  -40.7138 C.3       6 UNK         0.0297 
     41 CB         19.9021  -28.1155  -40.1548 C.3       6 UNK        -0.2006 
     42 C          20.4258  -30.5851  -39.6193 C.2       6 UNK         0.4892 
     43 O          20.1919  -31.7692  -39.8561 O.2       6 UNK        -0.5089 
     44 N          20.9240  -30.1512  -38.4528 N.am      7 UNK        -0.4243 
     45 CA         21.3223  -31.0115  -37.3350 C.3       7 UNK         0.0196 
     46 CB         21.6542  -30.1347  -36.1171 C.3       7 UNK        -0.2007 
     47 C          22.5022  -31.9463  -37.6626 C.2       7 UNK         0.5020 
     48 O          22.6170  -33.0050  -37.0442 O.2       7 UNK        -0.5147 
     49 N          23.3412  -31.5683  -38.6398 N.am      8 UNK        -0.4734 
     50 CA         24.4699  -32.3718  -39.1239 C.3       8 UNK         0.0238 
     51 CB         25.3840  -31.4990  -39.9986 C.3       8 UNK        -0.1912 
     52 C          24.0523  -33.6431  -39.8881 C.2       8 UNK         0.5038 
     53 O          24.8993  -34.5141  -40.0909 O.2       8 UNK        -0.5046 
     54 N          22.7773  -33.7392  -40.2923 N.am      9 UNK        -0.4200 
     55 CA         22.1902  -34.9293  -40.9279 C.3       9 UNK         0.0839 
     56 C          22.0533  -36.1596  -39.9823 C.2       9 UNK         0.5513 
     57 N          22.1562  -36.0073  -38.6662 N.am      9 UNK        -0.7519 
     58 O          21.8504  -37.2746  -40.4557 O.2       9 UNK        -0.4960 
     59 C59        20.8269  -34.6178  -41.5963 C.3       10 UNK        -0.0876 
     60 S60        20.8922  -33.2380  -42.7861 S.3       10 UNK        -0.2414 
     61 C61        19.1213  -33.1210  -43.1998 C.3       10 UNK         0.0169 
     62 H62        19.1443  -24.8192  -39.3735 H         1 UNK         0.0903 
     63 H63        19.6051  -23.1294  -39.5881 H         1 UNK         0.0903 
     64 H64        17.9683  -23.5396  -39.0674 H         1 UNK         0.0903 
     65 H65        18.7950  -25.8500  -41.3254 H         1 UNK         0.3096 
     66 H66        17.1174  -24.8035  -43.3934 H         1 UNK         0.1121 
     67 H67        17.6710  -26.8505  -44.6032 H         1 UNK         0.0849 
     68 H68        18.9838  -27.2415  -43.5143 H         1 UNK         0.0849 
     69 H69        15.4652  -29.5839  -43.1572 H         1 UNK         0.0865 
     70 H70        15.7077  -28.5026  -44.5036 H         1 UNK         0.0865 
     71 H71        17.1368  -31.3434  -42.6157 H         1 UNK         0.1346 
     72 H72        20.3555  -32.0050  -45.3809 H         1 UNK         0.1412 
     73 H73        17.7941  -28.6150  -45.8562 H         1 UNK         0.1426 
     74 H74        19.4558  -29.2262  -47.6009 H         1 UNK         0.0716 
     75 H75        20.6628  -30.4632  -47.2792 H         1 UNK         0.0716 
     76 H76        21.1437  -27.5882  -48.2899 H         1 UNK         0.0695 
     77 H77        22.7429  -28.0458  -47.7707 H         1 UNK         0.0695 
     78 H78        22.5598  -25.5922  -47.9924 H         1 UNK         0.0983 
     79 H79        20.1110  -25.8828  -46.4744 H         1 UNK         0.3095 
     80 H80        19.6489  -22.4378  -45.8734 H         1 UNK         0.0454 
     81 H81        19.0301  -22.5007  -48.2990 H         1 UNK         0.0851 
     82 H82        17.6144  -22.5707  -47.2668 H         1 UNK         0.0851 
     83 H83        18.2067  -24.0340  -48.0553 H         1 UNK         0.0851 
     84 H84        17.7027  -24.3702  -45.5912 H         1 UNK         0.2976 
     85 H85        21.8218  -25.2559  -44.6721 H         1 UNK         0.3116 
     86 H86        22.9065  -24.9582  -42.8210 H         1 UNK         0.0646 
     87 H87        25.5595  -24.8955  -44.3420 H         1 UNK         0.0847 
     88 H88        24.4784  -23.5153  -44.1468 H         1 UNK         0.0847 
     89 H89        25.2407  -24.2442  -42.7448 H         1 UNK         0.0847 
     90 H90        22.6329  -27.7868  -44.0621 H         1 UNK         0.3040 
     91 H91        24.5074  -29.3077  -42.3651 H         1 UNK         0.1015 
     92 H92        23.3815  -31.2966  -43.2765 H         1 UNK         0.0786 
     93 H93        23.8871  -30.2390  -44.5829 H         1 UNK         0.0786 
     94 H94        22.1944  -30.3137  -44.1119 H         1 UNK         0.0786 
     95 H95        20.9643  -29.6194  -42.6633 H         1 UNK         0.3172 
     96 H96        19.2795  -29.8479  -41.2498 H         1 UNK         0.0595 
     97 H97        20.7739  -27.6815  -39.6641 H         1 UNK         0.0839 
     98 H98        19.0817  -28.1270  -39.4358 H         1 UNK         0.0839 
     99 H99        19.6155  -27.4418  -40.9591 H         1 UNK         0.0839 
    100 H100       21.1265  -29.1661  -38.3625 H         1 UNK         0.2998 
    101 H101       20.4685  -31.6437  -37.0819 H         1 UNK         0.0822 
    102 H102       21.9282  -30.7484  -35.2577 H         1 UNK         0.0787 
    103 H103       22.4906  -29.4642  -36.3188 H         1 UNK         0.0787 
    104 H104       20.7992  -29.5273  -35.8195 H         1 UNK         0.0787 
    105 H105       23.1759  -30.6823  -39.1114 H         1 UNK         0.3055 
    106 H106       25.0428  -32.6971  -38.2526 H         1 UNK         0.1106 
    107 H107       24.9005  -31.2278  -40.9363 H         1 UNK         0.0828 
    108 H108       25.6723  -30.5801  -39.4877 H         1 UNK         0.0828 
    109 H109       26.3020  -32.0307  -40.2523 H         1 UNK         0.0828 
    110 H110       22.1358  -32.9819  -40.0944 H         1 UNK         0.2931 
    111 H111       22.8757  -35.2329  -41.7217 H         1 UNK         0.0412 
    112 H112       22.3200  -35.0955  -38.2634 H         1 UNK         0.3472 
    113 H113       22.0675  -36.8135  -38.0677 H         1 UNK         0.3472 
    114 H114       20.4517  -35.4972  -42.1237 H         1 UNK         0.0970 
    115 H115       20.0847  -34.3788  -40.8319 H         1 UNK         0.0970 
    116 H116       18.8401  -33.9773  -43.8139 H         1 UNK         0.0612 
    117 H117       18.5426  -33.1927  -42.2775 H         1 UNK         0.0612 
@<TRIPOS>BOND
     1    1    2 1    
     2    1   62 1    
     3    1   63 1    
     4    1   64 1    
     5    2    3 2    
     6    2    4 am   BACKBONE|DICT|INTERRES
     7    4    5 1    
     8    4   65 1    
     9    5    6 1    
    10    5   25 1    
    11    5   66 1    
    12    6    7 1    
    13    6   67 1    
    14    6   68 1    
    15    7    8 1    
    16    8    9 1    
    17    8   69 1    
    18    8   70 1    
    19    9   10 ar   
    20    9   14 ar   
    21   10   11 ar   
    22   10   71 1    
    23   11   12 ar   
    24   11   61 1    
    25   12   13 ar   
    26   12   72 1    
    27   13   14 ar   
    28   13   15 1    
    29   14   73 1    
    30   15   16 1    
    31   15   74 1    
    32   15   75 1    
    33   16   17 1    
    34   17   18 1    
    35   17   76 1    
    36   17   77 1    
    37   18   19 1    
    38   18   27 1    
    39   18   78 1    
    40   19   20 am   BACKBONE|DICT|INTERRES
    41   19   79 1    
    42   20   21 2    
    43   20   22 1    
    44   22   23 1    
    45   22   24 1    
    46   22   80 1    
    47   23   81 1    
    48   23   82 1    
    49   23   83 1    
    50   24   25 am   BACKBONE|DICT|INTERRES
    51   24   84 1    
    52   25   26 2    
    53   27   28 2    
    54   27   29 am   BACKBONE|DICT|INTERRES
    55   29   30 1    
    56   29   85 1    
    57   30   31 1    
    58   30   32 1    
    59   30   86 1    
    60   31   87 1    
    61   31   88 1    
    62   31   89 1    
    63   32   33 2    
    64   32   34 am   BACKBONE|DICT|INTERRES
    65   34   35 1    
    66   34   90 1    
    67   35   36 1    
    68   35   37 1    
    69   35   91 1    
    70   36   92 1    
    71   36   93 1    
    72   36   94 1    
    73   37   38 2    
    74   37   39 am   BACKBONE|DICT|INTERRES
    75   39   40 1    
    76   39   95 1    
    77   40   41 1    
    78   40   42 1    
    79   40   96 1    
    80   41   97 1    
    81   41   98 1    
    82   41   99 1    
    83   42   43 2    
    84   42   44 am   BACKBONE|DICT|INTERRES
    85   44   45 1    
    86   44  100 1    
    87   45   46 1    
    88   45   47 1    
    89   45  101 1    
    90   46  102 1    
    91   46  103 1    
    92   46  104 1    
    93   47   48 2    
    94   47   49 am   BACKBONE|DICT|INTERRES
    95   49   50 1    
    96   49  105 1    
    97   50   51 1    
    98   50   52 1    
    99   50  106 1    
   100   51  107 1    
   101   51  108 1    
   102   51  109 1    
   103   52   53 2    
   104   52   54 am   BACKBONE|DICT|INTERRES
   105   54   55 1    
   106   54  110 1    
   107   55   56 1    
   108   55   59 1    
   109   55  111 1    
   110   56   57 am   BACKBONE|DICT|INTERRES
   111   56   58 2    
   112   57  112 1    
   113   57  113 1    
   114   59   60 1    
   115   59  114 1    
   116   59  115 1    
   117   60   61 1    
   118   61  116 1    
   119   61  117 1    
@<TRIPOS>SUBSTRUCTURE
     1 UNK         1 GROUP             0       ****    0 ROOT    
