@<TRIPOS>MOLECULE
3R8
117   119    1
SMALL
USER_CHARGES


@<TRIPOS>ATOM
      1 CA         19.3984  -24.4754  -50.0983 C.3       0 UNK        -0.2013 
      2 C          20.0663  -24.5848  -48.7358 C.2       0 UNK         0.4866 
      3 O          20.7290  -23.6423  -48.3020 O.2       0 UNK        -0.5176 
      4 N          19.8989  -25.7288  -48.0578 N.am      1 UNK        -0.4884 
      5 CA         20.4609  -26.0012  -46.7273 C.3       1 UNK         0.0853 
      6 C6         20.4358  -27.5216  -46.4124 C.3       10 UNK        -0.0849 
      7 S7         21.7266  -28.0229  -45.2242 S.3       10 UNK        -0.2776 
      8 C8         21.3773  -29.7998  -45.0383 C.3       10 UNK         0.0316 
      9 C9         20.3645  -30.0705  -43.9344 C.ar      10 UNK        -0.0863 
     10 C10        20.7958  -30.2607  -42.6176 C.ar      10 UNK        -0.1009 
     11 C11        19.8806  -30.5725  -41.6047 C.ar      10 UNK        -0.0712 
     12 C12        18.5198  -30.6512  -41.9132 C.ar      10 UNK        -0.0894 
     13 C13        18.0719  -30.4160  -43.2165 C.ar      10 UNK        -0.0745 
     14 C14        19.0004  -30.1526  -44.2284 C.ar      10 UNK        -0.0972 
     15 C15        16.5809  -30.3968  -43.5205 C.3       10 UNK         0.0209 
     16 S16        15.9759  -28.6994  -43.8141 S.3       10 UNK        -0.2568 
     17 C17        16.3894  -27.8528  -42.2463 C.3       10 UNK        -0.0983 
     18 CA         17.7668  -27.1328  -42.3123 C.3       3 UNK         0.0876 
     19 N          17.8907  -26.1418  -43.3817 N.am      3 UNK        -0.4424 
     20 C          17.1273  -25.0769  -43.6505 C.2       2 UNK         0.4918 
     21 O          16.1239  -24.7611  -43.0098 O.2       2 UNK        -0.4875 
     22 CA         17.5233  -24.2295  -44.8812 C.3       2 UNK         0.0481 
     23 CB         18.0190  -22.8317  -44.4601 C.3       2 UNK        -0.1831 
     24 N          18.4678  -24.8809  -45.8092 N.am      2 UNK        -0.4498 
     25 C          19.7604  -25.1936  -45.6124 C.2       1 UNK         0.5027 
     26 O          20.3777  -24.9203  -44.5839 O.2       1 UNK        -0.4969 
     27 C          18.2410  -26.5915  -40.9488 C.2       3 UNK         0.5005 
     28 O          18.3736  -25.3803  -40.7584 O.2       3 UNK        -0.5279 
     29 N          18.5601  -27.5307  -40.0427 N.am      4 UNK        -0.4463 
     30 CA         19.2236  -27.3309  -38.7432 C.3       4 UNK         0.0283 
     31 CB         18.3559  -26.4801  -37.7914 C.3       4 UNK        -0.1875 
     32 C          20.6705  -26.7998  -38.8656 C.2       4 UNK         0.4949 
     33 O          21.1952  -26.2246  -37.9119 O.2       4 UNK        -0.5039 
     34 N          21.2961  -27.0130  -40.0327 N.am      5 UNK        -0.4663 
     35 CA         22.6374  -26.5293  -40.3721 C.3       5 UNK         0.0242 
     36 CB         22.7535  -26.4586  -41.9042 C.3       5 UNK        -0.1982 
     37 C          23.7768  -27.3893  -39.7975 C.2       5 UNK         0.5017 
     38 O          24.9147  -26.9213  -39.7663 O.2       5 UNK        -0.5012 
     39 N          23.4636  -28.6330  -39.3983 N.am      6 UNK        -0.4439 
     40 CA         24.3809  -29.6760  -38.9092 C.3       6 UNK         0.0297 
     41 CB         25.0612  -29.2439  -37.5924 C.3       6 UNK        -0.2006 
     42 C          25.3971  -30.1656  -39.9663 C.2       6 UNK         0.4892 
     43 O          26.4241  -30.7401  -39.6019 O.2       6 UNK        -0.5089 
     44 N          25.1005  -29.9295  -41.2528 N.am      7 UNK        -0.4243 
     45 CA         25.9774  -30.2307  -42.3868 C.3       7 UNK         0.0196 
     46 CB         25.5059  -29.4279  -43.6107 C.3       7 UNK        -0.2007 
     47 C          26.0609  -31.7288  -42.7244 C.2       7 UNK         0.5020 
     48 O          27.1210  -32.1901  -43.1476 O.2       7 UNK        -0.5147 
     49 N          24.9521  -32.4544  -42.5370 N.am      8 UNK        -0.4734 
     50 CA         24.8182  -33.8927  -42.7850 C.3       8 UNK         0.0238 
     51 CB         24.9214  -34.2288  -44.2883 C.3       8 UNK        -0.1912 
     52 C          23.4874  -34.3811  -42.2080 C.2       8 UNK         0.5038 
     53 O          23.4769  -35.3170  -41.4084 O.2       8 UNK        -0.5046 
     54 N          22.4018  -33.7002  -42.6021 N.am      9 UNK        -0.4200 
     55 CA         21.0268  -33.8799  -42.1020 C.3       9 UNK         0.0839 
     56 C          20.3470  -35.2218  -42.5093 C.2       9 UNK         0.5513 
     57 N          20.8553  -35.9441  -43.5007 N.am      9 UNK        -0.7519 
     58 O          19.3270  -35.6035  -41.9409 O.2       9 UNK        -0.4960 
     59 C59        20.8777  -33.5706  -40.5817 C.3       10 UNK        -0.0876 
     60 S60        21.6998  -32.0235  -40.0602 S.3       10 UNK        -0.2414 
     61 C61        20.3473  -30.8128  -40.1738 C.3       10 UNK         0.0169 
     62 H62        20.1475  -24.2994  -50.8699 H         1 UNK         0.0903 
     63 H63        18.8500  -25.3804  -50.3590 H         1 UNK         0.0903 
     64 H64        18.6982  -23.6405  -50.1068 H         1 UNK         0.0903 
     65 H65        19.3542  -26.4731  -48.4714 H         1 UNK         0.3096 
     66 H66        21.5027  -25.6715  -46.7485 H         1 UNK         0.1121 
     67 H67        19.4552  -27.8398  -46.0531 H         1 UNK         0.0849 
     68 H68        20.6182  -28.0919  -47.3249 H         1 UNK         0.0849 
     69 H69        21.0309  -30.2149  -45.9861 H         1 UNK         0.0865 
     70 H70        22.3099  -30.3180  -44.8126 H         1 UNK         0.0865 
     71 H71        21.8490  -30.1922  -42.3856 H         1 UNK         0.1346 
     72 H72        17.8032  -30.8757  -41.1347 H         1 UNK         0.1412 
     73 H73        18.6542  -29.9878  -45.2395 H         1 UNK         0.1426 
     74 H74        16.0096  -30.8467  -42.7070 H         1 UNK         0.0716 
     75 H75        16.3835  -31.0027  -44.4059 H         1 UNK         0.0716 
     76 H76        16.3663  -28.5892  -41.4418 H         1 UNK         0.0695 
     77 H77        15.5937  -27.1429  -42.0171 H         1 UNK         0.0695 
     78 H78        18.5169  -27.8740  -42.5814 H         1 UNK         0.0983 
     79 H79        18.7343  -26.2224  -43.9308 H         1 UNK         0.3095 
     80 H80        16.6067  -24.0888  -45.4560 H         1 UNK         0.0454 
     81 H81        18.8996  -22.8861  -43.8196 H         1 UNK         0.0851 
     82 H82        17.2489  -22.3004  -43.8997 H         1 UNK         0.0851 
     83 H83        18.2694  -22.2201  -45.3267 H         1 UNK         0.0851 
     84 H84        18.0644  -25.1711  -46.6894 H         1 UNK         0.2976 
     85 H85        18.3981  -28.4961  -40.2928 H         1 UNK         0.3116 
     86 H86        19.3100  -28.3222  -38.2961 H         1 UNK         0.0646 
     87 H87        18.2942  -25.4410  -38.1156 H         1 UNK         0.0847 
     88 H88        18.7699  -26.4776  -36.7824 H         1 UNK         0.0847 
     89 H89        17.3410  -26.8712  -37.7215 H         1 UNK         0.0847 
     90 H90        20.7844  -27.4743  -40.7694 H         1 UNK         0.3040 
     91 H91        22.7574  -25.5202  -39.9708 H         1 UNK         0.1015 
     92 H92        22.6442  -27.4410  -42.3648 H         1 UNK         0.0786 
     93 H93        23.7245  -26.0643  -42.2074 H         1 UNK         0.0786 
     94 H94        21.9940  -25.8034  -42.3323 H         1 UNK         0.0786 
     95 H95        22.4926  -28.9005  -39.4589 H         1 UNK         0.3172 
     96 H96        23.7592  -30.5390  -38.6732 H         1 UNK         0.0595 
     97 H97        25.7782  -28.4378  -37.7500 H         1 UNK         0.0839 
     98 H98        25.6051  -30.0751  -37.1418 H         1 UNK         0.0839 
     99 H99        24.3292  -28.9042  -36.8597 H         1 UNK         0.0839 
    100 H100       24.2445  -29.4377  -41.4561 H         1 UNK         0.2998 
    101 H101       26.9857  -29.8967  -42.1315 H         1 UNK         0.0822 
    102 H102       25.5273  -28.3556  -43.4146 H         1 UNK         0.0787 
    103 H103       26.1521  -29.6114  -44.4704 H         1 UNK         0.0787 
    104 H104       24.4904  -29.6939  -43.9045 H         1 UNK         0.0787 
    105 H105       24.1542  -32.0050  -42.1091 H         1 UNK         0.3055 
    106 H106       25.6202  -34.4095  -42.2528 H         1 UNK         0.1106 
    107 H107       24.7215  -35.2863  -44.4666 H         1 UNK         0.0828 
    108 H108       24.2115  -33.6555  -44.8851 H         1 UNK         0.0828 
    109 H109       25.9192  -34.0271  -44.6772 H         1 UNK         0.0828 
    110 H110       22.5123  -32.9834  -43.3030 H         1 UNK         0.2931 
    111 H111       20.4443  -33.1280  -42.6334 H         1 UNK         0.0412 
    112 H112       21.6860  -35.6392  -43.9818 H         1 UNK         0.3472 
    113 H113       20.4051  -36.8063  -43.7653 H         1 UNK         0.3472 
    114 H114       21.3010  -34.3849  -39.9914 H         1 UNK         0.0970 
    115 H115       19.8231  -33.5205  -40.3053 H         1 UNK         0.0970 
    116 H116       19.5238  -31.1467  -39.5406 H         1 UNK         0.0612 
    117 H117       20.6943  -29.8702  -39.7544 H         1 UNK         0.0612 
@<TRIPOS>BOND
     1    1    2 1    
     2    1   62 1    
     3    1   63 1    
     4    1   64 1    
     5    2    3 2    
     6    2    4 am   BACKBONE|DICT|INTERRES
     7    4    5 1    
     8    4   65 1    
     9    5    6 1    
    10    5   25 1    
    11    5   66 1    
    12    6    7 1    
    13    6   67 1    
    14    6   68 1    
    15    7    8 1    
    16    8    9 1    
    17    8   69 1    
    18    8   70 1    
    19    9   10 ar   
    20    9   14 ar   
    21   10   11 ar   
    22   10   71 1    
    23   11   12 ar   
    24   11   61 1    
    25   12   13 ar   
    26   12   72 1    
    27   13   14 ar   
    28   13   15 1    
    29   14   73 1    
    30   15   16 1    
    31   15   74 1    
    32   15   75 1    
    33   16   17 1    
    34   17   18 1    
    35   17   76 1    
    36   17   77 1    
    37   18   19 1    
    38   18   27 1    
    39   18   78 1    
    40   19   20 am   BACKBONE|DICT|INTERRES
    41   19   79 1    
    42   20   21 2    
    43   20   22 1    
    44   22   23 1    
    45   22   24 1    
    46   22   80 1    
    47   23   81 1    
    48   23   82 1    
    49   23   83 1    
    50   24   25 am   BACKBONE|DICT|INTERRES
    51   24   84 1    
    52   25   26 2    
    53   27   28 2    
    54   27   29 am   BACKBONE|DICT|INTERRES
    55   29   30 1    
    56   29   85 1    
    57   30   31 1    
    58   30   32 1    
    59   30   86 1    
    60   31   87 1    
    61   31   88 1    
    62   31   89 1    
    63   32   33 2    
    64   32   34 am   BACKBONE|DICT|INTERRES
    65   34   35 1    
    66   34   90 1    
    67   35   36 1    
    68   35   37 1    
    69   35   91 1    
    70   36   92 1    
    71   36   93 1    
    72   36   94 1    
    73   37   38 2    
    74   37   39 am   BACKBONE|DICT|INTERRES
    75   39   40 1    
    76   39   95 1    
    77   40   41 1    
    78   40   42 1    
    79   40   96 1    
    80   41   97 1    
    81   41   98 1    
    82   41   99 1    
    83   42   43 2    
    84   42   44 am   BACKBONE|DICT|INTERRES
    85   44   45 1    
    86   44  100 1    
    87   45   46 1    
    88   45   47 1    
    89   45  101 1    
    90   46  102 1    
    91   46  103 1    
    92   46  104 1    
    93   47   48 2    
    94   47   49 am   BACKBONE|DICT|INTERRES
    95   49   50 1    
    96   49  105 1    
    97   50   51 1    
    98   50   52 1    
    99   50  106 1    
   100   51  107 1    
   101   51  108 1    
   102   51  109 1    
   103   52   53 2    
   104   52   54 am   BACKBONE|DICT|INTERRES
   105   54   55 1    
   106   54  110 1    
   107   55   56 1    
   108   55   59 1    
   109   55  111 1    
   110   56   57 am   BACKBONE|DICT|INTERRES
   111   56   58 2    
   112   57  112 1    
   113   57  113 1    
   114   59   60 1    
   115   59  114 1    
   116   59  115 1    
   117   60   61 1    
   118   61  116 1    
   119   61  117 1    
@<TRIPOS>SUBSTRUCTURE
     1 UNK         1 GROUP             0       ****    0 ROOT    
