@<TRIPOS>MOLECULE
3R8
117   119    1
SMALL
USER_CHARGES


@<TRIPOS>ATOM
      1 CA         19.8009  -25.4935  -49.5147 C.3       0 UNK        -0.2013 
      2 C          19.3508  -25.5619  -48.0629 C.2       0 UNK         0.4866 
      3 O          19.1371  -24.5195  -47.4433 O.2       0 UNK        -0.5176 
      4 N          19.2055  -26.7809  -47.5253 N.am      1 UNK        -0.4884 
      5 CA         18.8104  -27.0906  -46.1441 C.3       1 UNK         0.0853 
      6 C6         17.3508  -26.6752  -45.8000 C.3       10 UNK        -0.0849 
      7 S7         16.1439  -27.5819  -46.8249 S.3       10 UNK        -0.2776 
      8 C8         15.2601  -28.5878  -45.5820 C.3       10 UNK         0.0316 
      9 C9         16.1519  -29.5544  -44.8037 C.ar      10 UNK        -0.0863 
     10 C10        17.0995  -30.3525  -45.4570 C.ar      10 UNK        -0.1009 
     11 C11        17.8846  -31.2568  -44.7358 C.ar      10 UNK        -0.0712 
     12 C12        17.6964  -31.3830  -43.3574 C.ar      10 UNK        -0.0894 
     13 C13        16.7566  -30.5965  -42.6903 C.ar      10 UNK        -0.0745 
     14 C14        15.9902  -29.6804  -43.4185 C.ar      10 UNK        -0.0972 
     15 C15        16.5525  -30.7663  -41.1895 C.3       10 UNK         0.0209 
     16 S16        18.0481  -30.3695  -40.2234 S.3       10 UNK        -0.2568 
     17 C17        18.1880  -28.5723  -40.4870 C.3       10 UNK        -0.0983 
     18 CA         19.6306  -28.1469  -40.8627 C.3       3 UNK         0.0876 
     19 N          19.6151  -26.9428  -41.6948 N.am      3 UNK        -0.4424 
     20 C          20.6712  -26.2674  -42.1684 C.2       2 UNK         0.4918 
     21 O          21.8489  -26.5342  -41.9177 O.2       2 UNK        -0.4875 
     22 CA         20.3106  -25.1284  -43.1411 C.3       2 UNK         0.0481 
     23 CB         21.5291  -24.3204  -43.6314 C.3       2 UNK        -0.1831 
     24 N          19.5144  -25.6322  -44.2699 N.am      2 UNK        -0.4498 
     25 C          19.8760  -26.5842  -45.1490 C.2       1 UNK         0.5027 
     26 O          20.9993  -27.0892  -45.1940 O.2       1 UNK        -0.4969 
     27 C          20.5051  -27.9695  -39.6055 C.2       3 UNK         0.5005 
     28 O          20.2712  -27.0378  -38.8318 O.2       3 UNK        -0.5279 
     29 N          21.5185  -28.8323  -39.4587 N.am      4 UNK        -0.4463 
     30 CA         22.5511  -28.8823  -38.4131 C.3       4 UNK         0.0283 
     31 CB         21.9371  -29.0237  -37.0072 C.3       4 UNK        -0.1875 
     32 C          23.5740  -27.7313  -38.4667 C.2       4 UNK         0.4949 
     33 O          24.7299  -27.9517  -38.1061 O.2       4 UNK        -0.5039 
     34 N          23.1557  -26.5429  -38.9206 N.am      5 UNK        -0.4663 
     35 CA         23.9978  -25.3618  -39.1149 C.3       5 UNK         0.0242 
     36 CB         23.1108  -24.1369  -39.3929 C.3       5 UNK        -0.1982 
     37 C          25.0347  -25.5610  -40.2315 C.2       5 UNK         0.5017 
     38 O          26.2177  -25.3018  -40.0069 O.2       5 UNK        -0.5012 
     39 N          24.5766  -26.0345  -41.3982 N.am      6 UNK        -0.4439 
     40 CA         25.4330  -26.4291  -42.5167 C.3       6 UNK         0.0297 
     41 CB         24.7377  -26.1237  -43.8524 C.3       6 UNK        -0.2006 
     42 C          25.7930  -27.9161  -42.4171 C.2       6 UNK         0.4892 
     43 O          26.9739  -28.2577  -42.4909 O.2       6 UNK        -0.5089 
     44 N          24.7761  -28.7683  -42.2390 N.am      7 UNK        -0.4243 
     45 CA         24.9067  -30.2151  -42.1036 C.3       7 UNK         0.0196 
     46 CB         25.1503  -30.8634  -43.4802 C.3       7 UNK        -0.2007 
     47 C          23.6269  -30.7711  -41.4802 C.2       7 UNK         0.5020 
     48 O          22.5474  -30.2123  -41.6879 O.2       7 UNK        -0.5147 
     49 N          23.7522  -31.8903  -40.7620 N.am      8 UNK        -0.4734 
     50 CA         22.6299  -32.6633  -40.2242 C.3       8 UNK         0.0238 
     51 CB         23.0306  -33.2464  -38.8560 C.3       8 UNK        -0.1912 
     52 C          22.2134  -33.7426  -41.2404 C.2       8 UNK         0.5038 
     53 O          22.2650  -34.9357  -40.9346 O.2       8 UNK        -0.5046 
     54 N          21.8638  -33.2968  -42.4528 N.am      9 UNK        -0.4200 
     55 CA         21.4118  -34.1279  -43.5765 C.3       9 UNK         0.0839 
     56 C          20.0581  -34.8502  -43.3195 C.2       9 UNK         0.5513 
     57 N          19.7593  -35.8874  -44.0903 N.am      9 UNK        -0.7519 
     58 O          19.2692  -34.4741  -42.4554 O.2       9 UNK        -0.4960 
     59 C59        21.4274  -33.3351  -44.9160 C.3       10 UNK        -0.0876 
     60 S60        20.6025  -31.7053  -44.8446 S.3       10 UNK        -0.2414 
     61 C61        18.9281  -32.1156  -45.4318 C.3       10 UNK         0.0169 
     62 H62        19.0563  -24.9696  -50.1134 H         1 UNK         0.0903 
     63 H63        20.7425  -24.9502  -49.5901 H         1 UNK         0.0903 
     64 H64        19.9456  -26.4840  -49.9456 H         1 UNK         0.0903 
     65 H65        19.4206  -27.5894  -48.0922 H         1 UNK         0.3096 
     66 H66        18.8604  -28.1774  -46.0588 H         1 UNK         0.1121 
     67 H67        17.1951  -25.6062  -45.9529 H         1 UNK         0.0849 
     68 H68        17.1295  -26.8715  -44.7492 H         1 UNK         0.0849 
     69 H69        14.7382  -27.9124  -44.9021 H         1 UNK         0.0865 
     70 H70        14.4864  -29.1656  -46.0893 H         1 UNK         0.0865 
     71 H71        17.2250  -30.2689  -46.5278 H         1 UNK         0.1346 
     72 H72        18.2937  -32.0895  -42.7976 H         1 UNK         0.1412 
     73 H73        15.2519  -29.0779  -42.9068 H         1 UNK         0.1426 
     74 H74        16.2721  -31.8012  -40.9888 H         1 UNK         0.0716 
     75 H75        15.7246  -30.1508  -40.8340 H         1 UNK         0.0716 
     76 H76        17.8244  -28.0493  -39.5999 H         1 UNK         0.0695 
     77 H77        17.4989  -28.2944  -41.2853 H         1 UNK         0.0695 
     78 H78        20.0724  -28.9245  -41.4906 H         1 UNK         0.0983 
     79 H79        18.6992  -26.6139  -41.9583 H         1 UNK         0.3095 
     80 H80        19.6705  -24.4418  -42.5850 H         1 UNK         0.0454 
     81 H81        22.1323  -23.9660  -42.7950 H         1 UNK         0.0851 
     82 H82        21.2151  -23.4443  -44.1985 H         1 UNK         0.0851 
     83 H83        22.1769  -24.9119  -44.2752 H         1 UNK         0.0851 
     84 H84        18.5839  -25.2478  -44.3510 H         1 UNK         0.2976 
     85 H85        21.6876  -29.4702  -40.2352 H         1 UNK         0.3116 
     86 H86        23.1131  -29.7963  -38.6094 H         1 UNK         0.0646 
     87 H87        21.3886  -28.1306  -36.7073 H         1 UNK         0.0847 
     88 H88        21.2540  -29.8715  -36.9560 H         1 UNK         0.0847 
     89 H89        22.7148  -29.1884  -36.2605 H         1 UNK         0.0847 
     90 H90        22.1712  -26.4557  -39.1501 H         1 UNK         0.3040 
     91 H91        24.5438  -25.1836  -38.1857 H         1 UNK         0.1015 
     92 H92        23.7166  -23.2423  -39.5440 H         1 UNK         0.0786 
     93 H93        22.4410  -23.9365  -38.5563 H         1 UNK         0.0786 
     94 H94        22.4984  -24.2717  -40.2848 H         1 UNK         0.0786 
     95 H95        23.5783  -26.2187  -41.4944 H         1 UNK         0.3172 
     96 H96        26.3614  -25.8542  -42.4918 H         1 UNK         0.0595 
     97 H97        23.7872  -26.6505  -43.9493 H         1 UNK         0.0839 
     98 H98        25.3626  -26.4252  -44.6941 H         1 UNK         0.0839 
     99 H99        24.5477  -25.0561  -43.9594 H         1 UNK         0.0839 
    100 H100       23.8262  -28.4211  -42.1756 H         1 UNK         0.2998 
    101 H101       25.7447  -30.4335  -41.4380 H         1 UNK         0.0822 
    102 H102       25.2228  -31.9487  -43.3972 H         1 UNK         0.0787 
    103 H103       24.3387  -30.6431  -44.1754 H         1 UNK         0.0787 
    104 H104       26.0795  -30.5134  -43.9299 H         1 UNK         0.0787 
    105 H105       24.6669  -32.3115  -40.6717 H         1 UNK         0.3055 
    106 H106       21.7626  -32.0175  -40.0666 H         1 UNK         0.1106 
    107 H107       23.2873  -32.4570  -38.1493 H         1 UNK         0.0828 
    108 H108       22.2087  -33.8150  -38.4189 H         1 UNK         0.0828 
    109 H109       23.8865  -33.9177  -38.9350 H         1 UNK         0.0828 
    110 H110       21.8312  -32.2978  -42.6085 H         1 UNK         0.2931 
    111 H111       22.1543  -34.9227  -43.6741 H         1 UNK         0.0412 
    112 H112       18.8838  -36.3663  -43.9462 H         1 UNK         0.3472 
    113 H113       20.3960  -36.2143  -44.8005 H         1 UNK         0.3472 
    114 H114       21.0135  -33.9254  -45.7356 H         1 UNK         0.0970 
    115 H115       22.4648  -33.1498  -45.1988 H         1 UNK         0.0970 
    116 H116       18.6997  -33.1635  -45.2376 H         1 UNK         0.0612 
    117 H117       18.8900  -31.9853  -46.5143 H         1 UNK         0.0612 
@<TRIPOS>BOND
     1    1    2 1    
     2    1   62 1    
     3    1   63 1    
     4    1   64 1    
     5    2    3 2    
     6    2    4 am   BACKBONE|DICT|INTERRES
     7    4    5 1    
     8    4   65 1    
     9    5    6 1    
    10    5   25 1    
    11    5   66 1    
    12    6    7 1    
    13    6   67 1    
    14    6   68 1    
    15    7    8 1    
    16    8    9 1    
    17    8   69 1    
    18    8   70 1    
    19    9   10 ar   
    20    9   14 ar   
    21   10   11 ar   
    22   10   71 1    
    23   11   12 ar   
    24   11   61 1    
    25   12   13 ar   
    26   12   72 1    
    27   13   14 ar   
    28   13   15 1    
    29   14   73 1    
    30   15   16 1    
    31   15   74 1    
    32   15   75 1    
    33   16   17 1    
    34   17   18 1    
    35   17   76 1    
    36   17   77 1    
    37   18   19 1    
    38   18   27 1    
    39   18   78 1    
    40   19   20 am   BACKBONE|DICT|INTERRES
    41   19   79 1    
    42   20   21 2    
    43   20   22 1    
    44   22   23 1    
    45   22   24 1    
    46   22   80 1    
    47   23   81 1    
    48   23   82 1    
    49   23   83 1    
    50   24   25 am   BACKBONE|DICT|INTERRES
    51   24   84 1    
    52   25   26 2    
    53   27   28 2    
    54   27   29 am   BACKBONE|DICT|INTERRES
    55   29   30 1    
    56   29   85 1    
    57   30   31 1    
    58   30   32 1    
    59   30   86 1    
    60   31   87 1    
    61   31   88 1    
    62   31   89 1    
    63   32   33 2    
    64   32   34 am   BACKBONE|DICT|INTERRES
    65   34   35 1    
    66   34   90 1    
    67   35   36 1    
    68   35   37 1    
    69   35   91 1    
    70   36   92 1    
    71   36   93 1    
    72   36   94 1    
    73   37   38 2    
    74   37   39 am   BACKBONE|DICT|INTERRES
    75   39   40 1    
    76   39   95 1    
    77   40   41 1    
    78   40   42 1    
    79   40   96 1    
    80   41   97 1    
    81   41   98 1    
    82   41   99 1    
    83   42   43 2    
    84   42   44 am   BACKBONE|DICT|INTERRES
    85   44   45 1    
    86   44  100 1    
    87   45   46 1    
    88   45   47 1    
    89   45  101 1    
    90   46  102 1    
    91   46  103 1    
    92   46  104 1    
    93   47   48 2    
    94   47   49 am   BACKBONE|DICT|INTERRES
    95   49   50 1    
    96   49  105 1    
    97   50   51 1    
    98   50   52 1    
    99   50  106 1    
   100   51  107 1    
   101   51  108 1    
   102   51  109 1    
   103   52   53 2    
   104   52   54 am   BACKBONE|DICT|INTERRES
   105   54   55 1    
   106   54  110 1    
   107   55   56 1    
   108   55   59 1    
   109   55  111 1    
   110   56   57 am   BACKBONE|DICT|INTERRES
   111   56   58 2    
   112   57  112 1    
   113   57  113 1    
   114   59   60 1    
   115   59  114 1    
   116   59  115 1    
   117   60   61 1    
   118   61  116 1    
   119   61  117 1    
@<TRIPOS>SUBSTRUCTURE
     1 UNK         1 GROUP             0       ****    0 ROOT    
