@<TRIPOS>MOLECULE
3R8
117   119    1
SMALL
USER_CHARGES


@<TRIPOS>ATOM
      1 CA         18.5351  -24.5039  -49.0111 C.3       0 UNK        -0.2013 
      2 C          19.4613  -25.5476  -48.4053 C.2       0 UNK         0.4866 
      3 O          20.6331  -25.6160  -48.7765 O.2       0 UNK        -0.5176 
      4 N          18.9455  -26.3620  -47.4753 N.am      1 UNK        -0.4884 
      5 CA         19.6845  -27.4409  -46.8041 C.3       1 UNK         0.0853 
      6 C6         18.7421  -28.3975  -46.0311 C.3       10 UNK        -0.0849 
      7 S7         17.4484  -29.1591  -47.0618 S.3       10 UNK        -0.2776 
      8 C8         17.2432  -30.7683  -46.2174 C.3       10 UNK         0.0316 
      9 C9         16.9358  -30.6722  -44.7208 C.ar      10 UNK        -0.0863 
     10 C10        17.4468  -31.6454  -43.8539 C.ar      10 UNK        -0.1009 
     11 C11        17.1611  -31.6055  -42.4856 C.ar      10 UNK        -0.0712 
     12 C12        16.3631  -30.5757  -41.9816 C.ar      10 UNK        -0.0894 
     13 C13        15.8458  -29.5935  -42.8313 C.ar      10 UNK        -0.0745 
     14 C14        16.1264  -29.6541  -44.1994 C.ar      10 UNK        -0.0972 
     15 C15        14.9448  -28.4967  -42.2784 C.3       10 UNK         0.0209 
     16 S16        15.7455  -27.5271  -40.9603 S.3       10 UNK        -0.2568 
     17 C17        16.9357  -26.4962  -41.8888 C.3       10 UNK        -0.0983 
     18 CA         18.3964  -27.0231  -41.8862 C.3       3 UNK         0.0876 
     19 N          19.2426  -26.1658  -42.7289 N.am      3 UNK        -0.4424 
     20 C          20.5822  -26.1012  -42.8320 C.2       2 UNK         0.4918 
     21 O          21.3893  -26.7139  -42.1297 O.2       2 UNK        -0.4875 
     22 CA         21.0824  -25.2213  -43.9956 C.3       2 UNK         0.0481 
     23 CB         22.6190  -25.0854  -44.0513 C.3       2 UNK        -0.1831 
     24 N          20.5231  -25.7183  -45.2610 N.am      2 UNK        -0.4498 
     25 C          20.7417  -26.9265  -45.8086 C.2       1 UNK         0.5027 
     26 O          21.6734  -27.6699  -45.5037 O.2       1 UNK        -0.4969 
     27 C          18.9593  -27.2268  -40.4635 C.2       3 UNK         0.5005 
     28 O          18.8149  -26.3447  -39.6137 O.2       3 UNK        -0.5279 
     29 N          19.6212  -28.3757  -40.2637 N.am      4 UNK        -0.4463 
     30 CA         20.2648  -28.8523  -39.0323 C.3       4 UNK         0.0283 
     31 CB         19.2141  -29.0852  -37.9273 C.3       4 UNK        -0.1875 
     32 C          21.4506  -27.9981  -38.5332 C.2       4 UNK         0.4949 
     33 O          21.9646  -28.2710  -37.4474 O.2       4 UNK        -0.5039 
     34 N          21.8830  -27.0016  -39.3161 N.am      5 UNK        -0.4663 
     35 CA         23.0446  -26.1597  -39.0323 C.3       5 UNK         0.0242 
     36 CB         22.8045  -24.7471  -39.5896 C.3       5 UNK        -0.1982 
     37 C          24.3175  -26.7741  -39.6282 C.2       5 UNK         0.5017 
     38 O          25.3648  -26.7399  -38.9807 O.2       5 UNK        -0.5012 
     39 N          24.2022  -27.3391  -40.8379 N.am      6 UNK        -0.4439 
     40 CA         25.2558  -28.1215  -41.4828 C.3       6 UNK         0.0297 
     41 CB         25.0168  -28.1323  -43.0003 C.3       6 UNK        -0.2006 
     42 C          25.2874  -29.5530  -40.9248 C.2       6 UNK         0.4892 
     43 O          24.2464  -30.0795  -40.5252 O.2       6 UNK        -0.5089 
     44 N          26.4735  -30.1769  -40.9524 N.am      7 UNK        -0.4243 
     45 CA         26.7178  -31.5425  -40.4657 C.3       7 UNK         0.0196 
     46 CB         28.2278  -31.8289  -40.4953 C.3       7 UNK        -0.2007 
     47 C          25.9493  -32.6332  -41.2356 C.2       7 UNK         0.5020 
     48 O          25.6286  -33.6713  -40.6578 O.2       7 UNK        -0.5147 
     49 N          25.6417  -32.3670  -42.5117 N.am      8 UNK        -0.4734 
     50 CA         24.8092  -33.2115  -43.3750 C.3       8 UNK         0.0238 
     51 CB         25.2583  -33.0093  -44.8336 C.3       8 UNK        -0.1912 
     52 C          23.2978  -32.9367  -43.2190 C.2       8 UNK         0.5038 
     53 O          22.5113  -33.4859  -43.9908 O.2       8 UNK        -0.5046 
     54 N          22.9194  -32.0776  -42.2620 N.am      9 UNK        -0.4200 
     55 CA         21.5718  -31.5382  -42.0210 C.3       9 UNK         0.0839 
     56 C          21.1642  -30.3809  -42.9768 C.2       9 UNK         0.5513 
     57 N          21.9474  -30.0555  -43.9965 N.am      9 UNK        -0.7519 
     58 O          20.1521  -29.7285  -42.7496 O.2       9 UNK        -0.4960 
     59 C59        20.4778  -32.6347  -41.8765 C.3       10 UNK        -0.0876 
     60 S60        19.1817  -32.2021  -40.6665 S.3       10 UNK        -0.2414 
     61 C61        17.6689  -32.6943  -41.5506 C.3       10 UNK         0.0169 
     62 H62        18.4614  -24.6487  -50.0886 H         1 UNK         0.0903 
     63 H63        17.5301  -24.5575  -48.5930 H         1 UNK         0.0903 
     64 H64        18.9259  -23.5033  -48.8278 H         1 UNK         0.0903 
     65 H65        17.9659  -26.2906  -47.2368 H         1 UNK         0.3096 
     66 H66        20.2130  -28.0167  -47.5675 H         1 UNK         0.1121 
     67 H67        19.3219  -29.1987  -45.5659 H         1 UNK         0.0849 
     68 H68        18.2484  -27.8740  -45.2097 H         1 UNK         0.0849 
     69 H69        16.4355  -31.3171  -46.7031 H         1 UNK         0.0865 
     70 H70        18.1508  -31.3529  -46.3775 H         1 UNK         0.0865 
     71 H71        18.0582  -32.4460  -44.2467 H         1 UNK         0.1346 
     72 H72        16.1364  -30.5429  -40.9246 H         1 UNK         0.1412 
     73 H73        15.7081  -28.9084  -44.8611 H         1 UNK         0.1426 
     74 H74        14.0464  -28.9611  -41.8698 H         1 UNK         0.0716 
     75 H75        14.6072  -27.8239  -43.0683 H         1 UNK         0.0716 
     76 H76        16.9013  -25.4910  -41.4646 H         1 UNK         0.0695 
     77 H77        16.5788  -26.3964  -42.9151 H         1 UNK         0.0695 
     78 H78        18.3688  -27.9970  -42.3765 H         1 UNK         0.0983 
     79 H79        18.7229  -25.5777  -43.3616 H         1 UNK         0.3095 
     80 H80        20.6713  -24.2227  -43.8403 H         1 UNK         0.0454 
     81 H81        23.1144  -26.0515  -44.1370 H         1 UNK         0.0851 
     82 H82        22.9992  -24.6106  -43.1467 H         1 UNK         0.0851 
     83 H83        22.9321  -24.4731  -44.8965 H         1 UNK         0.0851 
     84 H84        19.7511  -25.1865  -45.6378 H         1 UNK         0.2976 
     85 H85        19.7425  -28.9775  -41.0779 H         1 UNK         0.3116 
     86 H86        20.6918  -29.8235  -39.2820 H         1 UNK         0.0646 
     87 H87        18.7738  -28.1491  -37.5830 H         1 UNK         0.0847 
     88 H88        19.6583  -29.5732  -37.0590 H         1 UNK         0.0847 
     89 H89        18.4069  -29.7279  -38.2790 H         1 UNK         0.0847 
     90 H90        21.4368  -26.8716  -40.2198 H         1 UNK         0.3040 
     91 H91        23.1836  -26.0782  -37.9518 H         1 UNK         0.1015 
     92 H92        22.6765  -24.7520  -40.6720 H         1 UNK         0.0786 
     93 H93        23.6466  -24.0917  -39.3637 H         1 UNK         0.0786 
     94 H94        21.9145  -24.2960  -39.1504 H         1 UNK         0.0786 
     95 H95        23.2910  -27.3423  -41.2822 H         1 UNK         0.3172 
     96 H96        26.2221  -27.6503  -41.2897 H         1 UNK         0.0595 
     97 H97        25.7321  -28.7761  -43.5134 H         1 UNK         0.0839 
     98 H98        25.1293  -27.1330  -43.4199 H         1 UNK         0.0839 
     99 H99        24.0168  -28.4865  -43.2490 H         1 UNK         0.0839 
    100 H100       27.2760  -29.6753  -41.3065 H         1 UNK         0.2998 
    101 H101       26.3821  -31.5854  -39.4272 H         1 UNK         0.0822 
    102 H102       28.4432  -32.8281  -40.1135 H         1 UNK         0.0787 
    103 H103       28.6302  -31.7736  -41.5077 H         1 UNK         0.0787 
    104 H104       28.7790  -31.1224  -39.8743 H         1 UNK         0.0787 
    105 H105       25.9560  -31.4898  -42.9009 H         1 UNK         0.3055 
    106 H106       24.9683  -34.2600  -43.1127 H         1 UNK         0.1106 
    107 H107       24.7095  -33.6664  -45.5098 H         1 UNK         0.0828 
    108 H108       25.0939  -31.9851  -45.1705 H         1 UNK         0.0828 
    109 H109       26.3170  -33.2379  -44.9577 H         1 UNK         0.0828 
    110 H110       23.6380  -31.6481  -41.6899 H         1 UNK         0.2931 
    111 H111       21.6814  -31.0600  -41.0478 H         1 UNK         0.0412 
    112 H112       22.7752  -30.5894  -44.1946 H         1 UNK         0.3472 
    113 H113       21.7259  -29.2382  -44.5584 H         1 UNK         0.3472 
    114 H114       20.0394  -32.8706  -42.8472 H         1 UNK         0.0970 
    115 H115       20.9238  -33.5655  -41.5236 H         1 UNK         0.0970 
    116 H116       16.8985  -32.9207  -40.8121 H         1 UNK         0.0612 
    117 H117       17.8422  -33.6238  -42.0951 H         1 UNK         0.0612 
@<TRIPOS>BOND
     1    1    2 1    
     2    1   62 1    
     3    1   63 1    
     4    1   64 1    
     5    2    3 2    
     6    2    4 am   BACKBONE|DICT|INTERRES
     7    4    5 1    
     8    4   65 1    
     9    5    6 1    
    10    5   25 1    
    11    5   66 1    
    12    6    7 1    
    13    6   67 1    
    14    6   68 1    
    15    7    8 1    
    16    8    9 1    
    17    8   69 1    
    18    8   70 1    
    19    9   10 ar   
    20    9   14 ar   
    21   10   11 ar   
    22   10   71 1    
    23   11   12 ar   
    24   11   61 1    
    25   12   13 ar   
    26   12   72 1    
    27   13   14 ar   
    28   13   15 1    
    29   14   73 1    
    30   15   16 1    
    31   15   74 1    
    32   15   75 1    
    33   16   17 1    
    34   17   18 1    
    35   17   76 1    
    36   17   77 1    
    37   18   19 1    
    38   18   27 1    
    39   18   78 1    
    40   19   20 am   BACKBONE|DICT|INTERRES
    41   19   79 1    
    42   20   21 2    
    43   20   22 1    
    44   22   23 1    
    45   22   24 1    
    46   22   80 1    
    47   23   81 1    
    48   23   82 1    
    49   23   83 1    
    50   24   25 am   BACKBONE|DICT|INTERRES
    51   24   84 1    
    52   25   26 2    
    53   27   28 2    
    54   27   29 am   BACKBONE|DICT|INTERRES
    55   29   30 1    
    56   29   85 1    
    57   30   31 1    
    58   30   32 1    
    59   30   86 1    
    60   31   87 1    
    61   31   88 1    
    62   31   89 1    
    63   32   33 2    
    64   32   34 am   BACKBONE|DICT|INTERRES
    65   34   35 1    
    66   34   90 1    
    67   35   36 1    
    68   35   37 1    
    69   35   91 1    
    70   36   92 1    
    71   36   93 1    
    72   36   94 1    
    73   37   38 2    
    74   37   39 am   BACKBONE|DICT|INTERRES
    75   39   40 1    
    76   39   95 1    
    77   40   41 1    
    78   40   42 1    
    79   40   96 1    
    80   41   97 1    
    81   41   98 1    
    82   41   99 1    
    83   42   43 2    
    84   42   44 am   BACKBONE|DICT|INTERRES
    85   44   45 1    
    86   44  100 1    
    87   45   46 1    
    88   45   47 1    
    89   45  101 1    
    90   46  102 1    
    91   46  103 1    
    92   46  104 1    
    93   47   48 2    
    94   47   49 am   BACKBONE|DICT|INTERRES
    95   49   50 1    
    96   49  105 1    
    97   50   51 1    
    98   50   52 1    
    99   50  106 1    
   100   51  107 1    
   101   51  108 1    
   102   51  109 1    
   103   52   53 2    
   104   52   54 am   BACKBONE|DICT|INTERRES
   105   54   55 1    
   106   54  110 1    
   107   55   56 1    
   108   55   59 1    
   109   55  111 1    
   110   56   57 am   BACKBONE|DICT|INTERRES
   111   56   58 2    
   112   57  112 1    
   113   57  113 1    
   114   59   60 1    
   115   59  114 1    
   116   59  115 1    
   117   60   61 1    
   118   61  116 1    
   119   61  117 1    
@<TRIPOS>SUBSTRUCTURE
     1 UNK         1 GROUP             0       ****    0 ROOT    
