@<TRIPOS>MOLECULE
3R8
117   119    1
SMALL
USER_CHARGES


@<TRIPOS>ATOM
      1 CA         17.5588  -29.1507  -40.3793 C.3       0 UNK        -0.2013 
      2 C          17.5135  -27.7356  -40.9361 C.2       0 UNK         0.4866 
      3 O          17.5170  -26.7726  -40.1708 O.2       0 UNK        -0.5176 
      4 N          17.4837  -27.6021  -42.2679 N.am      1 UNK        -0.4884 
      5 CA         17.4599  -26.3145  -42.9780 C.3       1 UNK         0.0853 
      6 C6         16.7414  -26.4207  -44.3443 C.3       10 UNK        -0.0849 
      7 S7         14.9955  -26.9731  -44.2772 S.3       10 UNK        -0.2776 
      8 C8         15.0189  -28.7916  -44.0257 C.3       10 UNK         0.0316 
      9 C9         16.2018  -29.5306  -44.6464 C.ar      10 UNK        -0.0863 
     10 C10        16.8885  -30.4917  -43.8966 C.ar      10 UNK        -0.1009 
     11 C11        17.9984  -31.1510  -44.4316 C.ar      10 UNK        -0.0712 
     12 C12        18.4343  -30.8323  -45.7207 C.ar      10 UNK        -0.0894 
     13 C13        17.7540  -29.8772  -46.4813 C.ar      10 UNK        -0.0745 
     14 C14        16.6127  -29.2666  -45.9567 C.ar      10 UNK        -0.0972 
     15 C15        18.2574  -29.4742  -47.8580 C.3       10 UNK         0.0209 
     16 S16        19.2903  -27.9742  -47.7647 S.3       10 UNK        -0.2568 
     17 C17        20.9148  -28.6881  -47.3501 C.3       10 UNK        -0.0983 
     18 CA         21.8502  -27.6952  -46.6119 C.3       3 UNK         0.0876 
     19 N          21.3428  -27.3425  -45.2796 N.am      3 UNK        -0.4424 
     20 C          21.7490  -26.2860  -44.5610 C.2       2 UNK         0.4918 
     21 O          22.4706  -25.3946  -45.0128 O.2       2 UNK        -0.4875 
     22 CA         21.3425  -26.2756  -43.0769 C.3       2 UNK         0.0481 
     23 CB         21.8112  -25.0106  -42.3246 C.3       2 UNK        -0.1831 
     24 N          19.9152  -26.5399  -42.8735 N.am      2 UNK        -0.4498 
     25 C          18.8814  -25.7461  -43.1961 C.2       1 UNK         0.5027 
     26 O          19.0058  -24.6185  -43.6755 O.2       1 UNK        -0.4969 
     27 C          23.2771  -28.2719  -46.4656 C.2       3 UNK         0.5005 
     28 O          23.4527  -29.4906  -46.5058 O.2       3 UNK        -0.5279 
     29 N          24.2561  -27.3953  -46.1922 N.am      4 UNK        -0.4463 
     30 CA         25.6790  -27.6488  -45.8994 C.3       4 UNK         0.0283 
     31 CB         26.3765  -28.3641  -47.0730 C.3       4 UNK        -0.1875 
     32 C          25.9586  -28.3772  -44.5669 C.2       4 UNK         0.4949 
     33 O          27.0388  -28.2016  -44.0052 O.2       4 UNK        -0.5039 
     34 N          24.9898  -29.1523  -44.0654 N.am      5 UNK        -0.4663 
     35 CA         25.0585  -29.9625  -42.8447 C.3       5 UNK         0.0242 
     36 CB         23.9560  -31.0328  -42.9178 C.3       5 UNK        -0.1982 
     37 C          24.9550  -29.1717  -41.5249 C.2       5 UNK         0.5017 
     38 O          24.9096  -29.7970  -40.4658 O.2       5 UNK        -0.5012 
     39 N          24.8727  -27.8332  -41.5904 N.am      6 UNK        -0.4439 
     40 CA         24.8186  -26.8937  -40.4563 C.3       6 UNK         0.0297 
     41 CB         26.1786  -26.8583  -39.7274 C.3       6 UNK        -0.2006 
     42 C          23.6391  -27.1399  -39.4890 C.2       6 UNK         0.4892 
     43 O          23.7644  -26.8945  -38.2886 O.2       6 UNK        -0.5089 
     44 N          22.5236  -27.6363  -40.0446 N.am      7 UNK        -0.4243 
     45 CA         21.2733  -28.0260  -39.3811 C.3       7 UNK         0.0196 
     46 CB         20.6132  -26.8272  -38.6665 C.3       7 UNK        -0.2007 
     47 C          21.3959  -29.2637  -38.4693 C.2       7 UNK         0.5020 
     48 O          20.4843  -29.5184  -37.6818 O.2       7 UNK        -0.5147 
     49 N          22.4831  -30.0392  -38.6018 N.am      8 UNK        -0.4734 
     50 CA         22.6724  -31.3029  -37.8811 C.3       8 UNK         0.0238 
     51 CB         24.1721  -31.6358  -37.8206 C.3       8 UNK        -0.1912 
     52 C          21.8886  -32.4715  -38.5061 C.2       8 UNK         0.5038 
     53 O          21.6699  -33.4744  -37.8247 O.2       8 UNK        -0.5046 
     54 N          21.5040  -32.3379  -39.7830 N.am      9 UNK        -0.4200 
     55 CA         20.7149  -33.3236  -40.5311 C.3       9 UNK         0.0839 
     56 C          19.2373  -33.4300  -40.0567 C.2       9 UNK         0.5513 
     57 N          18.5761  -34.5416  -40.3508 N.am      9 UNK        -0.7519 
     58 O          18.6773  -32.5149  -39.4568 O.2       9 UNK        -0.4960 
     59 C59        20.8448  -33.1075  -42.0620 C.3       10 UNK        -0.0876 
     60 S60        20.1224  -31.5484  -42.6933 S.3       10 UNK        -0.2414 
     61 C61        18.7154  -32.2232  -43.6287 C.3       10 UNK         0.0169 
     62 H62        16.5523  -29.4971  -40.1471 H         1 UNK         0.0903 
     63 H63        18.0106  -29.8493  -41.0830 H         1 UNK         0.0903 
     64 H64        18.1464  -29.1813  -39.4617 H         1 UNK         0.0903 
     65 H65        17.4516  -28.4224  -42.8592 H         1 UNK         0.3096 
     66 H66        16.9184  -25.5850  -42.3710 H         1 UNK         0.1121 
     67 H67        16.7122  -25.4343  -44.8120 H         1 UNK         0.0849 
     68 H68        17.3226  -27.0278  -45.0349 H         1 UNK         0.0849 
     69 H69        14.9798  -28.9769  -42.9511 H         1 UNK         0.0865 
     70 H70        14.0969  -29.2088  -44.4325 H         1 UNK         0.0865 
     71 H71        16.5575  -30.7363  -42.8962 H         1 UNK         0.1346 
     72 H72        19.3053  -31.3272  -46.1278 H         1 UNK         0.1412 
     73 H73        16.0816  -28.5317  -46.5468 H         1 UNK         0.1426 
     74 H74        17.4087  -29.2765  -48.5145 H         1 UNK         0.0716 
     75 H75        18.8181  -30.2872  -48.3221 H         1 UNK         0.0716 
     76 H76        21.3690  -29.0152  -48.2876 H         1 UNK         0.0695 
     77 H77        20.7743  -29.5883  -46.7510 H         1 UNK         0.0695 
     78 H78        21.9216  -26.7883  -47.2171 H         1 UNK         0.0983 
     79 H79        20.7427  -28.0269  -44.8445 H         1 UNK         0.3095 
     80 H80        21.8644  -27.1238  -42.6356 H         1 UNK         0.0454 
     81 H81        22.8956  -24.9087  -42.3715 H         1 UNK         0.0851 
     82 H82        21.3895  -24.1004  -42.7511 H         1 UNK         0.0851 
     83 H83        21.5350  -25.0445  -41.2717 H         1 UNK         0.0851 
     84 H84        19.6794  -27.4435  -42.4901 H         1 UNK         0.2976 
     85 H85        23.9664  -26.4288  -46.0779 H         1 UNK         0.3116 
     86 H86        26.1342  -26.6617  -45.8043 H         1 UNK         0.0646 
     87 H87        27.4508  -28.4386  -46.8987 H         1 UNK         0.0847 
     88 H88        26.2380  -27.8219  -48.0082 H         1 UNK         0.0847 
     89 H89        26.0037  -29.3789  -47.2142 H         1 UNK         0.0847 
     90 H90        24.1810  -29.2976  -44.6606 H         1 UNK         0.3040 
     91 H91        26.0261  -30.4690  -42.8280 H         1 UNK         0.1015 
     92 H92        24.0547  -31.6449  -43.8146 H         1 UNK         0.0786 
     93 H93        22.9632  -30.5827  -42.9286 H         1 UNK         0.0786 
     94 H94        24.0016  -31.7091  -42.0629 H         1 UNK         0.0786 
     95 H95        24.9262  -27.4184  -42.5099 H         1 UNK         0.3172 
     96 H96        24.6527  -25.9051  -40.8861 H         1 UNK         0.0595 
     97 H97        26.9964  -26.6638  -40.4213 H         1 UNK         0.0839 
     98 H98        26.3878  -27.7997  -39.2180 H         1 UNK         0.0839 
     99 H99        26.2013  -26.0695  -38.9743 H         1 UNK         0.0839 
    100 H100       22.5650  -27.8273  -41.0339 H         1 UNK         0.2998 
    101 H101       20.5996  -28.3296  -40.1830 H         1 UNK         0.0822 
    102 H102       20.4762  -25.9853  -39.3440 H         1 UNK         0.0787 
    103 H103       19.6247  -27.0918  -38.2890 H         1 UNK         0.0787 
    104 H104       21.2005  -26.4846  -37.8145 H         1 UNK         0.0787 
    105 H105       23.2208  -29.7681  -39.2446 H         1 UNK         0.3055 
    106 H106       22.3123  -31.1800  -36.8569 H         1 UNK         0.1106 
    107 H107       24.5803  -31.8462  -38.8097 H         1 UNK         0.0828 
    108 H108       24.7457  -30.8158  -37.3881 H         1 UNK         0.0828 
    109 H109       24.3500  -32.5174  -37.2034 H         1 UNK         0.0828 
    110 H110       21.6914  -31.4668  -40.2538 H         1 UNK         0.2931 
    111 H111       21.1702  -34.2933  -40.3182 H         1 UNK         0.0412 
    112 H112       17.6143  -34.6282  -40.0614 H         1 UNK         0.3472 
    113 H113       19.0207  -35.3023  -40.8408 H         1 UNK         0.3472 
    114 H114       20.4087  -33.9568  -42.5903 H         1 UNK         0.0970 
    115 H115       21.8989  -33.1222  -42.3410 H         1 UNK         0.0970 
    116 H116       19.0690  -33.0033  -44.3048 H         1 UNK         0.0612 
    117 H117       18.0222  -32.7052  -42.9373 H         1 UNK         0.0612 
@<TRIPOS>BOND
     1    1    2 1    
     2    1   62 1    
     3    1   63 1    
     4    1   64 1    
     5    2    3 2    
     6    2    4 am   BACKBONE|DICT|INTERRES
     7    4    5 1    
     8    4   65 1    
     9    5    6 1    
    10    5   25 1    
    11    5   66 1    
    12    6    7 1    
    13    6   67 1    
    14    6   68 1    
    15    7    8 1    
    16    8    9 1    
    17    8   69 1    
    18    8   70 1    
    19    9   10 ar   
    20    9   14 ar   
    21   10   11 ar   
    22   10   71 1    
    23   11   12 ar   
    24   11   61 1    
    25   12   13 ar   
    26   12   72 1    
    27   13   14 ar   
    28   13   15 1    
    29   14   73 1    
    30   15   16 1    
    31   15   74 1    
    32   15   75 1    
    33   16   17 1    
    34   17   18 1    
    35   17   76 1    
    36   17   77 1    
    37   18   19 1    
    38   18   27 1    
    39   18   78 1    
    40   19   20 am   BACKBONE|DICT|INTERRES
    41   19   79 1    
    42   20   21 2    
    43   20   22 1    
    44   22   23 1    
    45   22   24 1    
    46   22   80 1    
    47   23   81 1    
    48   23   82 1    
    49   23   83 1    
    50   24   25 am   BACKBONE|DICT|INTERRES
    51   24   84 1    
    52   25   26 2    
    53   27   28 2    
    54   27   29 am   BACKBONE|DICT|INTERRES
    55   29   30 1    
    56   29   85 1    
    57   30   31 1    
    58   30   32 1    
    59   30   86 1    
    60   31   87 1    
    61   31   88 1    
    62   31   89 1    
    63   32   33 2    
    64   32   34 am   BACKBONE|DICT|INTERRES
    65   34   35 1    
    66   34   90 1    
    67   35   36 1    
    68   35   37 1    
    69   35   91 1    
    70   36   92 1    
    71   36   93 1    
    72   36   94 1    
    73   37   38 2    
    74   37   39 am   BACKBONE|DICT|INTERRES
    75   39   40 1    
    76   39   95 1    
    77   40   41 1    
    78   40   42 1    
    79   40   96 1    
    80   41   97 1    
    81   41   98 1    
    82   41   99 1    
    83   42   43 2    
    84   42   44 am   BACKBONE|DICT|INTERRES
    85   44   45 1    
    86   44  100 1    
    87   45   46 1    
    88   45   47 1    
    89   45  101 1    
    90   46  102 1    
    91   46  103 1    
    92   46  104 1    
    93   47   48 2    
    94   47   49 am   BACKBONE|DICT|INTERRES
    95   49   50 1    
    96   49  105 1    
    97   50   51 1    
    98   50   52 1    
    99   50  106 1    
   100   51  107 1    
   101   51  108 1    
   102   51  109 1    
   103   52   53 2    
   104   52   54 am   BACKBONE|DICT|INTERRES
   105   54   55 1    
   106   54  110 1    
   107   55   56 1    
   108   55   59 1    
   109   55  111 1    
   110   56   57 am   BACKBONE|DICT|INTERRES
   111   56   58 2    
   112   57  112 1    
   113   57  113 1    
   114   59   60 1    
   115   59  114 1    
   116   59  115 1    
   117   60   61 1    
   118   61  116 1    
   119   61  117 1    
@<TRIPOS>SUBSTRUCTURE
     1 UNK         1 GROUP             0       ****    0 ROOT    
