@<TRIPOS>MOLECULE
3R8
117   119    1
SMALL
USER_CHARGES


@<TRIPOS>ATOM
      1 CA         23.6110  -29.9175  -49.3505 C.3       0 UNK        -0.2013 
      2 C          23.1633  -29.5015  -47.9571 C.2       0 UNK         0.4866 
      3 O          24.0046  -29.2278  -47.1016 O.2       0 UNK        -0.5176 
      4 N          21.8461  -29.4645  -47.7199 N.am      1 UNK        -0.4884 
      5 CA         21.2378  -29.0562  -46.4501 C.3       1 UNK         0.0853 
      6 C6         19.7326  -29.4188  -46.3921 C.3       10 UNK        -0.0849 
      7 S7         19.4685  -31.2012  -46.1347 S.3       10 UNK        -0.2776 
      8 C8         17.7238  -31.2205  -45.6042 C.3       10 UNK         0.0316 
      9 C9         17.4946  -30.4954  -44.2817 C.ar      10 UNK        -0.0863 
     10 C10        18.1034  -30.9556  -43.1118 C.ar      10 UNK        -0.1009 
     11 C11        17.8619  -30.3367  -41.8795 C.ar      10 UNK        -0.0712 
     12 C12        17.0111  -29.2258  -41.8380 C.ar      10 UNK        -0.0894 
     13 C13        16.4099  -28.7388  -43.0032 C.ar      10 UNK        -0.0745 
     14 C14        16.6525  -29.3815  -44.2211 C.ar      10 UNK        -0.0972 
     15 C15        15.4692  -27.5420  -42.9530 C.3       10 UNK         0.0209 
     16 S16        16.2688  -26.0229  -43.5639 S.3       10 UNK        -0.2568 
     17 C17        16.9851  -25.3051  -42.0447 C.3       10 UNK        -0.0983 
     18 CA         18.4318  -25.7767  -41.7638 C.3       3 UNK         0.0876 
     19 N          19.3242  -25.5710  -42.9081 N.am      3 UNK        -0.4424 
     20 C          20.5500  -26.0942  -43.0074 C.2       2 UNK         0.4918 
     21 O          21.0795  -26.7920  -42.1377 O.2       2 UNK        -0.4875 
     22 CA         21.2853  -25.8831  -44.3300 C.3       2 UNK         0.0481 
     23 CB         22.6602  -25.2252  -44.1273 C.3       2 UNK        -0.1831 
     24 N          21.4298  -27.2200  -44.8828 N.am      2 UNK        -0.4498 
     25 C          21.4112  -27.5499  -46.1763 C.2       1 UNK         0.5027 
     26 O          21.4410  -26.7382  -47.1050 O.2       1 UNK        -0.4969 
     27 C          18.9958  -25.1070  -40.4952 C.2       3 UNK         0.5005 
     28 O          19.6407  -24.0594  -40.5930 O.2       3 UNK        -0.5279 
     29 N          18.7782  -25.7445  -39.3354 N.am      4 UNK        -0.4463 
     30 CA         19.3000  -25.4169  -37.9970 C.3       4 UNK         0.0283 
     31 CB         18.8770  -24.0073  -37.5380 C.3       4 UNK        -0.1875 
     32 C          20.8204  -25.6225  -37.8433 C.2       4 UNK         0.4949 
     33 O          21.2526  -26.1222  -36.8048 O.2       4 UNK        -0.5039 
     34 N          21.5994  -25.2678  -38.8734 N.am      5 UNK        -0.4663 
     35 CA         23.0394  -25.5172  -38.9736 C.3       5 UNK         0.0242 
     36 CB         23.6109  -24.7168  -40.1548 C.3       5 UNK        -0.1982 
     37 C          23.3738  -27.0120  -39.1213 C.2       5 UNK         0.5017 
     38 O          24.3775  -27.4578  -38.5651 O.2       5 UNK        -0.5012 
     39 N          22.5188  -27.7443  -39.8537 N.am      6 UNK        -0.4439 
     40 CA         22.5872  -29.1790  -40.1466 C.3       6 UNK         0.0297 
     41 CB         22.3830  -30.0181  -38.8677 C.3       6 UNK        -0.2006 
     42 C          23.8612  -29.5503  -40.9259 C.2       6 UNK         0.4892 
     43 O          24.6372  -30.3998  -40.4863 O.2       6 UNK        -0.5089 
     44 N          24.0465  -28.8915  -42.0799 N.am      7 UNK        -0.4243 
     45 CA         25.1675  -29.1179  -43.0032 C.3       7 UNK         0.0196 
     46 CB         25.1938  -28.0001  -44.0573 C.3       7 UNK        -0.2007 
     47 C          25.1559  -30.5050  -43.6783 C.2       7 UNK         0.5020 
     48 O          26.2153  -30.9869  -44.0809 O.2       7 UNK        -0.5147 
     49 N          23.9736  -31.1248  -43.7647 N.am      8 UNK        -0.4734 
     50 CA         23.7701  -32.5119  -44.1726 C.3       8 UNK         0.0238 
     51 CB         23.1641  -32.5627  -45.5892 C.3       8 UNK        -0.1912 
     52 C          22.9127  -33.1661  -43.0820 C.2       8 UNK         0.5038 
     53 O          23.4514  -33.4827  -42.0211 O.2       8 UNK        -0.5046 
     54 N          21.6013  -33.3078  -43.3240 N.am      9 UNK        -0.4200 
     55 CA         20.6068  -33.7888  -42.3462 C.3       9 UNK         0.0839 
     56 C          20.7558  -35.2892  -41.9416 C.2       9 UNK         0.5513 
     57 N          21.4230  -36.1168  -42.7374 N.am      9 UNK        -0.7519 
     58 O          20.2431  -35.7214  -40.9127 O.2       9 UNK        -0.4960 
     59 C59        20.4835  -32.8162  -41.1304 C.3       10 UNK        -0.0876 
     60 S60        18.7798  -32.6384  -40.4920 S.3       10 UNK        -0.2414 
     61 C61        18.5049  -30.8306  -40.5816 C.3       10 UNK         0.0169 
     62 H62        24.2227  -30.8185  -49.2928 H         1 UNK         0.0903 
     63 H63        22.7645  -30.1218  -50.0077 H         1 UNK         0.0903 
     64 H64        24.2099  -29.1264  -49.8038 H         1 UNK         0.0903 
     65 H65        21.1992  -29.6898  -48.4623 H         1 UNK         0.3096 
     66 H66        21.7603  -29.5905  -45.6531 H         1 UNK         0.1121 
     67 H67        19.2390  -28.8913  -45.5726 H         1 UNK         0.0849 
     68 H68        19.2170  -29.1046  -47.3024 H         1 UNK         0.0849 
     69 H69        17.1079  -30.7915  -46.3963 H         1 UNK         0.0865 
     70 H70        17.4011  -32.2571  -45.4972 H         1 UNK         0.0865 
     71 H71        18.7610  -31.8058  -43.1734 H         1 UNK         0.1346 
     72 H72        16.8111  -28.7398  -40.8930 H         1 UNK         0.1412 
     73 H73        16.1771  -29.0139  -45.1206 H         1 UNK         0.1426 
     74 H74        15.0817  -27.3889  -41.9448 H         1 UNK         0.0716 
     75 H75        14.5991  -27.7486  -43.5779 H         1 UNK         0.0716 
     76 H76        16.3329  -25.5347  -41.2000 H         1 UNK         0.0695 
     77 H77        16.9590  -24.2191  -42.1549 H         1 UNK         0.0695 
     78 H78        18.4072  -26.8522  -41.5832 H         1 UNK         0.0983 
     79 H79        18.9528  -25.0191  -43.6669 H         1 UNK         0.3095 
     80 H80        20.6789  -25.2646  -44.9954 H         1 UNK         0.0454 
     81 H81        23.2818  -25.7891  -43.4328 H         1 UNK         0.0851 
     82 H82        22.5517  -24.2182  -43.7230 H         1 UNK         0.0851 
     83 H83        23.2023  -25.1420  -45.0693 H         1 UNK         0.0851 
     84 H84        21.3514  -27.9515  -44.1891 H         1 UNK         0.2976 
     85 H85        18.2475  -26.6042  -39.3697 H         1 UNK         0.3116 
     86 H86        18.8245  -26.1299  -37.3212 H         1 UNK         0.0646 
     87 H87        19.3481  -23.2221  -38.1298 H         1 UNK         0.0847 
     88 H88        19.1616  -23.8383  -36.4987 H         1 UNK         0.0847 
     89 H89        17.7971  -23.8753  -37.6033 H         1 UNK         0.0847 
     90 H90        21.1439  -24.8201  -39.6642 H         1 UNK         0.3040 
     91 H91        23.5109  -25.1625  -38.0543 H         1 UNK         0.1015 
     92 H92        23.4647  -23.6456  -40.0146 H         1 UNK         0.0786 
     93 H93        23.1397  -24.9978  -41.0967 H         1 UNK         0.0786 
     94 H94        24.6834  -24.8865  -40.2611 H         1 UNK         0.0786 
     95 H95        21.7867  -27.2434  -40.3488 H         1 UNK         0.3172 
     96 H96        21.7492  -29.3925  -40.8117 H         1 UNK         0.0595 
     97 H97        23.1921  -29.8721  -38.1515 H         1 UNK         0.0839 
     98 H98        22.3469  -31.0826  -39.1021 H         1 UNK         0.0839 
     99 H99        21.4464  -29.7632  -38.3719 H         1 UNK         0.0839 
    100 H100       23.3783  -28.1776  -42.3336 H         1 UNK         0.2998 
    101 H101       26.0907  -29.0560  -42.4228 H         1 UNK         0.0822 
    102 H102       26.0039  -28.1555  -44.7714 H         1 UNK         0.0787 
    103 H103       24.2662  -27.9600  -44.6288 H         1 UNK         0.0787 
    104 H104       25.3550  -27.0251  -43.5979 H         1 UNK         0.0787 
    105 H105       23.1750  -30.6634  -43.3560 H         1 UNK         0.3055 
    106 H106       24.7204  -33.0510  -44.1863 H         1 UNK         0.1106 
    107 H107       22.9385  -33.5873  -45.8873 H         1 UNK         0.0828 
    108 H108       23.8666  -32.1646  -46.3216 H         1 UNK         0.0828 
    109 H109       22.2487  -31.9797  -45.6709 H         1 UNK         0.0828 
    110 H110       21.2405  -33.0455  -44.2302 H         1 UNK         0.2931 
    111 H111       19.6655  -33.7675  -42.8940 H         1 UNK         0.0412 
    112 H112       21.8411  -35.7824  -43.5907 H         1 UNK         0.3472 
    113 H113       21.5111  -37.0872  -42.4781 H         1 UNK         0.3472 
    114 H114       21.1380  -33.1277  -40.3141 H         1 UNK         0.0970 
    115 H115       20.8374  -31.8244  -41.4132 H         1 UNK         0.0970 
    116 H116       17.8586  -30.5693  -39.7422 H         1 UNK         0.0612 
    117 H117       19.4403  -30.2960  -40.4145 H         1 UNK         0.0612 
@<TRIPOS>BOND
     1    1    2 1    
     2    1   62 1    
     3    1   63 1    
     4    1   64 1    
     5    2    3 2    
     6    2    4 am   BACKBONE|DICT|INTERRES
     7    4    5 1    
     8    4   65 1    
     9    5    6 1    
    10    5   25 1    
    11    5   66 1    
    12    6    7 1    
    13    6   67 1    
    14    6   68 1    
    15    7    8 1    
    16    8    9 1    
    17    8   69 1    
    18    8   70 1    
    19    9   10 ar   
    20    9   14 ar   
    21   10   11 ar   
    22   10   71 1    
    23   11   12 ar   
    24   11   61 1    
    25   12   13 ar   
    26   12   72 1    
    27   13   14 ar   
    28   13   15 1    
    29   14   73 1    
    30   15   16 1    
    31   15   74 1    
    32   15   75 1    
    33   16   17 1    
    34   17   18 1    
    35   17   76 1    
    36   17   77 1    
    37   18   19 1    
    38   18   27 1    
    39   18   78 1    
    40   19   20 am   BACKBONE|DICT|INTERRES
    41   19   79 1    
    42   20   21 2    
    43   20   22 1    
    44   22   23 1    
    45   22   24 1    
    46   22   80 1    
    47   23   81 1    
    48   23   82 1    
    49   23   83 1    
    50   24   25 am   BACKBONE|DICT|INTERRES
    51   24   84 1    
    52   25   26 2    
    53   27   28 2    
    54   27   29 am   BACKBONE|DICT|INTERRES
    55   29   30 1    
    56   29   85 1    
    57   30   31 1    
    58   30   32 1    
    59   30   86 1    
    60   31   87 1    
    61   31   88 1    
    62   31   89 1    
    63   32   33 2    
    64   32   34 am   BACKBONE|DICT|INTERRES
    65   34   35 1    
    66   34   90 1    
    67   35   36 1    
    68   35   37 1    
    69   35   91 1    
    70   36   92 1    
    71   36   93 1    
    72   36   94 1    
    73   37   38 2    
    74   37   39 am   BACKBONE|DICT|INTERRES
    75   39   40 1    
    76   39   95 1    
    77   40   41 1    
    78   40   42 1    
    79   40   96 1    
    80   41   97 1    
    81   41   98 1    
    82   41   99 1    
    83   42   43 2    
    84   42   44 am   BACKBONE|DICT|INTERRES
    85   44   45 1    
    86   44  100 1    
    87   45   46 1    
    88   45   47 1    
    89   45  101 1    
    90   46  102 1    
    91   46  103 1    
    92   46  104 1    
    93   47   48 2    
    94   47   49 am   BACKBONE|DICT|INTERRES
    95   49   50 1    
    96   49  105 1    
    97   50   51 1    
    98   50   52 1    
    99   50  106 1    
   100   51  107 1    
   101   51  108 1    
   102   51  109 1    
   103   52   53 2    
   104   52   54 am   BACKBONE|DICT|INTERRES
   105   54   55 1    
   106   54  110 1    
   107   55   56 1    
   108   55   59 1    
   109   55  111 1    
   110   56   57 am   BACKBONE|DICT|INTERRES
   111   56   58 2    
   112   57  112 1    
   113   57  113 1    
   114   59   60 1    
   115   59  114 1    
   116   59  115 1    
   117   60   61 1    
   118   61  116 1    
   119   61  117 1    
@<TRIPOS>SUBSTRUCTURE
     1 UNK         1 GROUP             0       ****    0 ROOT    
