@<TRIPOS>MOLECULE
3R8
117   119    1
SMALL
USER_CHARGES


@<TRIPOS>ATOM
      1 CA         17.9265  -22.6023  -40.8144 C.3       0 UNK        -0.2013 
      2 C          17.9162  -23.1277  -42.2422 C.2       0 UNK         0.4866 
      3 O          18.2053  -22.3753  -43.1735 O.2       0 UNK        -0.5176 
      4 N          17.5765  -24.4109  -42.4213 N.am      1 UNK        -0.4884 
      5 CA         17.6010  -25.1090  -43.7118 C.3       1 UNK         0.0853 
      6 C6         16.7645  -26.4116  -43.6566 C.3       10 UNK        -0.0849 
      7 S7         16.1223  -26.8803  -45.2962 S.3       10 UNK        -0.2776 
      8 C8         15.3089  -28.4607  -44.9118 C.3       10 UNK         0.0316 
      9 C9         16.3123  -29.5666  -44.6173 C.ar      10 UNK        -0.0863 
     10 C10        16.4605  -30.0637  -43.3165 C.ar      10 UNK        -0.1009 
     11 C11        17.3370  -31.1229  -43.0562 C.ar      10 UNK        -0.0712 
     12 C12        18.0411  -31.6936  -44.1165 C.ar      10 UNK        -0.0894 
     13 C13        17.9674  -31.1556  -45.4025 C.ar      10 UNK        -0.0745 
     14 C14        17.0837  -30.1037  -45.6538 C.ar      10 UNK        -0.0972 
     15 C15        18.8658  -31.7042  -46.5029 C.3       10 UNK         0.0209 
     16 S16        20.3447  -30.6660  -46.7845 S.3       10 UNK        -0.2568 
     17 C17        21.1314  -30.5823  -45.1296 C.3       10 UNK        -0.0983 
     18 CA         21.5960  -29.1660  -44.6761 C.3       3 UNK         0.0876 
     19 N          20.8520  -28.0548  -45.2846 N.am      3 UNK        -0.4424 
     20 C          21.4085  -26.8722  -45.5805 C.2       2 UNK         0.4918 
     21 O          22.5923  -26.5991  -45.3830 O.2       2 UNK        -0.4875 
     22 CA         20.4885  -25.7989  -46.1864 C.3       2 UNK         0.0481 
     23 CB         20.2283  -26.0898  -47.6735 C.3       2 UNK        -0.1831 
     24 N          19.2099  -25.6232  -45.4904 N.am      2 UNK        -0.4498 
     25 C          19.0491  -25.3763  -44.1824 C.2       1 UNK         0.5027 
     26 O          19.9727  -25.3813  -43.3645 O.2       1 UNK        -0.4969 
     27 C          21.5933  -29.0544  -43.1360 C.2       3 UNK         0.5005 
     28 O          22.5065  -29.5692  -42.4943 O.2       3 UNK        -0.5279 
     29 N          20.5746  -28.3956  -42.5602 N.am      4 UNK        -0.4463 
     30 CA         20.4330  -28.1861  -41.1153 C.3       4 UNK         0.0283 
     31 CB         19.0175  -27.6893  -40.7903 C.3       4 UNK        -0.1875 
     32 C          21.4968  -27.2385  -40.5413 C.2       4 UNK         0.4949 
     33 O          21.8917  -27.4070  -39.3871 O.2       4 UNK        -0.5039 
     34 N          21.9801  -26.2954  -41.3614 N.am      5 UNK        -0.4663 
     35 CA         23.1687  -25.4839  -41.1006 C.3       5 UNK         0.0242 
     36 CB         23.3594  -24.4875  -42.2560 C.3       5 UNK        -0.1982 
     37 C          24.4059  -26.3852  -40.9226 C.2       5 UNK         0.5017 
     38 O          24.8139  -27.0499  -41.8758 O.2       5 UNK        -0.5012 
     39 N          24.9324  -26.4206  -39.6903 N.am      6 UNK        -0.4439 
     40 CA         26.0000  -27.3028  -39.1968 C.3       6 UNK         0.0297 
     41 CB         27.3060  -27.1351  -40.0046 C.3       6 UNK        -0.2006 
     42 C          25.5838  -28.7831  -39.0367 C.2       6 UNK         0.4892 
     43 O          26.4638  -29.6279  -38.8649 O.2       6 UNK        -0.5089 
     44 N          24.2688  -29.0628  -39.0352 N.am      7 UNK        -0.4243 
     45 CA         23.6214  -30.3539  -38.7618 C.3       7 UNK         0.0196 
     46 CB         23.7149  -30.6819  -37.2567 C.3       7 UNK        -0.2007 
     47 C          24.1241  -31.5050  -39.6557 C.2       7 UNK         0.5020 
     48 O          24.5429  -32.5480  -39.1505 O.2       7 UNK        -0.5147 
     49 N          24.0647  -31.2973  -40.9746 N.am      8 UNK        -0.4734 
     50 CA         24.4832  -32.2504  -42.0044 C.3       8 UNK         0.0238 
     51 CB         25.3191  -31.4967  -43.0563 C.3       8 UNK        -0.1912 
     52 C          23.2841  -32.9793  -42.6432 C.2       8 UNK         0.5038 
     53 O          23.4263  -33.5055  -43.7486 O.2       8 UNK        -0.5046 
     54 N          22.1294  -32.9964  -41.9593 N.am      9 UNK        -0.4200 
     55 CA         20.9062  -33.7050  -42.3687 C.3       9 UNK         0.0839 
     56 C          21.1262  -35.2326  -42.5569 C.2       9 UNK         0.5513 
     57 N          20.5054  -35.8314  -43.5641 N.am      9 UNK        -0.7519 
     58 O          21.8105  -35.8825  -41.7689 O.2       9 UNK        -0.4960 
     59 C59        19.7309  -33.4670  -41.3795 C.3       10 UNK        -0.0876 
     60 S60        19.2857  -31.7108  -41.1313 S.3       10 UNK        -0.2414 
     61 C61        17.5261  -31.6475  -41.6362 C.3       10 UNK         0.0169 
     62 H62        18.9229  -22.2458  -40.5546 H         1 UNK         0.0903 
     63 H63        17.2298  -21.7703  -40.7152 H         1 UNK         0.0903 
     64 H64        17.6433  -23.3697  -40.0943 H         1 UNK         0.0903 
     65 H65        17.3596  -24.9786  -41.6155 H         1 UNK         0.3096 
     66 H66        17.1426  -24.4325  -44.4377 H         1 UNK         0.1121 
     67 H67        15.8982  -26.2763  -43.0065 H         1 UNK         0.0849 
     68 H68        17.3347  -27.2383  -43.2302 H         1 UNK         0.0849 
     69 H69        14.6946  -28.7559  -45.7638 H         1 UNK         0.0865 
     70 H70        14.6202  -28.3229  -44.0767 H         1 UNK         0.0865 
     71 H71        15.8869  -29.6312  -42.5081 H         1 UNK         0.1346 
     72 H72        18.6966  -32.5274  -43.9278 H         1 UNK         0.1412 
     73 H73        17.0008  -29.6978  -46.6531 H         1 UNK         0.1426 
     74 H74        18.3015  -31.7748  -47.4338 H         1 UNK         0.0716 
     75 H75        19.1868  -32.7195  -46.2648 H         1 UNK         0.0716 
     76 H76        21.9933  -31.2518  -45.1439 H         1 UNK         0.0695 
     77 H77        20.4696  -31.0213  -44.3895 H         1 UNK         0.0695 
     78 H78        22.6410  -29.0770  -44.9827 H         1 UNK         0.0983 
     79 H79        19.8855  -28.2272  -45.5203 H         1 UNK         0.3095 
     80 H80        21.0163  -24.8454  -46.1194 H         1 UNK         0.0454 
     81 H81        19.6500  -27.0040  -47.8136 H         1 UNK         0.0851 
     82 H82        21.1661  -26.2120  -48.2174 H         1 UNK         0.0851 
     83 H83        19.6859  -25.2730  -48.1498 H         1 UNK         0.0851 
     84 H84        18.3812  -25.6504  -46.0687 H         1 UNK         0.2976 
     85 H85        19.8838  -27.9671  -43.1561 H         1 UNK         0.3116 
     86 H86        20.5718  -29.1506  -40.6244 H         1 UNK         0.0646 
     87 H87        18.2597  -28.3838  -41.1534 H         1 UNK         0.0847 
     88 H88        18.8257  -26.7103  -41.2266 H         1 UNK         0.0847 
     89 H89        18.8791  -27.5962  -39.7123 H         1 UNK         0.0847 
     90 H90        21.5480  -26.1906  -42.2730 H         1 UNK         0.3040 
     91 H91        22.9954  -24.9166  -40.1838 H         1 UNK         0.1015 
     92 H92        24.2314  -23.8547  -42.0864 H         1 UNK         0.0786 
     93 H93        22.4946  -23.8315  -42.3605 H         1 UNK         0.0786 
     94 H94        23.5056  -24.9986  -43.2089 H         1 UNK         0.0786 
     95 H95        24.4961  -25.8474  -38.9800 H         1 UNK         0.3172 
     96 H96        26.2092  -26.9550  -38.1842 H         1 UNK         0.0595 
     97 H97        27.2253  -27.5645  -41.0034 H         1 UNK         0.0839 
     98 H98        28.1383  -27.6356  -39.5083 H         1 UNK         0.0839 
     99 H99        27.5786  -26.0851  -40.1094 H         1 UNK         0.0839 
    100 H100       23.6214  -28.2967  -39.1985 H         1 UNK         0.2998 
    101 H101       22.5653  -30.2219  -39.0029 H         1 UNK         0.0822 
    102 H102       23.2936  -29.8802  -36.6501 H         1 UNK         0.0787 
    103 H103       23.1617  -31.5914  -37.0187 H         1 UNK         0.0787 
    104 H104       24.7472  -30.8354  -36.9401 H         1 UNK         0.0787 
    105 H105       23.6277  -30.4477  -41.3332 H         1 UNK         0.3055 
    106 H106       25.1183  -33.0221  -41.5641 H         1 UNK         0.1106 
    107 H107       24.7225  -30.7544  -43.5880 H         1 UNK         0.0828 
    108 H108       25.7288  -32.1811  -43.8002 H         1 UNK         0.0828 
    109 H109       26.1615  -30.9802  -42.5959 H         1 UNK         0.0828 
    110 H110       22.0959  -32.5250  -41.0689 H         1 UNK         0.2931 
    111 H111       20.6370  -33.2907  -43.3398 H         1 UNK         0.0412 
    112 H112       20.6235  -36.8251  -43.6888 H         1 UNK         0.3472 
    113 H113       19.9351  -35.3123  -44.2129 H         1 UNK         0.3472 
    114 H114       18.8481  -34.0128  -41.7165 H         1 UNK         0.0970 
    115 H115       19.9757  -33.8844  -40.4008 H         1 UNK         0.0970 
    116 H116       17.0071  -30.9983  -40.9296 H         1 UNK         0.0612 
    117 H117       17.0586  -32.6279  -41.5424 H         1 UNK         0.0612 
@<TRIPOS>BOND
     1    1    2 1    
     2    1   62 1    
     3    1   63 1    
     4    1   64 1    
     5    2    3 2    
     6    2    4 am   BACKBONE|DICT|INTERRES
     7    4    5 1    
     8    4   65 1    
     9    5    6 1    
    10    5   25 1    
    11    5   66 1    
    12    6    7 1    
    13    6   67 1    
    14    6   68 1    
    15    7    8 1    
    16    8    9 1    
    17    8   69 1    
    18    8   70 1    
    19    9   10 ar   
    20    9   14 ar   
    21   10   11 ar   
    22   10   71 1    
    23   11   12 ar   
    24   11   61 1    
    25   12   13 ar   
    26   12   72 1    
    27   13   14 ar   
    28   13   15 1    
    29   14   73 1    
    30   15   16 1    
    31   15   74 1    
    32   15   75 1    
    33   16   17 1    
    34   17   18 1    
    35   17   76 1    
    36   17   77 1    
    37   18   19 1    
    38   18   27 1    
    39   18   78 1    
    40   19   20 am   BACKBONE|DICT|INTERRES
    41   19   79 1    
    42   20   21 2    
    43   20   22 1    
    44   22   23 1    
    45   22   24 1    
    46   22   80 1    
    47   23   81 1    
    48   23   82 1    
    49   23   83 1    
    50   24   25 am   BACKBONE|DICT|INTERRES
    51   24   84 1    
    52   25   26 2    
    53   27   28 2    
    54   27   29 am   BACKBONE|DICT|INTERRES
    55   29   30 1    
    56   29   85 1    
    57   30   31 1    
    58   30   32 1    
    59   30   86 1    
    60   31   87 1    
    61   31   88 1    
    62   31   89 1    
    63   32   33 2    
    64   32   34 am   BACKBONE|DICT|INTERRES
    65   34   35 1    
    66   34   90 1    
    67   35   36 1    
    68   35   37 1    
    69   35   91 1    
    70   36   92 1    
    71   36   93 1    
    72   36   94 1    
    73   37   38 2    
    74   37   39 am   BACKBONE|DICT|INTERRES
    75   39   40 1    
    76   39   95 1    
    77   40   41 1    
    78   40   42 1    
    79   40   96 1    
    80   41   97 1    
    81   41   98 1    
    82   41   99 1    
    83   42   43 2    
    84   42   44 am   BACKBONE|DICT|INTERRES
    85   44   45 1    
    86   44  100 1    
    87   45   46 1    
    88   45   47 1    
    89   45  101 1    
    90   46  102 1    
    91   46  103 1    
    92   46  104 1    
    93   47   48 2    
    94   47   49 am   BACKBONE|DICT|INTERRES
    95   49   50 1    
    96   49  105 1    
    97   50   51 1    
    98   50   52 1    
    99   50  106 1    
   100   51  107 1    
   101   51  108 1    
   102   51  109 1    
   103   52   53 2    
   104   52   54 am   BACKBONE|DICT|INTERRES
   105   54   55 1    
   106   54  110 1    
   107   55   56 1    
   108   55   59 1    
   109   55  111 1    
   110   56   57 am   BACKBONE|DICT|INTERRES
   111   56   58 2    
   112   57  112 1    
   113   57  113 1    
   114   59   60 1    
   115   59  114 1    
   116   59  115 1    
   117   60   61 1    
   118   61  116 1    
   119   61  117 1    
@<TRIPOS>SUBSTRUCTURE
     1 UNK         1 GROUP             0       ****    0 ROOT    
