@<TRIPOS>MOLECULE
3R8
117   119    1
SMALL
USER_CHARGES


@<TRIPOS>ATOM
      1 CA         18.8000  -27.0339  -41.0171 C.3       0 UNK        -0.2013 
      2 C          17.9039  -26.3798  -42.0562 C.2       0 UNK         0.4866 
      3 O          17.2151  -25.4088  -41.7418 O.2       0 UNK        -0.5176 
      4 N          17.9109  -26.9058  -43.2881 N.am      1 UNK        -0.4884 
      5 CA         17.2007  -26.3503  -44.4481 C.3       1 UNK         0.0853 
      6 C6         16.7377  -27.4609  -45.4333 C.3       10 UNK        -0.0849 
      7 S7         15.6524  -28.6979  -44.6444 S.3       10 UNK        -0.2776 
      8 C8         16.5834  -30.2440  -44.9090 C.3       10 UNK         0.0316 
      9 C9         17.8930  -30.2752  -44.1320 C.ar      10 UNK        -0.0863 
     10 C10        17.8763  -30.3716  -42.7390 C.ar      10 UNK        -0.1009 
     11 C11        19.0696  -30.4213  -42.0127 C.ar      10 UNK        -0.0712 
     12 C12        20.2914  -30.3609  -42.6917 C.ar      10 UNK        -0.0894 
     13 C13        20.3224  -30.2824  -44.0894 C.ar      10 UNK        -0.0745 
     14 C14        19.1193  -30.2398  -44.8020 C.ar      10 UNK        -0.0972 
     15 C15        21.6508  -30.3024  -44.8369 C.3       10 UNK         0.0209 
     16 S16        21.9113  -28.8327  -45.8797 S.3       10 UNK        -0.2568 
     17 C17        22.2248  -27.5665  -44.6113 C.3       10 UNK        -0.0983 
     18 CA         22.2626  -26.1261  -45.1807 C.3       3 UNK         0.0876 
     19 N          21.0413  -25.8201  -45.9244 N.am      3 UNK        -0.4424 
     20 C          20.7808  -24.7135  -46.6323 C.2       2 UNK         0.4918 
     21 O          21.6028  -23.8232  -46.8479 O.2       2 UNK        -0.4875 
     22 CA         19.3351  -24.5643  -47.1540 C.3       2 UNK         0.0481 
     23 CB         19.2664  -24.9151  -48.6486 C.3       2 UNK        -0.1831 
     24 N          18.3565  -25.3817  -46.4181 N.am      2 UNK        -0.4498 
     25 C          18.0964  -25.2723  -45.1042 C.2       1 UNK         0.5027 
     26 O          18.6029  -24.3921  -44.4044 O.2       1 UNK        -0.4969 
     27 C          22.5265  -25.1512  -44.0143 C.2       3 UNK         0.5005 
     28 O          23.6770  -25.0369  -43.5895 O.2       3 UNK        -0.5279 
     29 N          21.4655  -24.5348  -43.4634 N.am      4 UNK        -0.4463 
     30 CA         21.4059  -23.6964  -42.2539 C.3       4 UNK         0.0283 
     31 CB         22.2935  -22.4437  -42.3826 C.3       4 UNK        -0.1875 
     32 C          21.6933  -24.4507  -40.9395 C.2       4 UNK         0.4949 
     33 O          21.0238  -24.1924  -39.9396 O.2       4 UNK        -0.5039 
     34 N          22.6539  -25.3774  -40.9660 N.am      5 UNK        -0.4663 
     35 CA         23.0120  -26.2920  -39.8910 C.3       5 UNK         0.0242 
     36 CB         24.0479  -25.6308  -38.9570 C.3       5 UNK        -0.1982 
     37 C          23.4766  -27.6023  -40.5411 C.2       5 UNK         0.5017 
     38 O          22.6349  -28.3535  -41.0345 O.2       5 UNK        -0.5012 
     39 N          24.7931  -27.8591  -40.5339 N.am      6 UNK        -0.4439 
     40 CA         25.5259  -29.0038  -41.1049 C.3       6 UNK         0.0297 
     41 CB         25.3027  -29.1156  -42.6250 C.3       6 UNK        -0.2006 
     42 C          25.2716  -30.3621  -40.4228 C.2       6 UNK         0.4892 
     43 O          26.2015  -31.1642  -40.3376 O.2       6 UNK        -0.5089 
     44 N          24.0379  -30.5941  -39.9550 N.am      7 UNK        -0.4243 
     45 CA         23.5504  -31.7806  -39.2398 C.3       7 UNK         0.0196 
     46 CB         24.2917  -31.9679  -37.8989 C.3       7 UNK        -0.2007 
     47 C          23.5233  -33.0698  -40.0858 C.2       7 UNK         0.5020 
     48 O          23.4518  -34.1629  -39.5223 O.2       7 UNK        -0.5147 
     49 N          23.5155  -32.9373  -41.4221 N.am      8 UNK        -0.4734 
     50 CA         23.3820  -34.0511  -42.3764 C.3       8 UNK         0.0238 
     51 CB         23.6382  -33.5349  -43.8004 C.3       8 UNK        -0.1912 
     52 C          22.0191  -34.7695  -42.2965 C.2       8 UNK         0.5038 
     53 O          21.9123  -35.9271  -42.7019 O.2       8 UNK        -0.5046 
     54 N          21.0236  -34.0704  -41.7423 N.am      9 UNK        -0.4200 
     55 CA         19.7289  -34.5781  -41.2738 C.3       9 UNK         0.0839 
     56 C          19.8062  -35.6275  -40.1236 C.2       9 UNK         0.5513 
     57 N          20.9211  -35.7769  -39.4164 N.am      9 UNK        -0.7519 
     58 O          18.8286  -36.3283  -39.8749 O.2       9 UNK        -0.4960 
     59 C59        18.7848  -33.4005  -40.8977 C.3       10 UNK        -0.0876 
     60 S60        19.6113  -32.1384  -39.8494 S.3       10 UNK        -0.2414 
     61 C61        19.0192  -30.5384  -40.4940 C.3       10 UNK         0.0169 
     62 H62        19.2363  -26.2789  -40.3644 H         1 UNK         0.0903 
     63 H63        19.6183  -27.5863  -41.4793 H         1 UNK         0.0903 
     64 H64        18.2168  -27.7163  -40.4006 H         1 UNK         0.0903 
     65 H65        18.4509  -27.7418  -43.4658 H         1 UNK         0.3096 
     66 H66        16.3060  -25.8292  -44.0998 H         1 UNK         0.1121 
     67 H67        17.5944  -27.9677  -45.8807 H         1 UNK         0.0849 
     68 H68        16.1698  -27.0261  -46.2581 H         1 UNK         0.0849 
     69 H69        15.9641  -31.0849  -44.5936 H         1 UNK         0.0865 
     70 H70        16.7580  -30.3822  -45.9772 H         1 UNK         0.0865 
     71 H71        16.9271  -30.4118  -42.2217 H         1 UNK         0.1346 
     72 H72        21.2144  -30.3941  -42.1296 H         1 UNK         0.1412 
     73 H73        19.1433  -30.1888  -45.8822 H         1 UNK         0.1426 
     74 H74        22.4878  -30.3994  -44.1448 H         1 UNK         0.0716 
     75 H75        21.6752  -31.1856  -45.4764 H         1 UNK         0.0716 
     76 H76        23.1735  -27.8053  -44.1301 H         1 UNK         0.0695 
     77 H77        21.4587  -27.6557  -43.8376 H         1 UNK         0.0695 
     78 H78        23.1025  -26.0416  -45.8736 H         1 UNK         0.0983 
     79 H79        20.3148  -26.5161  -45.8603 H         1 UNK         0.3095 
     80 H80        19.0510  -23.5170  -47.0339 H         1 UNK         0.0454 
     81 H81        18.2702  -24.7377  -49.0541 H         1 UNK         0.0851 
     82 H82        19.5248  -25.9588  -48.8322 H         1 UNK         0.0851 
     83 H83        19.9610  -24.3024  -49.2252 H         1 UNK         0.0851 
     84 H84        17.9023  -26.1141  -46.9444 H         1 UNK         0.2976 
     85 H85        20.5590  -24.6906  -43.8941 H         1 UNK         0.3116 
     86 H86        20.3704  -23.3568  -42.1940 H         1 UNK         0.0646 
     87 H87        22.0549  -21.8799  -43.2844 H         1 UNK         0.0847 
     88 H88        22.1447  -21.7757  -41.5333 H         1 UNK         0.0847 
     89 H89        23.3544  -22.6930  -42.4129 H         1 UNK         0.0847 
     90 H90        23.1586  -25.4937  -41.8423 H         1 UNK         0.3040 
     91 H91        22.1200  -26.5327  -39.3079 H         1 UNK         0.1015 
     92 H92        23.6163  -24.7659  -38.4525 H         1 UNK         0.0786 
     93 H93        24.9295  -25.2837  -39.4973 H         1 UNK         0.0786 
     94 H94        24.3762  -26.3200  -38.1775 H         1 UNK         0.0786 
     95 H95        25.3785  -27.1783  -40.0692 H         1 UNK         0.3172 
     96 H96        26.5813  -28.7745  -40.9487 H         1 UNK         0.0595 
     97 H97        25.5028  -28.1697  -43.1285 H         1 UNK         0.0839 
     98 H98        24.2833  -29.4171  -42.8617 H         1 UNK         0.0839 
     99 H99        25.9673  -29.8625  -43.0612 H         1 UNK         0.0839 
    100 H100       23.3465  -29.8728  -40.1450 H         1 UNK         0.2998 
    101 H101       22.5077  -31.5679  -39.0011 H         1 UNK         0.0822 
    102 H102       24.2836  -31.0512  -37.3093 H         1 UNK         0.0787 
    103 H103       23.8184  -32.7429  -37.2947 H         1 UNK         0.0787 
    104 H104       25.3305  -32.2638  -38.0471 H         1 UNK         0.0787 
    105 H105       23.5957  -32.0082  -41.8074 H         1 UNK         0.3055 
    106 H106       24.1492  -34.7900  -42.1340 H         1 UNK         0.1106 
    107 H107       24.6095  -33.0467  -43.8818 H         1 UNK         0.0828 
    108 H108       23.6288  -34.3564  -44.5182 H         1 UNK         0.0828 
    109 H109       22.8734  -32.8255  -44.1129 H         1 UNK         0.0828 
    110 H110       21.2280  -33.1279  -41.4469 H         1 UNK         0.2931 
    111 H111       19.2784  -35.1017  -42.1190 H         1 UNK         0.0412 
    112 H112       21.7370  -35.1996  -39.5881 H         1 UNK         0.3472 
    113 H113       20.9453  -36.4653  -38.6812 H         1 UNK         0.3472 
    114 H114       18.4254  -32.9442  -41.8184 H         1 UNK         0.0970 
    115 H115       17.8857  -33.7529  -40.3885 H         1 UNK         0.0970 
    116 H116       19.6312  -29.7494  -40.0553 H         1 UNK         0.0612 
    117 H117       18.0038  -30.3752  -40.1297 H         1 UNK         0.0612 
@<TRIPOS>BOND
     1    1    2 1    
     2    1   62 1    
     3    1   63 1    
     4    1   64 1    
     5    2    3 2    
     6    2    4 am   BACKBONE|DICT|INTERRES
     7    4    5 1    
     8    4   65 1    
     9    5    6 1    
    10    5   25 1    
    11    5   66 1    
    12    6    7 1    
    13    6   67 1    
    14    6   68 1    
    15    7    8 1    
    16    8    9 1    
    17    8   69 1    
    18    8   70 1    
    19    9   10 ar   
    20    9   14 ar   
    21   10   11 ar   
    22   10   71 1    
    23   11   12 ar   
    24   11   61 1    
    25   12   13 ar   
    26   12   72 1    
    27   13   14 ar   
    28   13   15 1    
    29   14   73 1    
    30   15   16 1    
    31   15   74 1    
    32   15   75 1    
    33   16   17 1    
    34   17   18 1    
    35   17   76 1    
    36   17   77 1    
    37   18   19 1    
    38   18   27 1    
    39   18   78 1    
    40   19   20 am   BACKBONE|DICT|INTERRES
    41   19   79 1    
    42   20   21 2    
    43   20   22 1    
    44   22   23 1    
    45   22   24 1    
    46   22   80 1    
    47   23   81 1    
    48   23   82 1    
    49   23   83 1    
    50   24   25 am   BACKBONE|DICT|INTERRES
    51   24   84 1    
    52   25   26 2    
    53   27   28 2    
    54   27   29 am   BACKBONE|DICT|INTERRES
    55   29   30 1    
    56   29   85 1    
    57   30   31 1    
    58   30   32 1    
    59   30   86 1    
    60   31   87 1    
    61   31   88 1    
    62   31   89 1    
    63   32   33 2    
    64   32   34 am   BACKBONE|DICT|INTERRES
    65   34   35 1    
    66   34   90 1    
    67   35   36 1    
    68   35   37 1    
    69   35   91 1    
    70   36   92 1    
    71   36   93 1    
    72   36   94 1    
    73   37   38 2    
    74   37   39 am   BACKBONE|DICT|INTERRES
    75   39   40 1    
    76   39   95 1    
    77   40   41 1    
    78   40   42 1    
    79   40   96 1    
    80   41   97 1    
    81   41   98 1    
    82   41   99 1    
    83   42   43 2    
    84   42   44 am   BACKBONE|DICT|INTERRES
    85   44   45 1    
    86   44  100 1    
    87   45   46 1    
    88   45   47 1    
    89   45  101 1    
    90   46  102 1    
    91   46  103 1    
    92   46  104 1    
    93   47   48 2    
    94   47   49 am   BACKBONE|DICT|INTERRES
    95   49   50 1    
    96   49  105 1    
    97   50   51 1    
    98   50   52 1    
    99   50  106 1    
   100   51  107 1    
   101   51  108 1    
   102   51  109 1    
   103   52   53 2    
   104   52   54 am   BACKBONE|DICT|INTERRES
   105   54   55 1    
   106   54  110 1    
   107   55   56 1    
   108   55   59 1    
   109   55  111 1    
   110   56   57 am   BACKBONE|DICT|INTERRES
   111   56   58 2    
   112   57  112 1    
   113   57  113 1    
   114   59   60 1    
   115   59  114 1    
   116   59  115 1    
   117   60   61 1    
   118   61  116 1    
   119   61  117 1    
@<TRIPOS>SUBSTRUCTURE
     1 UNK         1 GROUP             0       ****    0 ROOT    
