@<TRIPOS>MOLECULE
3R8
117   119    1
SMALL
USER_CHARGES


@<TRIPOS>ATOM
      1 CA         17.1407  -21.7082  -46.3792 C.3       0 UNK        -0.2013 
      2 C          17.9484  -22.9502  -46.7247 C.2       0 UNK         0.4866 
      3 O          19.0066  -22.8395  -47.3437 O.2       0 UNK        -0.5176 
      4 N          17.4610  -24.1333  -46.3255 N.am      1 UNK        -0.4884 
      5 CA         18.1055  -25.4314  -46.5777 C.3       1 UNK         0.0853 
      6 C6         17.0648  -26.5838  -46.5636 C.3       10 UNK        -0.0849 
      7 S7         17.5026  -27.9183  -47.7283 S.3       10 UNK        -0.2776 
      8 C8         16.4421  -29.2809  -47.1511 C.3       10 UNK         0.0316 
      9 C9         16.8944  -29.8434  -45.8099 C.ar      10 UNK        -0.0863 
     10 C10        18.0819  -30.5762  -45.7183 C.ar      10 UNK        -0.1009 
     11 C11        18.4893  -31.1292  -44.4997 C.ar      10 UNK        -0.0712 
     12 C12        17.6853  -30.9475  -43.3689 C.ar      10 UNK        -0.0894 
     13 C13        16.4995  -30.2091  -43.4427 C.ar      10 UNK        -0.0745 
     14 C14        16.1110  -29.6584  -44.6672 C.ar      10 UNK        -0.0972 
     15 C15        15.6145  -30.0307  -42.2138 C.3       10 UNK         0.0209 
     16 S16        16.5250  -29.4487  -40.7456 S.3       10 UNK        -0.2568 
     17 C17        17.1539  -27.8262  -41.3000 C.3       10 UNK        -0.0983 
     18 CA         18.6774  -27.8396  -41.5878 C.3       3 UNK         0.0876 
     19 N          19.0897  -26.6240  -42.2968 N.am      3 UNK        -0.4424 
     20 C          20.3305  -26.3054  -42.6968 C.2       2 UNK         0.4918 
     21 O          21.3291  -26.9894  -42.4669 O.2       2 UNK        -0.4875 
     22 CA         20.4556  -24.9988  -43.5051 C.3       2 UNK         0.0481 
     23 CB         21.8718  -24.7736  -44.0809 C.3       2 UNK        -0.1831 
     24 N          19.4373  -24.9050  -44.5609 N.am      2 UNK        -0.4498 
     25 C          19.2926  -25.7152  -45.6249 C.2       1 UNK         0.5027 
     26 O          20.0480  -26.6556  -45.8719 O.2       1 UNK        -0.4969 
     27 C          19.5144  -28.0800  -40.3113 C.2       3 UNK         0.5005 
     28 O          19.3230  -27.3817  -39.3133 O.2       3 UNK        -0.5279 
     29 N          20.4515  -29.0369  -40.4030 N.am      4 UNK        -0.4463 
     30 CA         21.4228  -29.4526  -39.3821 C.3       4 UNK         0.0283 
     31 CB         20.7064  -30.0898  -38.1738 C.3       4 UNK        -0.1875 
     32 C          22.4260  -28.3591  -38.9545 C.2       4 UNK         0.4949 
     33 O          23.1385  -28.5477  -37.9675 O.2       4 UNK        -0.5039 
     34 N          22.5180  -27.2553  -39.7095 N.am      5 UNK        -0.4663 
     35 CA         23.4377  -26.1432  -39.4591 C.3       5 UNK         0.0242 
     36 CB         22.7886  -24.8343  -39.9426 C.3       5 UNK        -0.1982 
     37 C          24.7820  -26.4377  -40.1410 C.2       5 UNK         0.5017 
     38 O          25.1096  -25.8252  -41.1578 O.2       5 UNK        -0.5012 
     39 N          25.4872  -27.4416  -39.5987 N.am      6 UNK        -0.4439 
     40 CA         26.6986  -28.0891  -40.1262 C.3       6 UNK         0.0297 
     41 CB         27.8547  -27.0825  -40.3082 C.3       6 UNK        -0.2006 
     42 C          26.4537  -28.9394  -41.3925 C.2       6 UNK         0.4892 
     43 O          27.4163  -29.4245  -41.9894 O.2       6 UNK        -0.5089 
     44 N          25.1812  -29.1337  -41.7640 N.am      7 UNK        -0.4243 
     45 CA         24.7341  -30.0351  -42.8235 C.3       7 UNK         0.0196 
     46 CB         23.3213  -29.6151  -43.2634 C.3       7 UNK        -0.2007 
     47 C          24.7332  -31.4938  -42.3401 C.2       7 UNK         0.5020 
     48 O          24.6844  -31.7471  -41.1335 O.2       7 UNK        -0.5147 
     49 N          24.7236  -32.4309  -43.2979 N.am      8 UNK        -0.4734 
     50 CA         24.7370  -33.8841  -43.0703 C.3       8 UNK         0.0238 
     51 CB         24.8259  -34.6036  -44.4264 C.3       8 UNK        -0.1912 
     52 C          23.5477  -34.4280  -42.2542 C.2       8 UNK         0.5038 
     53 O          23.6714  -35.4978  -41.6562 O.2       8 UNK        -0.5046 
     54 N          22.4355  -33.6830  -42.2324 N.am      9 UNK        -0.4200 
     55 CA         21.2576  -33.9493  -41.3930 C.3       9 UNK         0.0839 
     56 C          21.4784  -33.6768  -39.8747 C.2       9 UNK         0.5513 
     57 N          22.5613  -33.0302  -39.4566 N.am      9 UNK        -0.7519 
     58 O          20.6462  -34.0648  -39.0594 O.2       9 UNK        -0.4960 
     59 C59        19.9976  -33.2026  -41.9050 C.3       10 UNK        -0.0876 
     60 S60        19.6292  -33.5479  -43.6626 S.3       10 UNK        -0.2414 
     61 C61        19.8061  -31.8974  -44.4193 C.3       10 UNK         0.0169 
     62 H62        16.2306  -21.9513  -45.8313 H         1 UNK         0.0903 
     63 H63        17.7355  -21.0320  -45.7659 H         1 UNK         0.0903 
     64 H64        16.8568  -21.1810  -47.2896 H         1 UNK         0.0903 
     65 H65        16.5838  -24.1642  -45.8237 H         1 UNK         0.3096 
     66 H66        18.5355  -25.3779  -47.5811 H         1 UNK         0.1121 
     67 H67        16.9290  -26.9858  -45.5576 H         1 UNK         0.0849 
     68 H68        16.0844  -26.2168  -46.8720 H         1 UNK         0.0849 
     69 H69        15.4073  -28.9378  -47.1049 H         1 UNK         0.0865 
     70 H70        16.4622  -30.0794  -47.8942 H         1 UNK         0.0865 
     71 H71        18.6901  -30.7106  -46.6026 H         1 UNK         0.1346 
     72 H72        17.9775  -31.3776  -42.4228 H         1 UNK         0.1412 
     73 H73        15.1889  -29.0971  -44.7348 H         1 UNK         0.1426 
     74 H74        15.1484  -30.9884  -41.9786 H         1 UNK         0.0716 
     75 H75        14.7995  -29.3341  -42.4170 H         1 UNK         0.0716 
     76 H76        16.9070  -27.0798  -40.5426 H         1 UNK         0.0695 
     77 H77        16.6064  -27.5304  -42.1964 H         1 UNK         0.0695 
     78 H78        18.8720  -28.6592  -42.2814 H         1 UNK         0.0983 
     79 H79        18.3486  -25.9768  -42.5183 H         1 UNK         0.3095 
     80 H80        20.2534  -24.1853  -42.8069 H         1 UNK         0.0454 
     81 H81        22.6179  -24.7138  -43.2892 H         1 UNK         0.0851 
     82 H82        21.9267  -23.8434  -44.6460 H         1 UNK         0.0851 
     83 H83        22.1777  -25.5852  -44.7416 H         1 UNK         0.0851 
     84 H84        18.7681  -24.1542  -44.4639 H         1 UNK         0.2976 
     85 H85        20.5535  -29.4933  -41.2977 H         1 UNK         0.3116 
     86 H86        22.0268  -30.2314  -39.8496 H         1 UNK         0.0646 
     87 H87        20.1184  -29.3582  -37.6191 H         1 UNK         0.0847 
     88 H88        20.0379  -30.8918  -38.4870 H         1 UNK         0.0847 
     89 H89        21.4232  -30.5256  -37.4769 H         1 UNK         0.0847 
     90 H90        21.9564  -27.1942  -40.5535 H         1 UNK         0.3040 
     91 H91        23.6198  -26.0430  -38.3863 H         1 UNK         0.1015 
     92 H92        23.4493  -23.9838  -39.7698 H         1 UNK         0.0786 
     93 H93        21.8572  -24.6363  -39.4118 H         1 UNK         0.0786 
     94 H94        22.5647  -24.8630  -41.0073 H         1 UNK         0.0786 
     95 H95        25.0768  -27.8919  -38.7867 H         1 UNK         0.3172 
     96 H96        27.0063  -28.7970  -39.3553 H         1 UNK         0.0595 
     97 H97        27.6708  -26.3938  -41.1330 H         1 UNK         0.0839 
     98 H98        28.7901  -27.5994  -40.5260 H         1 UNK         0.0839 
     99 H99        28.0154  -26.4928  -39.4058 H         1 UNK         0.0839 
    100 H100       24.4613  -28.7102  -41.2000 H         1 UNK         0.2998 
    101 H101       25.4140  -29.9456  -43.6737 H         1 UNK         0.0822 
    102 H102       22.9631  -30.2306  -44.0893 H         1 UNK         0.0787 
    103 H103       23.3065  -28.5803  -43.6075 H         1 UNK         0.0787 
    104 H104       22.6004  -29.7042  -42.4508 H         1 UNK         0.0787 
    105 H105       24.7465  -32.1315  -44.2629 H         1 UNK         0.3055 
    106 H106       25.6391  -34.1150  -42.4993 H         1 UNK         0.1106 
    107 H107       25.7229  -34.3133  -44.9738 H         1 UNK         0.0828 
    108 H108       24.8686  -35.6857  -44.2931 H         1 UNK         0.0828 
    109 H109       23.9613  -34.3878  -45.0554 H         1 UNK         0.0828 
    110 H110       22.4262  -32.8272  -42.7638 H         1 UNK         0.2931 
    111 H111       21.0487  -35.0179  -41.4740 H         1 UNK         0.0412 
    112 H112       23.2649  -32.6997  -40.1087 H         1 UNK         0.3472 
    113 H113       22.6876  -32.8786  -38.4691 H         1 UNK         0.3472 
    114 H114       20.1090  -32.1292  -41.7462 H         1 UNK         0.0970 
    115 H115       19.1222  -33.5004  -41.3243 H         1 UNK         0.0970 
    116 H116       20.5418  -31.3037  -43.8761 H         1 UNK         0.0612 
    117 H117       20.2171  -32.0401  -45.4198 H         1 UNK         0.0612 
@<TRIPOS>BOND
     1    1    2 1    
     2    1   62 1    
     3    1   63 1    
     4    1   64 1    
     5    2    3 2    
     6    2    4 am   BACKBONE|DICT|INTERRES
     7    4    5 1    
     8    4   65 1    
     9    5    6 1    
    10    5   25 1    
    11    5   66 1    
    12    6    7 1    
    13    6   67 1    
    14    6   68 1    
    15    7    8 1    
    16    8    9 1    
    17    8   69 1    
    18    8   70 1    
    19    9   10 ar   
    20    9   14 ar   
    21   10   11 ar   
    22   10   71 1    
    23   11   12 ar   
    24   11   61 1    
    25   12   13 ar   
    26   12   72 1    
    27   13   14 ar   
    28   13   15 1    
    29   14   73 1    
    30   15   16 1    
    31   15   74 1    
    32   15   75 1    
    33   16   17 1    
    34   17   18 1    
    35   17   76 1    
    36   17   77 1    
    37   18   19 1    
    38   18   27 1    
    39   18   78 1    
    40   19   20 am   BACKBONE|DICT|INTERRES
    41   19   79 1    
    42   20   21 2    
    43   20   22 1    
    44   22   23 1    
    45   22   24 1    
    46   22   80 1    
    47   23   81 1    
    48   23   82 1    
    49   23   83 1    
    50   24   25 am   BACKBONE|DICT|INTERRES
    51   24   84 1    
    52   25   26 2    
    53   27   28 2    
    54   27   29 am   BACKBONE|DICT|INTERRES
    55   29   30 1    
    56   29   85 1    
    57   30   31 1    
    58   30   32 1    
    59   30   86 1    
    60   31   87 1    
    61   31   88 1    
    62   31   89 1    
    63   32   33 2    
    64   32   34 am   BACKBONE|DICT|INTERRES
    65   34   35 1    
    66   34   90 1    
    67   35   36 1    
    68   35   37 1    
    69   35   91 1    
    70   36   92 1    
    71   36   93 1    
    72   36   94 1    
    73   37   38 2    
    74   37   39 am   BACKBONE|DICT|INTERRES
    75   39   40 1    
    76   39   95 1    
    77   40   41 1    
    78   40   42 1    
    79   40   96 1    
    80   41   97 1    
    81   41   98 1    
    82   41   99 1    
    83   42   43 2    
    84   42   44 am   BACKBONE|DICT|INTERRES
    85   44   45 1    
    86   44  100 1    
    87   45   46 1    
    88   45   47 1    
    89   45  101 1    
    90   46  102 1    
    91   46  103 1    
    92   46  104 1    
    93   47   48 2    
    94   47   49 am   BACKBONE|DICT|INTERRES
    95   49   50 1    
    96   49  105 1    
    97   50   51 1    
    98   50   52 1    
    99   50  106 1    
   100   51  107 1    
   101   51  108 1    
   102   51  109 1    
   103   52   53 2    
   104   52   54 am   BACKBONE|DICT|INTERRES
   105   54   55 1    
   106   54  110 1    
   107   55   56 1    
   108   55   59 1    
   109   55  111 1    
   110   56   57 am   BACKBONE|DICT|INTERRES
   111   56   58 2    
   112   57  112 1    
   113   57  113 1    
   114   59   60 1    
   115   59  114 1    
   116   59  115 1    
   117   60   61 1    
   118   61  116 1    
   119   61  117 1    
@<TRIPOS>SUBSTRUCTURE
     1 UNK         1 GROUP             0       ****    0 ROOT    
