@<TRIPOS>MOLECULE
3R8
117   119    1
SMALL
USER_CHARGES


@<TRIPOS>ATOM
      1 CA         13.9907  -23.9217  -43.8159 C.3       0 UNK        -0.2013 
      2 C          14.6755  -25.1682  -44.3567 C.2       0 UNK         0.4866 
      3 O          13.9956  -26.1180  -44.7471 O.2       0 UNK        -0.5176 
      4 N          16.0124  -25.1690  -44.3876 N.am      1 UNK        -0.4884 
      5 CA         16.8338  -26.2789  -44.8871 C.3       1 UNK         0.0853 
      6 C6         16.9003  -27.4867  -43.9153 C.3       10 UNK        -0.0849 
      7 S7         17.5965  -27.0938  -42.2690 S.3       10 UNK        -0.2776 
      8 C8         17.5852  -28.7209  -41.4308 C.3       10 UNK         0.0316 
      9 C9         18.1755  -29.8239  -42.2991 C.ar      10 UNK        -0.0863 
     10 C10        17.3977  -30.9235  -42.6730 C.ar      10 UNK        -0.1009 
     11 C11        17.8921  -31.8708  -43.5751 C.ar      10 UNK        -0.0712 
     12 C12        19.1776  -31.7127  -44.1055 C.ar      10 UNK        -0.0894 
     13 C13        19.9614  -30.6146  -43.7354 C.ar      10 UNK        -0.0745 
     14 C14        19.4704  -29.6976  -42.8044 C.ar      10 UNK        -0.0972 
     15 C15        21.2963  -30.3415  -44.4046 C.3       10 UNK         0.0209 
     16 S16        21.0632  -29.0778  -45.6937 S.3       10 UNK        -0.2568 
     17 C17        22.6167  -28.1277  -45.6067 C.3       10 UNK        -0.0983 
     18 CA         22.5555  -26.8492  -44.7237 C.3       3 UNK         0.0876 
     19 N          21.3782  -26.0105  -44.9994 N.am      3 UNK        -0.4424 
     20 C          21.2987  -24.6965  -44.7540 C.2       2 UNK         0.4918 
     21 O          22.2250  -24.0474  -44.2681 O.2       2 UNK        -0.4875 
     22 CA         19.9719  -23.9747  -45.0554 C.3       2 UNK         0.0481 
     23 CB         19.9500  -23.4429  -46.5018 C.3       2 UNK        -0.1831 
     24 N          18.7471  -24.7244  -44.7284 N.am      2 UNK        -0.4498 
     25 C          18.2272  -25.7997  -45.3449 C.2       1 UNK         0.5027 
     26 O          18.7928  -26.3933  -46.2628 O.2       1 UNK        -0.4969 
     27 C          22.7757  -27.1506  -43.2225 C.2       3 UNK         0.5005 
     28 O          23.7920  -27.7630  -42.8917 O.2       3 UNK        -0.5279 
     29 N          21.8685  -26.6850  -42.3453 N.am      4 UNK        -0.4463 
     30 CA         21.8615  -26.8451  -40.8818 C.3       4 UNK         0.0283 
     31 CB         20.7430  -25.9750  -40.2864 C.3       4 UNK        -0.1875 
     32 C          23.1860  -26.5231  -40.1649 C.2       4 UNK         0.4949 
     33 O          23.4772  -27.1229  -39.1301 O.2       4 UNK        -0.5039 
     34 N          23.9589  -25.5792  -40.7176 N.am      5 UNK        -0.4663 
     35 CA         25.2797  -25.1921  -40.2192 C.3       5 UNK         0.0242 
     36 CB         25.6631  -23.8360  -40.8342 C.3       5 UNK        -0.1982 
     37 C          26.3775  -26.2366  -40.4988 C.2       5 UNK         0.5017 
     38 O          27.4034  -26.2100  -39.8177 O.2       5 UNK        -0.5012 
     39 N          26.1655  -27.1103  -41.4928 N.am      6 UNK        -0.4439 
     40 CA         27.1208  -28.1273  -41.9304 C.3       6 UNK         0.0297 
     41 CB         27.2355  -28.0891  -43.4639 C.3       6 UNK        -0.2006 
     42 C          26.7191  -29.5326  -41.4618 C.2       6 UNK         0.4892 
     43 O          27.5958  -30.2909  -41.0442 O.2       6 UNK        -0.5089 
     44 N          25.4258  -29.8698  -41.5459 N.am      7 UNK        -0.4243 
     45 CA         24.8874  -31.1952  -41.2373 C.3       7 UNK         0.0196 
     46 CB         25.1978  -32.1641  -42.3989 C.3       7 UNK        -0.2007 
     47 C          23.3767  -31.1028  -40.9921 C.2       7 UNK         0.5020 
     48 O          22.7857  -30.0417  -41.1759 O.2       7 UNK        -0.5147 
     49 N          22.7646  -32.2264  -40.6144 N.am      8 UNK        -0.4734 
     50 CA         21.3171  -32.3984  -40.5343 C.3       8 UNK         0.0238 
     51 CB         20.8176  -32.0518  -39.1213 C.3       8 UNK        -0.1912 
     52 C          20.9994  -33.8494  -40.9032 C.2       8 UNK         0.5038 
     53 O          21.8189  -34.7325  -40.6330 O.2       8 UNK        -0.5046 
     54 N          19.8273  -34.0720  -41.5062 N.am      9 UNK        -0.4200 
     55 CA         19.3506  -35.4005  -41.9213 C.3       9 UNK         0.0839 
     56 C          18.7903  -36.2919  -40.7728 C.2       9 UNK         0.5513 
     57 N          18.6288  -35.7887  -39.5546 N.am      9 UNK        -0.7519 
     58 O          18.5122  -37.4686  -40.9900 O.2       9 UNK        -0.4960 
     59 C59        18.3842  -35.3075  -43.1298 C.3       10 UNK        -0.0876 
     60 S60        16.8706  -34.3380  -42.7995 S.3       10 UNK        -0.2414 
     61 C61        16.9938  -33.0095  -44.0363 C.3       10 UNK         0.0169 
     62 H62        14.7081  -23.1632  -43.5032 H         1 UNK         0.0903 
     63 H63        13.3474  -23.4857  -44.5797 H         1 UNK         0.0903 
     64 H64        13.3728  -24.1777  -42.9556 H         1 UNK         0.0903 
     65 H65        16.5097  -24.3407  -44.0972 H         1 UNK         0.3096 
     66 H66        16.3546  -26.6360  -45.8022 H         1 UNK         0.1121 
     67 H67        17.4846  -28.2851  -44.3760 H         1 UNK         0.0849 
     68 H68        15.9021  -27.9022  -43.7705 H         1 UNK         0.0849 
     69 H69        18.1555  -28.6495  -40.5036 H         1 UNK         0.0865 
     70 H70        16.5595  -28.9597  -41.1455 H         1 UNK         0.0865 
     71 H71        16.3886  -31.0239  -42.2966 H         1 UNK         0.1346 
     72 H72        19.5487  -32.4146  -44.8398 H         1 UNK         0.1412 
     73 H73        20.0676  -28.8370  -42.5373 H         1 UNK         0.1426 
     74 H74        21.7107  -31.2484  -44.8469 H         1 UNK         0.0716 
     75 H75        22.0160  -29.9973  -43.6627 H         1 UNK         0.0716 
     76 H76        22.8521  -27.8295  -46.6294 H         1 UNK         0.0695 
     77 H77        23.4358  -28.7859  -45.3098 H         1 UNK         0.0695 
     78 H78        23.4300  -26.2568  -45.0030 H         1 UNK         0.0983 
     79 H79        20.5799  -26.4718  -45.4269 H         1 UNK         0.3095 
     80 H80        19.9479  -23.1032  -44.3990 H         1 UNK         0.0454 
     81 H81        20.0015  -24.2468  -47.2366 H         1 UNK         0.0851 
     82 H82        20.8009  -22.7858  -46.6860 H         1 UNK         0.0851 
     83 H83        19.0475  -22.8647  -46.6991 H         1 UNK         0.0851 
     84 H84        18.2611  -24.3818  -43.9129 H         1 UNK         0.2976 
     85 H85        21.0831  -26.1855  -42.7345 H         1 UNK         0.3116 
     86 H86        21.6177  -27.8855  -40.6694 H         1 UNK         0.0646 
     87 H87        19.7641  -26.2797  -40.6482 H         1 UNK         0.0847 
     88 H88        20.8787  -24.9199  -40.5271 H         1 UNK         0.0847 
     89 H89        20.7168  -26.0600  -39.1989 H         1 UNK         0.0847 
     90 H90        23.6360  -25.1312  -41.5636 H         1 UNK         0.3040 
     91 H91        25.2165  -25.0715  -39.1353 H         1 UNK         0.1015 
     92 H92        26.6317  -23.4983  -40.4627 H         1 UNK         0.0786 
     93 H93        24.9350  -23.0649  -40.5812 H         1 UNK         0.0786 
     94 H94        25.7321  -23.8906  -41.9215 H         1 UNK         0.0786 
     95 H95        25.2615  -27.1156  -41.9610 H         1 UNK         0.3172 
     96 H96        28.1110  -27.9138  -41.5222 H         1 UNK         0.0595 
     97 H97        26.2819  -28.3009  -43.9493 H         1 UNK         0.0839 
     98 H98        27.9532  -28.8297  -43.8194 H         1 UNK         0.0839 
     99 H99        27.5778  -27.1141  -43.8107 H         1 UNK         0.0839 
    100 H100       24.7354  -29.1932  -41.8675 H         1 UNK         0.2998 
    101 H101       25.3498  -31.5617  -40.3183 H         1 UNK         0.0822 
    102 H102       26.2704  -32.2541  -42.5708 H         1 UNK         0.0787 
    103 H103       24.8265  -33.1688  -42.1942 H         1 UNK         0.0787 
    104 H104       24.7387  -31.8289  -43.3300 H         1 UNK         0.0787 
    105 H105       23.2912  -33.0863  -40.5166 H         1 UNK         0.3055 
    106 H106       20.8305  -31.7431  -41.2596 H         1 UNK         0.1106 
    107 H107       21.2703  -32.6938  -38.3647 H         1 UNK         0.0828 
    108 H108       19.7356  -32.1683  -39.0489 H         1 UNK         0.0828 
    109 H109       21.0482  -31.0175  -38.8651 H         1 UNK         0.0828 
    110 H110       19.1954  -33.3040  -41.6846 H         1 UNK         0.2931 
    111 H111       20.2235  -35.9453  -42.2869 H         1 UNK         0.0412 
    112 H112       18.8530  -34.8256  -39.3655 H         1 UNK         0.3472 
    113 H113       18.2711  -36.3788  -38.8196 H         1 UNK         0.3472 
    114 H114       18.9160  -34.8768  -43.9790 H         1 UNK         0.0970 
    115 H115       18.0864  -36.3052  -43.4578 H         1 UNK         0.0970 
    116 H116       15.9920  -32.6184  -44.2205 H         1 UNK         0.0612 
    117 H117       17.3336  -33.4170  -44.9897 H         1 UNK         0.0612 
@<TRIPOS>BOND
     1    1    2 1    
     2    1   62 1    
     3    1   63 1    
     4    1   64 1    
     5    2    3 2    
     6    2    4 am   BACKBONE|DICT|INTERRES
     7    4    5 1    
     8    4   65 1    
     9    5    6 1    
    10    5   25 1    
    11    5   66 1    
    12    6    7 1    
    13    6   67 1    
    14    6   68 1    
    15    7    8 1    
    16    8    9 1    
    17    8   69 1    
    18    8   70 1    
    19    9   10 ar   
    20    9   14 ar   
    21   10   11 ar   
    22   10   71 1    
    23   11   12 ar   
    24   11   61 1    
    25   12   13 ar   
    26   12   72 1    
    27   13   14 ar   
    28   13   15 1    
    29   14   73 1    
    30   15   16 1    
    31   15   74 1    
    32   15   75 1    
    33   16   17 1    
    34   17   18 1    
    35   17   76 1    
    36   17   77 1    
    37   18   19 1    
    38   18   27 1    
    39   18   78 1    
    40   19   20 am   BACKBONE|DICT|INTERRES
    41   19   79 1    
    42   20   21 2    
    43   20   22 1    
    44   22   23 1    
    45   22   24 1    
    46   22   80 1    
    47   23   81 1    
    48   23   82 1    
    49   23   83 1    
    50   24   25 am   BACKBONE|DICT|INTERRES
    51   24   84 1    
    52   25   26 2    
    53   27   28 2    
    54   27   29 am   BACKBONE|DICT|INTERRES
    55   29   30 1    
    56   29   85 1    
    57   30   31 1    
    58   30   32 1    
    59   30   86 1    
    60   31   87 1    
    61   31   88 1    
    62   31   89 1    
    63   32   33 2    
    64   32   34 am   BACKBONE|DICT|INTERRES
    65   34   35 1    
    66   34   90 1    
    67   35   36 1    
    68   35   37 1    
    69   35   91 1    
    70   36   92 1    
    71   36   93 1    
    72   36   94 1    
    73   37   38 2    
    74   37   39 am   BACKBONE|DICT|INTERRES
    75   39   40 1    
    76   39   95 1    
    77   40   41 1    
    78   40   42 1    
    79   40   96 1    
    80   41   97 1    
    81   41   98 1    
    82   41   99 1    
    83   42   43 2    
    84   42   44 am   BACKBONE|DICT|INTERRES
    85   44   45 1    
    86   44  100 1    
    87   45   46 1    
    88   45   47 1    
    89   45  101 1    
    90   46  102 1    
    91   46  103 1    
    92   46  104 1    
    93   47   48 2    
    94   47   49 am   BACKBONE|DICT|INTERRES
    95   49   50 1    
    96   49  105 1    
    97   50   51 1    
    98   50   52 1    
    99   50  106 1    
   100   51  107 1    
   101   51  108 1    
   102   51  109 1    
   103   52   53 2    
   104   52   54 am   BACKBONE|DICT|INTERRES
   105   54   55 1    
   106   54  110 1    
   107   55   56 1    
   108   55   59 1    
   109   55  111 1    
   110   56   57 am   BACKBONE|DICT|INTERRES
   111   56   58 2    
   112   57  112 1    
   113   57  113 1    
   114   59   60 1    
   115   59  114 1    
   116   59  115 1    
   117   60   61 1    
   118   61  116 1    
   119   61  117 1    
@<TRIPOS>SUBSTRUCTURE
     1 UNK         1 GROUP             0       ****    0 ROOT    
