@<TRIPOS>MOLECULE
3R8
117   119    1
SMALL
USER_CHARGES


@<TRIPOS>ATOM
      1 CA         22.9786  -25.4564  -46.4435 C.3       0 UNK        -0.2013 
      2 C          22.0988  -25.7452  -47.6585 C.2       0 UNK         0.4866 
      3 O          22.1884  -25.0212  -48.6478 O.2       0 UNK        -0.5176 
      4 N          21.2483  -26.7839  -47.6544 N.am      1 UNK        -0.4884 
      5 CA         20.9570  -27.7017  -46.5449 C.3       1 UNK         0.0853 
      6 C6         20.1365  -28.9227  -47.0338 C.3       10 UNK        -0.0849 
      7 S7         20.3929  -30.4124  -46.0152 S.3       10 UNK        -0.2776 
      8 C8         18.8321  -31.3084  -46.3045 C.3       10 UNK         0.0316 
      9 C9         17.8771  -31.1258  -45.1359 C.ar      10 UNK        -0.0863 
     10 C10        17.7959  -32.1099  -44.1497 C.ar      10 UNK        -0.1009 
     11 C11        16.9890  -31.9282  -43.0251 C.ar      10 UNK        -0.0712 
     12 C12        16.2044  -30.7757  -42.9254 C.ar      10 UNK        -0.0894 
     13 C13        16.2467  -29.7931  -43.9240 C.ar      10 UNK        -0.0745 
     14 C14        17.0895  -29.9769  -45.0254 C.ar      10 UNK        -0.0972 
     15 C15        15.3802  -28.5364  -43.8654 C.3       10 UNK         0.0209 
     16 S16        14.9116  -27.9644  -42.1931 S.3       10 UNK        -0.2568 
     17 C17        16.4184  -27.4463  -41.2805 C.3       10 UNK        -0.0983 
     18 CA         17.8400  -27.6416  -41.8947 C.3       3 UNK         0.0876 
     19 N          18.0285  -27.0082  -43.2065 N.am      3 UNK        -0.4424 
     20 C          17.9767  -25.6990  -43.4890 C.2       2 UNK         0.4918 
     21 O          17.5988  -24.8427  -42.6888 O.2       2 UNK        -0.4875 
     22 CA         18.4540  -25.2549  -44.8906 C.3       2 UNK         0.0481 
     23 CB         19.3163  -23.9782  -44.8020 C.3       2 UNK        -0.1831 
     24 N          19.1620  -26.2620  -45.7014 N.am      2 UNK        -0.4498 
     25 C          20.2686  -26.9562  -45.3844 C.2       1 UNK         0.5027 
     26 O          20.7766  -26.9707  -44.2634 O.2       1 UNK        -0.4969 
     27 C          18.9538  -27.2116  -40.8986 C.2       3 UNK         0.5005 
     28 O          18.7275  -27.2202  -39.6862 O.2       3 UNK        -0.5279 
     29 N          20.1236  -26.7999  -41.4138 N.am      4 UNK        -0.4463 
     30 CA         21.2133  -26.2097  -40.6385 C.3       4 UNK         0.0283 
     31 CB         22.1610  -25.4689  -41.5968 C.3       4 UNK        -0.1875 
     32 C          21.9904  -27.2616  -39.8387 C.2       4 UNK         0.4949 
     33 O          22.2153  -28.3670  -40.3341 O.2       4 UNK        -0.5039 
     34 N          22.4707  -26.8687  -38.6518 N.am      5 UNK        -0.4663 
     35 CA         23.3416  -27.6868  -37.7979 C.3       5 UNK         0.0242 
     36 CB         23.4850  -27.0152  -36.4229 C.3       5 UNK        -0.1982 
     37 C          24.7262  -27.9498  -38.4184 C.2       5 UNK         0.5017 
     38 O          25.3275  -28.9847  -38.1336 O.2       5 UNK        -0.5012 
     39 N          25.1881  -27.0245  -39.2729 N.am      6 UNK        -0.4439 
     40 CA         26.4036  -27.1595  -40.0788 C.3       6 UNK         0.0297 
     41 CB         26.7828  -25.7893  -40.6635 C.3       6 UNK        -0.2006 
     42 C          26.2629  -28.2035  -41.2019 C.2       6 UNK         0.4892 
     43 O          27.2514  -28.8552  -41.5405 O.2       6 UNK        -0.5089 
     44 N          25.0475  -28.3468  -41.7517 N.am      7 UNK        -0.4243 
     45 CA         24.7040  -29.3790  -42.7315 C.3       7 UNK         0.0196 
     46 CB         23.4921  -28.9260  -43.5644 C.3       7 UNK        -0.2007 
     47 C          24.4197  -30.7246  -42.0478 C.2       7 UNK         0.5020 
     48 O          24.7729  -31.7667  -42.5993 O.2       7 UNK        -0.5147 
     49 N          23.7750  -30.6759  -40.8706 N.am      8 UNK        -0.4734 
     50 CA         23.3918  -31.8051  -40.0102 C.3       8 UNK         0.0238 
     51 CB         24.6441  -32.4670  -39.3977 C.3       8 UNK        -0.1912 
     52 C          22.4691  -32.8132  -40.7230 C.2       8 UNK         0.5038 
     53 O          22.5708  -34.0187  -40.4880 O.2       8 UNK        -0.5046 
     54 N          21.6114  -32.2863  -41.6065 N.am      9 UNK        -0.4200 
     55 CA         20.7503  -33.0196  -42.5454 C.3       9 UNK         0.0839 
     56 C          21.5115  -33.8041  -43.6595 C.2       9 UNK         0.5513 
     57 N          22.8087  -33.6044  -43.8622 N.am      9 UNK        -0.7519 
     58 O          20.9053  -34.5878  -44.3856 O.2       9 UNK        -0.4960 
     59 C59        19.6585  -33.8815  -41.8416 C.3       10 UNK        -0.0876 
     60 S60        18.4667  -32.8868  -40.8766 S.3       10 UNK        -0.2414 
     61 C61        16.9687  -32.9720  -41.9169 C.3       10 UNK         0.0169 
     62 H62        22.4056  -24.9598  -45.6611 H         1 UNK         0.0903 
     63 H63        23.4197  -26.3642  -46.0354 H         1 UNK         0.0903 
     64 H64        23.7996  -24.7957  -46.7210 H         1 UNK         0.0903 
     65 H65        20.7060  -26.9403  -48.4924 H         1 UNK         0.3096 
     66 H66        21.9135  -28.0742  -46.1734 H         1 UNK         0.1121 
     67 H67        20.4466  -29.1968  -48.0438 H         1 UNK         0.0849 
     68 H68        19.0736  -28.6888  -47.1111 H         1 UNK         0.0849 
     69 H69        18.3627  -30.9850  -47.2348 H         1 UNK         0.0865 
     70 H70        19.0617  -32.3667  -46.4398 H         1 UNK         0.0865 
     71 H71        18.3877  -33.0085  -44.2460 H         1 UNK         0.1346 
     72 H72        15.5623  -30.6480  -42.0653 H         1 UNK         0.1412 
     73 H73        17.1322  -29.2241  -45.8002 H         1 UNK         0.1426 
     74 H74        15.8368  -27.7135  -44.4144 H         1 UNK         0.0716 
     75 H75        14.4562  -28.7588  -44.4002 H         1 UNK         0.0716 
     76 H76        16.3650  -27.9862  -40.3334 H         1 UNK         0.0695 
     77 H77        16.2754  -26.3979  -41.0144 H         1 UNK         0.0695 
     78 H78        17.9951  -28.7104  -42.0438 H         1 UNK         0.0983 
     79 H79        18.3753  -27.6198  -43.9304 H         1 UNK         0.3095 
     80 H80        17.5491  -25.0057  -45.4464 H         1 UNK         0.0454 
     81 H81        19.6193  -23.6334  -45.7906 H         1 UNK         0.0851 
     82 H82        20.2194  -24.1432  -44.2138 H         1 UNK         0.0851 
     83 H83        18.7683  -23.1598  -44.3334 H         1 UNK         0.0851 
     84 H84        18.8375  -26.3332  -46.6561 H         1 UNK         0.2976 
     85 H85        20.2723  -26.8682  -42.4175 H         1 UNK         0.3116 
     86 H86        20.7847  -25.4825  -39.9454 H         1 UNK         0.0646 
     87 H87        21.6333  -24.6929  -42.1513 H         1 UNK         0.0847 
     88 H88        22.9713  -24.9806  -41.0545 H         1 UNK         0.0847 
     89 H89        22.6126  -26.1452  -42.3238 H         1 UNK         0.0847 
     90 H90        22.2414  -25.9443  -38.3134 H         1 UNK         0.3040 
     91 H91        22.8601  -28.6576  -37.6583 H         1 UNK         0.1015 
     92 H92        23.9457  -26.0294  -36.4989 H         1 UNK         0.0786 
     93 H93        24.1086  -27.6158  -35.7589 H         1 UNK         0.0786 
     94 H94        22.5169  -26.8979  -35.9354 H         1 UNK         0.0786 
     95 H95        24.6353  -26.1914  -39.4100 H         1 UNK         0.3172 
     96 H96        27.2125  -27.4855  -39.4212 H         1 UNK         0.0595 
     97 H97        26.0063  -25.3991  -41.3229 H         1 UNK         0.0839 
     98 H98        27.7014  -25.8571  -41.2483 H         1 UNK         0.0839 
     99 H99        26.9568  -25.0553  -39.8764 H         1 UNK         0.0839 
    100 H100       24.2831  -27.7988  -41.3860 H         1 UNK         0.2998 
    101 H101       25.5477  -29.5193  -43.4111 H         1 UNK         0.0822 
    102 H102       23.2428  -29.6679  -44.3244 H         1 UNK         0.0787 
    103 H103       22.6017  -28.7813  -42.9517 H         1 UNK         0.0787 
    104 H104       23.6948  -27.9883  -44.0811 H         1 UNK         0.0787 
    105 H105       23.4291  -29.7683  -40.5660 H         1 UNK         0.3055 
    106 H106       22.8049  -31.3839  -39.1922 H         1 UNK         0.1106 
    107 H107       25.2712  -31.7332  -38.8912 H         1 UNK         0.0828 
    108 H108       24.3681  -33.2205  -38.6591 H         1 UNK         0.0828 
    109 H109       25.2520  -32.9614  -40.1560 H         1 UNK         0.0828 
    110 H110       21.6201  -31.2835  -41.7214 H         1 UNK         0.2931 
    111 H111       20.2441  -32.2264  -43.0922 H         1 UNK         0.0412 
    112 H112       23.3453  -32.9607  -43.2904 H         1 UNK         0.3472 
    113 H113       23.2695  -34.1146  -44.5985 H         1 UNK         0.3472 
    114 H114       20.1186  -34.6098  -41.1731 H         1 UNK         0.0970 
    115 H115       19.1028  -34.4789  -42.5651 H         1 UNK         0.0970 
    116 H116       16.0997  -32.8187  -41.2752 H         1 UNK         0.0612 
    117 H117       16.8541  -33.9705  -42.3409 H         1 UNK         0.0612 
@<TRIPOS>BOND
     1    1    2 1    
     2    1   62 1    
     3    1   63 1    
     4    1   64 1    
     5    2    3 2    
     6    2    4 am   BACKBONE|DICT|INTERRES
     7    4    5 1    
     8    4   65 1    
     9    5    6 1    
    10    5   25 1    
    11    5   66 1    
    12    6    7 1    
    13    6   67 1    
    14    6   68 1    
    15    7    8 1    
    16    8    9 1    
    17    8   69 1    
    18    8   70 1    
    19    9   10 ar   
    20    9   14 ar   
    21   10   11 ar   
    22   10   71 1    
    23   11   12 ar   
    24   11   61 1    
    25   12   13 ar   
    26   12   72 1    
    27   13   14 ar   
    28   13   15 1    
    29   14   73 1    
    30   15   16 1    
    31   15   74 1    
    32   15   75 1    
    33   16   17 1    
    34   17   18 1    
    35   17   76 1    
    36   17   77 1    
    37   18   19 1    
    38   18   27 1    
    39   18   78 1    
    40   19   20 am   BACKBONE|DICT|INTERRES
    41   19   79 1    
    42   20   21 2    
    43   20   22 1    
    44   22   23 1    
    45   22   24 1    
    46   22   80 1    
    47   23   81 1    
    48   23   82 1    
    49   23   83 1    
    50   24   25 am   BACKBONE|DICT|INTERRES
    51   24   84 1    
    52   25   26 2    
    53   27   28 2    
    54   27   29 am   BACKBONE|DICT|INTERRES
    55   29   30 1    
    56   29   85 1    
    57   30   31 1    
    58   30   32 1    
    59   30   86 1    
    60   31   87 1    
    61   31   88 1    
    62   31   89 1    
    63   32   33 2    
    64   32   34 am   BACKBONE|DICT|INTERRES
    65   34   35 1    
    66   34   90 1    
    67   35   36 1    
    68   35   37 1    
    69   35   91 1    
    70   36   92 1    
    71   36   93 1    
    72   36   94 1    
    73   37   38 2    
    74   37   39 am   BACKBONE|DICT|INTERRES
    75   39   40 1    
    76   39   95 1    
    77   40   41 1    
    78   40   42 1    
    79   40   96 1    
    80   41   97 1    
    81   41   98 1    
    82   41   99 1    
    83   42   43 2    
    84   42   44 am   BACKBONE|DICT|INTERRES
    85   44   45 1    
    86   44  100 1    
    87   45   46 1    
    88   45   47 1    
    89   45  101 1    
    90   46  102 1    
    91   46  103 1    
    92   46  104 1    
    93   47   48 2    
    94   47   49 am   BACKBONE|DICT|INTERRES
    95   49   50 1    
    96   49  105 1    
    97   50   51 1    
    98   50   52 1    
    99   50  106 1    
   100   51  107 1    
   101   51  108 1    
   102   51  109 1    
   103   52   53 2    
   104   52   54 am   BACKBONE|DICT|INTERRES
   105   54   55 1    
   106   54  110 1    
   107   55   56 1    
   108   55   59 1    
   109   55  111 1    
   110   56   57 am   BACKBONE|DICT|INTERRES
   111   56   58 2    
   112   57  112 1    
   113   57  113 1    
   114   59   60 1    
   115   59  114 1    
   116   59  115 1    
   117   60   61 1    
   118   61  116 1    
   119   61  117 1    
@<TRIPOS>SUBSTRUCTURE
     1 UNK         1 GROUP             0       ****    0 ROOT    
