@<TRIPOS>MOLECULE
3R8
117   119    1
SMALL
USER_CHARGES


@<TRIPOS>ATOM
      1 CA         14.6264  -23.6522  -42.9931 C.3       0 UNK        -0.2013 
      2 C          15.7389  -23.7691  -44.0243 C.2       0 UNK         0.4866 
      3 O          16.0927  -22.7751  -44.6599 O.2       0 UNK        -0.5176 
      4 N          16.2863  -24.9773  -44.2020 N.am      1 UNK        -0.4884 
      5 CA         17.4016  -25.2637  -45.1094 C.3       1 UNK         0.0853 
      6 C6         17.6019  -26.7859  -45.3082 C.3       10 UNK        -0.0849 
      7 S7         16.1774  -27.6399  -46.0632 S.3       10 UNK        -0.2776 
      8 C8         15.7766  -28.9317  -44.8292 C.3       10 UNK         0.0316 
      9 C9         16.9818  -29.7390  -44.3444 C.ar      10 UNK        -0.0863 
     10 C10        17.1269  -30.0080  -42.9807 C.ar      10 UNK        -0.1009 
     11 C11        18.2346  -30.7081  -42.4925 C.ar      10 UNK        -0.0712 
     12 C12        19.2124  -31.1443  -43.3988 C.ar      10 UNK        -0.0894 
     13 C13        19.0775  -30.8938  -44.7684 C.ar      10 UNK        -0.0745 
     14 C14        17.9526  -30.2068  -45.2353 C.ar      10 UNK        -0.0972 
     15 C15        20.1414  -31.3681  -45.7522 C.3       10 UNK         0.0209 
     16 S16        21.7233  -30.4702  -45.5958 S.3       10 UNK        -0.2568 
     17 C17        21.2440  -28.7317  -45.8957 C.3       10 UNK        -0.0983 
     18 CA         21.9552  -27.6771  -45.0031 C.3       3 UNK         0.0876 
     19 N          21.4458  -26.3367  -45.3139 N.am      3 UNK        -0.4424 
     20 C          21.8230  -25.1742  -44.7586 C.2       2 UNK         0.4918 
     21 O          22.7208  -25.0661  -43.9242 O.2       2 UNK        -0.4875 
     22 CA         21.0114  -23.9301  -45.1728 C.3       2 UNK         0.0481 
     23 CB         21.6653  -23.2364  -46.3777 C.3       2 UNK        -0.1831 
     24 N          19.6125  -24.2559  -45.4868 N.am      2 UNK        -0.4498 
     25 C          18.7200  -24.6693  -44.5741 C.2       1 UNK         0.5027 
     26 O          18.9506  -24.6977  -43.3633 O.2       1 UNK        -0.4969 
     27 C          21.8713  -28.0047  -43.4942 C.2       3 UNK         0.5005 
     28 O          22.8241  -28.5588  -42.9446 O.2       3 UNK        -0.5279 
     29 N          20.7764  -27.5917  -42.8373 N.am      4 UNK        -0.4463 
     30 CA         20.5030  -27.8184  -41.4139 C.3       4 UNK         0.0283 
     31 CB         19.1031  -27.2778  -41.0799 C.3       4 UNK        -0.1875 
     32 C          21.5413  -27.2127  -40.4511 C.2       4 UNK         0.4949 
     33 O          21.6533  -27.6817  -39.3188 O.2       4 UNK        -0.5039 
     34 N          22.2769  -26.1889  -40.9043 N.am      5 UNK        -0.4663 
     35 CA         23.3500  -25.5466  -40.1456 C.3       5 UNK         0.0242 
     36 CB         23.4509  -24.0765  -40.5869 C.3       5 UNK        -0.1982 
     37 C          24.7106  -26.2506  -40.3061 C.2       5 UNK         0.5017 
     38 O          25.6324  -25.9144  -39.5611 O.2       5 UNK        -0.5012 
     39 N          24.8352  -27.1729  -41.2720 N.am      6 UNK        -0.4439 
     40 CA         26.0959  -27.8175  -41.6470 C.3       6 UNK         0.0297 
     41 CB         26.4182  -27.4703  -43.1108 C.3       6 UNK        -0.2006 
     42 C          26.0597  -29.3401  -41.4557 C.2       6 UNK         0.4892 
     43 O          27.0229  -29.9003  -40.9300 O.2       6 UNK        -0.5089 
     44 N          24.9821  -29.9881  -41.9123 N.am      7 UNK        -0.4243 
     45 CA         24.8281  -31.4417  -41.9144 C.3       7 UNK         0.0196 
     46 CB         23.8721  -31.8251  -43.0564 C.3       7 UNK        -0.2007 
     47 C          24.2918  -31.9735  -40.5780 C.2       7 UNK         0.5020 
     48 O          23.7202  -31.2238  -39.7845 O.2       7 UNK        -0.5147 
     49 N          24.4339  -33.2921  -40.3908 N.am      8 UNK        -0.4734 
     50 CA         23.8114  -34.0514  -39.2994 C.3       8 UNK         0.0238 
     51 CB         24.6037  -35.3517  -39.0814 C.3       8 UNK        -0.1912 
     52 C          22.3209  -34.3615  -39.5528 C.2       8 UNK         0.5038 
     53 O          21.6405  -34.8078  -38.6277 O.2       8 UNK        -0.5046 
     54 N          21.8520  -34.1226  -40.7868 N.am      9 UNK        -0.4200 
     55 CA         20.4824  -34.3419  -41.2807 C.3       9 UNK         0.0839 
     56 C          20.1143  -35.8514  -41.4121 C.2       9 UNK         0.5513 
     57 N          18.8643  -36.1741  -41.7184 N.am      9 UNK        -0.7519 
     58 O          20.9549  -36.7403  -41.2861 O.2       9 UNK        -0.4960 
     59 C59        19.4113  -33.5123  -40.5097 C.3       10 UNK        -0.0876 
     60 S60        19.8312  -31.7397  -40.3569 S.3       10 UNK        -0.2414 
     61 C61        18.3182  -30.9320  -40.9799 C.3       10 UNK         0.0169 
     62 H62        13.7130  -23.2916  -43.4655 H         1 UNK         0.0903 
     63 H63        14.4075  -24.6086  -42.5184 H         1 UNK         0.0903 
     64 H64        14.9101  -22.9446  -42.2145 H         1 UNK         0.0903 
     65 H65        15.9649  -25.7562  -43.6463 H         1 UNK         0.3096 
     66 H66        17.1782  -24.8059  -46.0760 H         1 UNK         0.1121 
     67 H67        18.4505  -26.9744  -45.9672 H         1 UNK         0.0849 
     68 H68        17.8522  -27.2535  -44.3545 H         1 UNK         0.0849 
     69 H69        15.0478  -29.6174  -45.2630 H         1 UNK         0.0865 
     70 H70        15.2779  -28.4500  -43.9867 H         1 UNK         0.0865 
     71 H71        16.3762  -29.6569  -42.2853 H         1 UNK         0.1346 
     72 H72        20.0905  -31.6696  -43.0538 H         1 UNK         0.1412 
     73 H73        17.8442  -30.0112  -46.2934 H         1 UNK         0.1426 
     74 H74        19.7868  -31.2754  -46.7799 H         1 UNK         0.0716 
     75 H75        20.3261  -32.4309  -45.5901 H         1 UNK         0.0716 
     76 H76        20.1656  -28.6367  -45.7801 H         1 UNK         0.0695 
     77 H77        21.4464  -28.5170  -46.9460 H         1 UNK         0.0695 
     78 H78        23.0163  -27.6799  -45.2617 H         1 UNK         0.0983 
     79 H79        20.7262  -26.2969  -46.0185 H         1 UNK         0.3095 
     80 H80        21.0202  -23.2323  -44.3327 H         1 UNK         0.0454 
     81 H81        22.6988  -22.9657  -46.1564 H         1 UNK         0.0851 
     82 H82        21.1415  -22.3167  -46.6385 H         1 UNK         0.0851 
     83 H83        21.6792  -23.8776  -47.2599 H         1 UNK         0.0851 
     84 H84        19.3497  -24.2381  -46.4626 H         1 UNK         0.2976 
     85 H85        20.0736  -27.0811  -43.3499 H         1 UNK         0.3116 
     86 H86        20.5072  -28.8980  -41.2560 H         1 UNK         0.0646 
     87 H87        18.8252  -27.5269  -40.0550 H         1 UNK         0.0847 
     88 H88        18.3408  -27.6990  -41.7341 H         1 UNK         0.0847 
     89 H89        19.0589  -26.1921  -41.1698 H         1 UNK         0.0847 
     90 H90        22.1377  -25.8681  -41.8549 H         1 UNK         0.3040 
     91 H91        23.1008  -25.5633  -39.0820 H         1 UNK         0.1015 
     92 H92        22.5034  -23.5547  -40.4515 H         1 UNK         0.0786 
     93 H93        23.7363  -23.9883  -41.6359 H         1 UNK         0.0786 
     94 H94        24.2000  -23.5426  -40.0005 H         1 UNK         0.0786 
     95 H95        24.0111  -27.4418  -41.8011 H         1 UNK         0.3172 
     96 H96        26.9160  -27.4400  -41.0329 H         1 UNK         0.0595 
     97 H97        25.6327  -27.8048  -43.7900 H         1 UNK         0.0839 
     98 H98        27.3492  -27.9415  -43.4294 H         1 UNK         0.0839 
     99 H99        26.5376  -26.3950  -43.2441 H         1 UNK         0.0839 
    100 H100       24.2001  -29.4568  -42.2934 H         1 UNK         0.2998 
    101 H101       25.8009  -31.9002  -42.1064 H         1 UNK         0.0822 
    102 H102       24.2209  -31.4307  -44.0110 H         1 UNK         0.0787 
    103 H103       23.7929  -32.9066  -43.1685 H         1 UNK         0.0787 
    104 H104       22.8668  -31.4364  -42.8841 H         1 UNK         0.0787 
    105 H105       24.9337  -33.8310  -41.0848 H         1 UNK         0.3055 
    106 H106       23.8644  -33.4589  -38.3829 H         1 UNK         0.1106 
    107 H107       24.1937  -35.9234  -38.2475 H         1 UNK         0.0828 
    108 H108       24.5748  -35.9957  -39.9613 H         1 UNK         0.0828 
    109 H109       25.6484  -35.1466  -38.8470 H         1 UNK         0.0828 
    110 H110       22.5071  -33.7784  -41.4701 H         1 UNK         0.2931 
    111 H111       20.5014  -33.9723  -42.3064 H         1 UNK         0.0412 
    112 H112       18.6253  -37.1485  -41.8210 H         1 UNK         0.3472 
    113 H113       18.1578  -35.4705  -41.8636 H         1 UNK         0.3472 
    114 H114       19.2673  -33.9134  -39.5052 H         1 UNK         0.0970 
    115 H115       18.4439  -33.5974  -41.0055 H         1 UNK         0.0970 
    116 H116       17.4458  -31.4975  -40.6497 H         1 UNK         0.0612 
    117 H117       18.2466  -29.9628  -40.4866 H         1 UNK         0.0612 
@<TRIPOS>BOND
     1    1    2 1    
     2    1   62 1    
     3    1   63 1    
     4    1   64 1    
     5    2    3 2    
     6    2    4 am   BACKBONE|DICT|INTERRES
     7    4    5 1    
     8    4   65 1    
     9    5    6 1    
    10    5   25 1    
    11    5   66 1    
    12    6    7 1    
    13    6   67 1    
    14    6   68 1    
    15    7    8 1    
    16    8    9 1    
    17    8   69 1    
    18    8   70 1    
    19    9   10 ar   
    20    9   14 ar   
    21   10   11 ar   
    22   10   71 1    
    23   11   12 ar   
    24   11   61 1    
    25   12   13 ar   
    26   12   72 1    
    27   13   14 ar   
    28   13   15 1    
    29   14   73 1    
    30   15   16 1    
    31   15   74 1    
    32   15   75 1    
    33   16   17 1    
    34   17   18 1    
    35   17   76 1    
    36   17   77 1    
    37   18   19 1    
    38   18   27 1    
    39   18   78 1    
    40   19   20 am   BACKBONE|DICT|INTERRES
    41   19   79 1    
    42   20   21 2    
    43   20   22 1    
    44   22   23 1    
    45   22   24 1    
    46   22   80 1    
    47   23   81 1    
    48   23   82 1    
    49   23   83 1    
    50   24   25 am   BACKBONE|DICT|INTERRES
    51   24   84 1    
    52   25   26 2    
    53   27   28 2    
    54   27   29 am   BACKBONE|DICT|INTERRES
    55   29   30 1    
    56   29   85 1    
    57   30   31 1    
    58   30   32 1    
    59   30   86 1    
    60   31   87 1    
    61   31   88 1    
    62   31   89 1    
    63   32   33 2    
    64   32   34 am   BACKBONE|DICT|INTERRES
    65   34   35 1    
    66   34   90 1    
    67   35   36 1    
    68   35   37 1    
    69   35   91 1    
    70   36   92 1    
    71   36   93 1    
    72   36   94 1    
    73   37   38 2    
    74   37   39 am   BACKBONE|DICT|INTERRES
    75   39   40 1    
    76   39   95 1    
    77   40   41 1    
    78   40   42 1    
    79   40   96 1    
    80   41   97 1    
    81   41   98 1    
    82   41   99 1    
    83   42   43 2    
    84   42   44 am   BACKBONE|DICT|INTERRES
    85   44   45 1    
    86   44  100 1    
    87   45   46 1    
    88   45   47 1    
    89   45  101 1    
    90   46  102 1    
    91   46  103 1    
    92   46  104 1    
    93   47   48 2    
    94   47   49 am   BACKBONE|DICT|INTERRES
    95   49   50 1    
    96   49  105 1    
    97   50   51 1    
    98   50   52 1    
    99   50  106 1    
   100   51  107 1    
   101   51  108 1    
   102   51  109 1    
   103   52   53 2    
   104   52   54 am   BACKBONE|DICT|INTERRES
   105   54   55 1    
   106   54  110 1    
   107   55   56 1    
   108   55   59 1    
   109   55  111 1    
   110   56   57 am   BACKBONE|DICT|INTERRES
   111   56   58 2    
   112   57  112 1    
   113   57  113 1    
   114   59   60 1    
   115   59  114 1    
   116   59  115 1    
   117   60   61 1    
   118   61  116 1    
   119   61  117 1    
@<TRIPOS>SUBSTRUCTURE
     1 UNK         1 GROUP             0       ****    0 ROOT    
