@<TRIPOS>MOLECULE
3R8
117   119    1
SMALL
USER_CHARGES


@<TRIPOS>ATOM
      1 CA         12.1353  -24.0188  -43.0105 C.3       0 UNK        -0.2013 
      2 C          13.1744  -24.5043  -44.0102 C.2       0 UNK         0.4866 
      3 O          13.2071  -24.0227  -45.1429 O.2       0 UNK        -0.5176 
      4 N          14.0228  -25.4523  -43.6017 N.am      1 UNK        -0.4884 
      5 CA         15.1040  -26.0249  -44.4003 C.3       1 UNK         0.0853 
      6 C6         14.5971  -27.1800  -45.3001 C.3       10 UNK        -0.0849 
      7 S7         15.6983  -27.5149  -46.7148 S.3       10 UNK        -0.2776 
      8 C8         15.9497  -29.3138  -46.5776 C.3       10 UNK         0.0316 
      9 C9         17.1529  -29.6533  -45.7110 C.ar      10 UNK        -0.0863 
     10 C10        17.0069  -29.8870  -44.3406 C.ar      10 UNK        -0.1009 
     11 C11        18.1159  -30.2161  -43.5537 C.ar      10 UNK        -0.0712 
     12 C12        19.3781  -30.3147  -44.1489 C.ar      10 UNK        -0.0894 
     13 C13        19.5319  -30.0987  -45.5217 C.ar      10 UNK        -0.0745 
     14 C14        18.4178  -29.7611  -46.2940 C.ar      10 UNK        -0.0972 
     15 C15        20.8887  -30.2580  -46.1899 C.3       10 UNK         0.0209 
     16 S16        21.7616  -28.6695  -46.3447 S.3       10 UNK        -0.2568 
     17 C17        22.6313  -28.5605  -44.7475 C.3       10 UNK        -0.0983 
     18 CA         22.2636  -27.2854  -43.9453 C.3       3 UNK         0.0876 
     19 N          20.8989  -27.3174  -43.4231 N.am      3 UNK        -0.4424 
     20 C          19.8861  -26.5489  -43.8311 C.2       2 UNK         0.4918 
     21 O          19.9324  -25.7749  -44.7901 O.2       2 UNK        -0.4875 
     22 CA         18.6283  -26.6053  -42.9592 C.3       2 UNK         0.0481 
     23 CB         18.7684  -25.6493  -41.7572 C.3       2 UNK        -0.1831 
     24 N          17.4629  -26.2525  -43.7638 N.am      2 UNK        -0.4498 
     25 C          16.1922  -26.4793  -43.4159 C.2       1 UNK         0.5027 
     26 O          15.8533  -27.0167  -42.3570 O.2       1 UNK        -0.4969 
     27 C          23.1709  -27.0965  -42.7195 C.2       3 UNK         0.5005 
     28 O          23.9274  -28.0029  -42.3662 O.2       3 UNK        -0.5279 
     29 N          23.0333  -25.9438  -42.0470 N.am      4 UNK        -0.4463 
     30 CA         23.6237  -25.6305  -40.7366 C.3       4 UNK         0.0283 
     31 CB         23.1568  -24.2333  -40.2974 C.3       4 UNK        -0.1875 
     32 C          25.1586  -25.7346  -40.6465 C.2       4 UNK         0.4949 
     33 O          25.6811  -25.9160  -39.5471 O.2       4 UNK        -0.5039 
     34 N          25.8514  -25.6416  -41.7900 N.am      5 UNK        -0.4663 
     35 CA         27.2950  -25.8669  -41.9081 C.3       5 UNK         0.0242 
     36 CB         27.7675  -25.3889  -43.2907 C.3       5 UNK        -0.1982 
     37 C          27.7064  -27.3346  -41.6768 C.2       5 UNK         0.5017 
     38 O          28.8381  -27.5757  -41.2551 O.2       5 UNK        -0.5012 
     39 N          26.7935  -28.2759  -41.9540 N.am      6 UNK        -0.4439 
     40 CA         26.9658  -29.7108  -41.7230 C.3       6 UNK         0.0297 
     41 CB         26.5385  -30.4860  -42.9815 C.3       6 UNK        -0.2006 
     42 C          26.1473  -30.1678  -40.5071 C.2       6 UNK         0.4892 
     43 O          26.6670  -30.9137  -39.6774 O.2       6 UNK        -0.5089 
     44 N          24.8840  -29.7179  -40.4370 N.am      7 UNK        -0.4243 
     45 CA         23.8762  -29.9822  -39.4011 C.3       7 UNK         0.0196 
     46 CB         24.3168  -29.3836  -38.0488 C.3       7 UNK        -0.2007 
     47 C          23.4431  -31.4593  -39.2784 C.2       7 UNK         0.5020 
     48 O          22.8106  -31.8202  -38.2850 O.2       7 UNK        -0.5147 
     49 N          23.7710  -32.2893  -40.2790 N.am      8 UNK        -0.4734 
     50 CA         23.4573  -33.7206  -40.3077 C.3       8 UNK         0.0238 
     51 CB         24.3518  -34.4231  -41.3429 C.3       8 UNK        -0.1912 
     52 C          21.9719  -33.9960  -40.5895 C.2       8 UNK         0.5038 
     53 O          21.3716  -34.8235  -39.9022 O.2       8 UNK        -0.5046 
     54 N          21.4137  -33.2856  -41.5809 N.am      9 UNK        -0.4200 
     55 CA         20.0240  -33.4071  -42.0508 C.3       9 UNK         0.0839 
     56 C          19.6791  -34.8188  -42.6229 C.2       9 UNK         0.5513 
     57 N          18.4068  -35.1814  -42.7062 N.am      9 UNK        -0.7519 
     58 O          20.5550  -35.5718  -43.0449 O.2       9 UNK        -0.4960 
     59 C59        19.0200  -32.8586  -40.9925 C.3       10 UNK        -0.0876 
     60 S60        17.4833  -32.1761  -41.7082 S.3       10 UNK        -0.2414 
     61 C61        17.9413  -30.4488  -42.0602 C.3       10 UNK         0.0169 
     62 H62        12.2188  -24.5330  -42.0531 H         1 UNK         0.0903 
     63 H63        12.2554  -22.9504  -42.8332 H         1 UNK         0.0903 
     64 H64        11.1319  -24.1891  -43.4000 H         1 UNK         0.0903 
     65 H65        13.9916  -25.8023  -42.6510 H         1 UNK         0.3096 
     66 H66        15.5192  -25.2316  -45.0271 H         1 UNK         0.1121 
     67 H67        14.4213  -28.0843  -44.7148 H         1 UNK         0.0849 
     68 H68        13.6272  -26.9187  -45.7264 H         1 UNK         0.0849 
     69 H69        15.0497  -29.7989  -46.1967 H         1 UNK         0.0865 
     70 H70        16.0983  -29.7183  -47.5802 H         1 UNK         0.0865 
     71 H71        16.0306  -29.8107  -43.8818 H         1 UNK         0.1346 
     72 H72        20.2402  -30.5625  -43.5468 H         1 UNK         0.1412 
     73 H73        18.5358  -29.5882  -47.3554 H         1 UNK         0.1426 
     74 H74        21.5047  -30.9804  -45.6524 H         1 UNK         0.0716 
     75 H75        20.7518  -30.6732  -47.1896 H         1 UNK         0.0716 
     76 H76        22.4428  -29.4553  -44.1524 H         1 UNK         0.0695 
     77 H77        23.6993  -28.5712  -44.9743 H         1 UNK         0.0695 
     78 H78        22.4113  -26.4150  -44.5888 H         1 UNK         0.0983 
     79 H79        20.7684  -27.8943  -42.6049 H         1 UNK         0.3095 
     80 H80        18.5059  -27.6248  -42.5926 H         1 UNK         0.0454 
     81 H81        18.8551  -24.6107  -42.0788 H         1 UNK         0.0851 
     82 H82        17.9133  -25.7197  -41.0852 H         1 UNK         0.0851 
     83 H83        19.6553  -25.8830  -41.1668 H         1 UNK         0.0851 
     84 H84        17.6843  -25.8463  -44.6650 H         1 UNK         0.2976 
     85 H85        22.3937  -25.2557  -42.4187 H         1 UNK         0.3116 
     86 H86        23.2223  -26.3579  -40.0278 H         1 UNK         0.0646 
     87 H87        23.5512  -23.9805  -39.3120 H         1 UNK         0.0847 
     88 H88        22.0701  -24.1783  -40.2299 H         1 UNK         0.0847 
     89 H89        23.4921  -23.4599  -40.9894 H         1 UNK         0.0847 
     90 H90        25.3410  -25.4726  -42.6444 H         1 UNK         0.3040 
     91 H91        27.7959  -25.2651  -41.1462 H         1 UNK         0.1015 
     92 H92        27.5533  -24.3304  -43.4399 H         1 UNK         0.0786 
     93 H93        27.2894  -25.9469  -44.0970 H         1 UNK         0.0786 
     94 H94        28.8453  -25.5178  -43.4003 H         1 UNK         0.0786 
     95 H95        25.8693  -27.9756  -42.2495 H         1 UNK         0.3172 
     96 H96        28.0147  -29.9425  -41.5262 H         1 UNK         0.0595 
     97 H97        26.6409  -31.5618  -42.8321 H         1 UNK         0.0839 
     98 H98        27.1597  -30.2189  -43.8365 H         1 UNK         0.0839 
     99 H99        25.5002  -30.2889  -43.2518 H         1 UNK         0.0839 
    100 H100       24.5554  -29.1177  -41.1939 H         1 UNK         0.2998 
    101 H101       22.9834  -29.4419  -39.7194 H         1 UNK         0.0822 
    102 H102       24.5937  -28.3341  -38.1526 H         1 UNK         0.0787 
    103 H103       23.5117  -29.4333  -37.3148 H         1 UNK         0.0787 
    104 H104       25.1712  -29.9161  -37.6302 H         1 UNK         0.0787 
    105 H105       24.3022  -31.9149  -41.0508 H         1 UNK         0.3055 
    106 H106       23.6867  -34.1398  -39.3250 H         1 UNK         0.1106 
    107 H107       24.1447  -35.4939  -41.3726 H         1 UNK         0.0828 
    108 H108       24.1959  -34.0343  -42.3499 H         1 UNK         0.0828 
    109 H109       25.4077  -34.3060  -41.0978 H         1 UNK         0.0828 
    110 H110       22.0014  -32.6510  -42.0994 H         1 UNK         0.2931 
    111 H111       19.9840  -32.7539  -42.9201 H         1 UNK         0.0412 
    112 H112       18.1696  -36.0817  -43.0926 H         1 UNK         0.3472 
    113 H113       17.6801  -34.5502  -42.4009 H         1 UNK         0.3472 
    114 H114       19.4874  -32.0748  -40.3946 H         1 UNK         0.0970 
    115 H115       18.7587  -33.6391  -40.2754 H         1 UNK         0.0970 
    116 H116       18.8484  -30.1693  -41.5231 H         1 UNK         0.0612 
    117 H117       17.1545  -29.7954  -41.6792 H         1 UNK         0.0612 
@<TRIPOS>BOND
     1    1    2 1    
     2    1   62 1    
     3    1   63 1    
     4    1   64 1    
     5    2    3 2    
     6    2    4 am   BACKBONE|DICT|INTERRES
     7    4    5 1    
     8    4   65 1    
     9    5    6 1    
    10    5   25 1    
    11    5   66 1    
    12    6    7 1    
    13    6   67 1    
    14    6   68 1    
    15    7    8 1    
    16    8    9 1    
    17    8   69 1    
    18    8   70 1    
    19    9   10 ar   
    20    9   14 ar   
    21   10   11 ar   
    22   10   71 1    
    23   11   12 ar   
    24   11   61 1    
    25   12   13 ar   
    26   12   72 1    
    27   13   14 ar   
    28   13   15 1    
    29   14   73 1    
    30   15   16 1    
    31   15   74 1    
    32   15   75 1    
    33   16   17 1    
    34   17   18 1    
    35   17   76 1    
    36   17   77 1    
    37   18   19 1    
    38   18   27 1    
    39   18   78 1    
    40   19   20 am   BACKBONE|DICT|INTERRES
    41   19   79 1    
    42   20   21 2    
    43   20   22 1    
    44   22   23 1    
    45   22   24 1    
    46   22   80 1    
    47   23   81 1    
    48   23   82 1    
    49   23   83 1    
    50   24   25 am   BACKBONE|DICT|INTERRES
    51   24   84 1    
    52   25   26 2    
    53   27   28 2    
    54   27   29 am   BACKBONE|DICT|INTERRES
    55   29   30 1    
    56   29   85 1    
    57   30   31 1    
    58   30   32 1    
    59   30   86 1    
    60   31   87 1    
    61   31   88 1    
    62   31   89 1    
    63   32   33 2    
    64   32   34 am   BACKBONE|DICT|INTERRES
    65   34   35 1    
    66   34   90 1    
    67   35   36 1    
    68   35   37 1    
    69   35   91 1    
    70   36   92 1    
    71   36   93 1    
    72   36   94 1    
    73   37   38 2    
    74   37   39 am   BACKBONE|DICT|INTERRES
    75   39   40 1    
    76   39   95 1    
    77   40   41 1    
    78   40   42 1    
    79   40   96 1    
    80   41   97 1    
    81   41   98 1    
    82   41   99 1    
    83   42   43 2    
    84   42   44 am   BACKBONE|DICT|INTERRES
    85   44   45 1    
    86   44  100 1    
    87   45   46 1    
    88   45   47 1    
    89   45  101 1    
    90   46  102 1    
    91   46  103 1    
    92   46  104 1    
    93   47   48 2    
    94   47   49 am   BACKBONE|DICT|INTERRES
    95   49   50 1    
    96   49  105 1    
    97   50   51 1    
    98   50   52 1    
    99   50  106 1    
   100   51  107 1    
   101   51  108 1    
   102   51  109 1    
   103   52   53 2    
   104   52   54 am   BACKBONE|DICT|INTERRES
   105   54   55 1    
   106   54  110 1    
   107   55   56 1    
   108   55   59 1    
   109   55  111 1    
   110   56   57 am   BACKBONE|DICT|INTERRES
   111   56   58 2    
   112   57  112 1    
   113   57  113 1    
   114   59   60 1    
   115   59  114 1    
   116   59  115 1    
   117   60   61 1    
   118   61  116 1    
   119   61  117 1    
@<TRIPOS>SUBSTRUCTURE
     1 UNK         1 GROUP             0       ****    0 ROOT    
