@<TRIPOS>MOLECULE
3R8
117   119    1
SMALL
USER_CHARGES


@<TRIPOS>ATOM
      1 CA         14.6486  -22.6776  -45.5349 C.3       0 UNK        -0.2013 
      2 C          15.3549  -23.5923  -44.5456 C.2       0 UNK         0.4866 
      3 O          15.3994  -23.2822  -43.3553 O.2       0 UNK        -0.5176 
      4 N          15.9161  -24.7075  -45.0358 N.am      1 UNK        -0.4884 
      5 CA         16.6155  -25.7547  -44.2684 C.3       1 UNK         0.0853 
      6 C6         15.7005  -26.4920  -43.2495 C.3       10 UNK        -0.0849 
      7 S7         14.3956  -27.4327  -44.1158 S.3       10 UNK        -0.2776 
      8 C8         14.7923  -29.1647  -43.6885 C.3       10 UNK         0.0316 
      9 C9         16.2516  -29.5442  -43.9274 C.ar      10 UNK        -0.0863 
     10 C10        16.9993  -30.1105  -42.8895 C.ar      10 UNK        -0.1009 
     11 C11        18.3336  -30.4748  -43.0895 C.ar      10 UNK        -0.0712 
     12 C12        18.9248  -30.2648  -44.3370 C.ar      10 UNK        -0.0894 
     13 C13        18.1969  -29.6805  -45.3773 C.ar      10 UNK        -0.0745 
     14 C14        16.8554  -29.3404  -45.1733 C.ar      10 UNK        -0.0972 
     15 C15        18.8596  -29.4129  -46.7202 C.3       10 UNK         0.0209 
     16 S16        19.5417  -27.7261  -46.8066 S.3       10 UNK        -0.2568 
     17 C17        21.0752  -27.8976  -45.8308 C.3       10 UNK        -0.0983 
     18 CA         21.7417  -26.5310  -45.5433 C.3       3 UNK         0.0876 
     19 N          20.8654  -25.6729  -44.7483 N.am      3 UNK        -0.4424 
     20 C          20.9203  -24.3388  -44.6928 C.2       2 UNK         0.4918 
     21 O          21.7420  -23.6637  -45.3156 O.2       2 UNK        -0.4875 
     22 CA         19.8391  -23.6526  -43.8314 C.3       2 UNK         0.0481 
     23 CB         19.8343  -22.1212  -43.9929 C.3       2 UNK        -0.1831 
     24 N          18.5045  -24.1688  -44.1529 N.am      2 UNK        -0.4498 
     25 C          17.9580  -25.2894  -43.6586 C.2       1 UNK         0.5027 
     26 O          18.5209  -25.9843  -42.8113 O.2       1 UNK        -0.4969 
     27 C          23.0903  -26.7244  -44.8256 C.2       3 UNK         0.5005 
     28 O          23.1441  -26.6863  -43.5928 O.2       3 UNK        -0.5279 
     29 N          24.1466  -26.9846  -45.6104 N.am      4 UNK        -0.4463 
     30 CA         25.5343  -27.1567  -45.1563 C.3       4 UNK         0.0283 
     31 CB         26.4484  -27.3130  -46.3829 C.3       4 UNK        -0.1875 
     32 C          25.7650  -28.3165  -44.1674 C.2       4 UNK         0.4949 
     33 O          26.7685  -28.3023  -43.4545 O.2       4 UNK        -0.5039 
     34 N          24.8385  -29.2850  -44.1272 N.am      5 UNK        -0.4663 
     35 CA         24.8074  -30.3742  -43.1476 C.3       5 UNK         0.0242 
     36 CB         23.7236  -31.3864  -43.5538 C.3       5 UNK        -0.1982 
     37 C          24.5676  -29.8880  -41.7060 C.2       5 UNK         0.5017 
     38 O          25.0785  -30.5099  -40.7741 O.2       5 UNK        -0.5012 
     39 N          23.8122  -28.7875  -41.5512 N.am      6 UNK        -0.4439 
     40 CA         23.4278  -28.1528  -40.2869 C.3       6 UNK         0.0297 
     41 CB         24.6345  -27.3909  -39.6924 C.3       6 UNK        -0.2006 
     42 C          22.7616  -29.1529  -39.3175 C.2       6 UNK         0.4892 
     43 O          21.7518  -29.7587  -39.6806 O.2       6 UNK        -0.5089 
     44 N          23.3356  -29.3167  -38.1176 N.am      7 UNK        -0.4243 
     45 CA         22.8829  -30.2592  -37.0924 C.3       7 UNK         0.0196 
     46 CB         23.5349  -29.8924  -35.7495 C.3       7 UNK        -0.2007 
     47 C          23.1644  -31.7324  -37.4392 C.2       7 UNK         0.5020 
     48 O          22.4635  -32.6082  -36.9320 O.2       7 UNK        -0.5147 
     49 N          24.1530  -31.9988  -38.3046 N.am      8 UNK        -0.4734 
     50 CA         24.5251  -33.3397  -38.7697 C.3       8 UNK         0.0238 
     51 CB         26.0425  -33.3796  -39.0327 C.3       8 UNK        -0.1912 
     52 C          23.6938  -33.7452  -40.0020 C.2       8 UNK         0.5038 
     53 O          24.2511  -34.1731  -41.0144 O.2       8 UNK        -0.5046 
     54 N          22.3719  -33.5720  -39.8936 N.am      9 UNK        -0.4200 
     55 CA         21.3714  -33.8673  -40.9237 C.3       9 UNK         0.0839 
     56 C          21.3089  -35.3775  -41.2849 C.2       9 UNK         0.5513 
     57 N          21.1369  -35.7082  -42.5572 N.am      9 UNK        -0.7519 
     58 O          21.3785  -36.2454  -40.4166 O.2       9 UNK        -0.4960 
     59 C59        19.9863  -33.3179  -40.4921 C.3       10 UNK        -0.0876 
     60 S60        18.9329  -32.8935  -41.9172 S.3       10 UNK        -0.2414 
     61 C61        19.1380  -31.0881  -41.9560 C.3       10 UNK         0.0169 
     62 H62        14.6938  -23.0632  -46.5534 H         1 UNK         0.0903 
     63 H63        13.5996  -22.5691  -45.2606 H         1 UNK         0.0903 
     64 H64        15.1070  -21.6889  -45.5258 H         1 UNK         0.0903 
     65 H65        15.8371  -24.8936  -46.0267 H         1 UNK         0.3096 
     66 H66        16.9247  -26.4932  -45.0097 H         1 UNK         0.1121 
     67 H67        16.2722  -27.1766  -42.6215 H         1 UNK         0.0849 
     68 H68        15.2327  -25.7888  -42.5598 H         1 UNK         0.0849 
     69 H69        14.5181  -29.3297  -42.6452 H         1 UNK         0.0865 
     70 H70        14.1560  -29.8267  -44.2773 H         1 UNK         0.0865 
     71 H71        16.5438  -30.2758  -41.9225 H         1 UNK         0.1346 
     72 H72        19.9564  -30.5485  -44.4934 H         1 UNK         0.1412 
     73 H73        16.2849  -28.8978  -45.9787 H         1 UNK         0.1426 
     74 H74        18.1292  -29.5375  -47.5210 H         1 UNK         0.0716 
     75 H75        19.6492  -30.1409  -46.9135 H         1 UNK         0.0716 
     76 H76        20.8512  -28.4038  -44.8915 H         1 UNK         0.0695 
     77 H77        21.7499  -28.5526  -46.3856 H         1 UNK         0.0695 
     78 H78        21.9348  -26.0320  -46.4959 H         1 UNK         0.0983 
     79 H79        20.1868  -26.1431  -44.1630 H         1 UNK         0.3095 
     80 H80        20.0687  -23.8744  -42.7872 H         1 UNK         0.0454 
     81 H81        20.7974  -21.6949  -43.7092 H         1 UNK         0.0851 
     82 H82        19.6361  -21.8233  -45.0232 H         1 UNK         0.0851 
     83 H83        19.0786  -21.6581  -43.3583 H         1 UNK         0.0851 
     84 H84        17.9915  -23.6785  -44.8715 H         1 UNK         0.2976 
     85 H85        24.0031  -27.0217  -46.6101 H         1 UNK         0.3116 
     86 H86        25.8181  -26.2392  -44.6366 H         1 UNK         0.0646 
     87 H87        27.4929  -27.4096  -46.0826 H         1 UNK         0.0847 
     88 H88        26.3846  -26.4467  -47.0415 H         1 UNK         0.0847 
     89 H89        26.1951  -28.1998  -46.9652 H         1 UNK         0.0847 
     90 H90        24.0619  -29.2233  -44.7682 H         1 UNK         0.3040 
     91 H91        25.7773  -30.8764  -43.1675 H         1 UNK         0.1015 
     92 H92        23.9060  -31.7877  -44.5508 H         1 UNK         0.0786 
     93 H93        22.7275  -30.9417  -43.5445 H         1 UNK         0.0786 
     94 H94        23.7080  -32.2321  -42.8657 H         1 UNK         0.0786 
     95 H95        23.4779  -28.3148  -42.3853 H         1 UNK         0.3172 
     96 H96        22.6627  -27.4161  -40.5361 H         1 UNK         0.0595 
     97 H97        25.0191  -26.6616  -40.4058 H         1 UNK         0.0839 
     98 H98        25.4587  -28.0574  -39.4347 H         1 UNK         0.0839 
     99 H99        24.3540  -26.8360  -38.7961 H         1 UNK         0.0839 
    100 H100       24.1689  -28.7854  -37.9105 H         1 UNK         0.2998 
    101 H101       21.8010  -30.1512  -36.9875 H         1 UNK         0.0822 
    102 H102       23.2804  -28.8759  -35.4483 H         1 UNK         0.0787 
    103 H103       23.1935  -30.5582  -34.9554 H         1 UNK         0.0787 
    104 H104       24.6222  -29.9691  -35.7935 H         1 UNK         0.0787 
    105 H105       24.6076  -31.2269  -38.7800 H         1 UNK         0.3055 
    106 H106       24.3088  -34.0704  -37.9869 H         1 UNK         0.1106 
    107 H107       26.3325  -32.7003  -39.8348 H         1 UNK         0.0828 
    108 H108       26.6070  -33.1064  -38.1412 H         1 UNK         0.0828 
    109 H109       26.3626  -34.3811  -39.3227 H         1 UNK         0.0828 
    110 H110       22.0197  -33.2456  -39.0035 H         1 UNK         0.2931 
    111 H111       21.6966  -33.3189  -41.8103 H         1 UNK         0.0412 
    112 H112       21.0802  -36.6825  -42.8097 H         1 UNK         0.3472 
    113 H113       21.0485  -34.9989  -43.2683 H         1 UNK         0.3472 
    114 H114       20.1056  -32.4193  -39.8835 H         1 UNK         0.0970 
    115 H115       19.4570  -34.0288  -39.8543 H         1 UNK         0.0970 
    116 H116       20.1966  -30.8450  -42.0658 H         1 UNK         0.0612 
    117 H117       18.8208  -30.6627  -41.0024 H         1 UNK         0.0612 
@<TRIPOS>BOND
     1    1    2 1    
     2    1   62 1    
     3    1   63 1    
     4    1   64 1    
     5    2    3 2    
     6    2    4 am   BACKBONE|DICT|INTERRES
     7    4    5 1    
     8    4   65 1    
     9    5    6 1    
    10    5   25 1    
    11    5   66 1    
    12    6    7 1    
    13    6   67 1    
    14    6   68 1    
    15    7    8 1    
    16    8    9 1    
    17    8   69 1    
    18    8   70 1    
    19    9   10 ar   
    20    9   14 ar   
    21   10   11 ar   
    22   10   71 1    
    23   11   12 ar   
    24   11   61 1    
    25   12   13 ar   
    26   12   72 1    
    27   13   14 ar   
    28   13   15 1    
    29   14   73 1    
    30   15   16 1    
    31   15   74 1    
    32   15   75 1    
    33   16   17 1    
    34   17   18 1    
    35   17   76 1    
    36   17   77 1    
    37   18   19 1    
    38   18   27 1    
    39   18   78 1    
    40   19   20 am   BACKBONE|DICT|INTERRES
    41   19   79 1    
    42   20   21 2    
    43   20   22 1    
    44   22   23 1    
    45   22   24 1    
    46   22   80 1    
    47   23   81 1    
    48   23   82 1    
    49   23   83 1    
    50   24   25 am   BACKBONE|DICT|INTERRES
    51   24   84 1    
    52   25   26 2    
    53   27   28 2    
    54   27   29 am   BACKBONE|DICT|INTERRES
    55   29   30 1    
    56   29   85 1    
    57   30   31 1    
    58   30   32 1    
    59   30   86 1    
    60   31   87 1    
    61   31   88 1    
    62   31   89 1    
    63   32   33 2    
    64   32   34 am   BACKBONE|DICT|INTERRES
    65   34   35 1    
    66   34   90 1    
    67   35   36 1    
    68   35   37 1    
    69   35   91 1    
    70   36   92 1    
    71   36   93 1    
    72   36   94 1    
    73   37   38 2    
    74   37   39 am   BACKBONE|DICT|INTERRES
    75   39   40 1    
    76   39   95 1    
    77   40   41 1    
    78   40   42 1    
    79   40   96 1    
    80   41   97 1    
    81   41   98 1    
    82   41   99 1    
    83   42   43 2    
    84   42   44 am   BACKBONE|DICT|INTERRES
    85   44   45 1    
    86   44  100 1    
    87   45   46 1    
    88   45   47 1    
    89   45  101 1    
    90   46  102 1    
    91   46  103 1    
    92   46  104 1    
    93   47   48 2    
    94   47   49 am   BACKBONE|DICT|INTERRES
    95   49   50 1    
    96   49  105 1    
    97   50   51 1    
    98   50   52 1    
    99   50  106 1    
   100   51  107 1    
   101   51  108 1    
   102   51  109 1    
   103   52   53 2    
   104   52   54 am   BACKBONE|DICT|INTERRES
   105   54   55 1    
   106   54  110 1    
   107   55   56 1    
   108   55   59 1    
   109   55  111 1    
   110   56   57 am   BACKBONE|DICT|INTERRES
   111   56   58 2    
   112   57  112 1    
   113   57  113 1    
   114   59   60 1    
   115   59  114 1    
   116   59  115 1    
   117   60   61 1    
   118   61  116 1    
   119   61  117 1    
@<TRIPOS>SUBSTRUCTURE
     1 UNK         1 GROUP             0       ****    0 ROOT    
