@<TRIPOS>MOLECULE
3R8
117   119    1
SMALL
USER_CHARGES


@<TRIPOS>ATOM
      1 CA         16.1235  -25.6995  -48.2712 C.3       0 UNK        -0.2013 
      2 C          17.5827  -25.8414  -47.8645 C.2       0 UNK         0.4866 
      3 O          18.4288  -25.0841  -48.3422 O.2       0 UNK        -0.5176 
      4 N          17.8849  -26.8122  -46.9943 N.am      1 UNK        -0.4884 
      5 CA         19.2252  -27.0713  -46.4523 C.3       1 UNK         0.0853 
      6 C6         19.3583  -28.4837  -45.8054 C.3       10 UNK        -0.0849 
      7 S7         18.3884  -29.8067  -46.6198 S.3       10 UNK        -0.2776 
      8 C8         18.5678  -31.2119  -45.4578 C.3       10 UNK         0.0316 
      9 C9         18.1715  -30.9423  -44.0034 C.ar      10 UNK        -0.0863 
     10 C10        18.7576  -31.7169  -42.9985 C.ar      10 UNK        -0.1009 
     11 C11        18.4848  -31.4726  -41.6490 C.ar      10 UNK        -0.0712 
     12 C12        17.6217  -30.4303  -41.2999 C.ar      10 UNK        -0.0894 
     13 C13        17.0124  -29.6589  -42.2930 C.ar      10 UNK        -0.0745 
     14 C14        17.2610  -29.9429  -43.6389 C.ar      10 UNK        -0.0972 
     15 C15        16.0992  -28.5014  -41.9249 C.3       10 UNK         0.0209 
     16 S16        16.9187  -26.8993  -42.2090 S.3       10 UNK        -0.2568 
     17 C17        17.9973  -26.7307  -40.7450 C.3       10 UNK        -0.0983 
     18 CA         19.5140  -26.8878  -41.0392 C.3       3 UNK         0.0876 
     19 N          19.9603  -26.0695  -42.1759 N.am      3 UNK        -0.4424 
     20 C          21.2075  -25.9975  -42.6634 C.2       2 UNK         0.4918 
     21 O          22.1726  -26.5957  -42.1826 O.2       2 UNK        -0.4875 
     22 CA         21.3847  -25.1397  -43.9304 C.3       2 UNK         0.0481 
     23 CB         22.8430  -24.7071  -44.1618 C.3       2 UNK        -0.1831 
     24 N          20.8978  -25.8837  -45.0941 N.am      2 UNK        -0.4498 
     25 C          19.6012  -25.9939  -45.4110 C.2       1 UNK         0.5027 
     26 O          18.7167  -25.3414  -44.8477 O.2       1 UNK        -0.4969 
     27 C          20.3202  -26.5986  -39.7556 C.2       3 UNK         0.5005 
     28 O          20.7338  -27.5312  -39.0674 O.2       3 UNK        -0.5279 
     29 N          20.5648  -25.3069  -39.4840 N.am      4 UNK        -0.4463 
     30 CA         21.3257  -24.8134  -38.3306 C.3       4 UNK         0.0283 
     31 CB         21.1516  -23.2899  -38.2245 C.3       4 UNK        -0.1875 
     32 C          22.8209  -25.1791  -38.3645 C.2       4 UNK         0.4949 
     33 O          23.4402  -25.2704  -37.3049 O.2       4 UNK        -0.5039 
     34 N          23.3695  -25.3964  -39.5675 N.am      5 UNK        -0.4663 
     35 CA         24.7404  -25.8672  -39.7852 C.3       5 UNK         0.0242 
     36 CB         25.2609  -25.2787  -41.1081 C.3       5 UNK        -0.1982 
     37 C          24.8355  -27.4047  -39.8067 C.2       5 UNK         0.5017 
     38 O          25.9440  -27.9292  -39.9188 O.2       5 UNK        -0.5012 
     39 N          23.6847  -28.0916  -39.7270 N.am      6 UNK        -0.4439 
     40 CA         23.4903  -29.5379  -39.8556 C.3       6 UNK         0.0297 
     41 CB         24.1363  -30.2960  -38.6770 C.3       6 UNK        -0.2006 
     42 C          23.9163  -30.0830  -41.2340 C.2       6 UNK         0.4892 
     43 O          24.4377  -31.1977  -41.3208 O.2       6 UNK        -0.5089 
     44 N          23.6988  -29.2857  -42.2904 N.am      7 UNK        -0.4243 
     45 CA         24.0420  -29.6386  -43.6661 C.3       7 UNK         0.0196 
     46 CB         23.9546  -28.3897  -44.5542 C.3       7 UNK        -0.2007 
     47 C          23.1319  -30.7550  -44.1980 C.2       7 UNK         0.5020 
     48 O          21.9160  -30.5717  -44.2515 O.2       7 UNK        -0.5147 
     49 N          23.7505  -31.8764  -44.5918 N.am      8 UNK        -0.4734 
     50 CA         23.1323  -33.0750  -45.1754 C.3       8 UNK         0.0238 
     51 CB         22.5271  -32.7582  -46.5610 C.3       8 UNK        -0.1912 
     52 C          22.1449  -33.8122  -44.2451 C.2       8 UNK         0.5038 
     53 O          21.2865  -34.5458  -44.7397 O.2       8 UNK        -0.5046 
     54 N          22.2890  -33.6369  -42.9242 N.am      9 UNK        -0.4200 
     55 CA         21.5449  -34.3954  -41.9069 C.3       9 UNK         0.0839 
     56 C          22.0165  -35.8722  -41.8187 C.2       9 UNK         0.5513 
     57 N          21.1236  -36.7871  -41.4667 N.am      9 UNK        -0.7519 
     58 O          23.1864  -36.1897  -42.0254 O.2       9 UNK        -0.4960 
     59 C59        21.5982  -33.7214  -40.5107 C.3       10 UNK        -0.0876 
     60 S60        20.9263  -32.0277  -40.5061 S.3       10 UNK        -0.2414 
     61 C61        19.1354  -32.3308  -40.5757 C.3       10 UNK         0.0169 
     62 H62        16.0208  -25.8185  -49.3495 H         1 UNK         0.0903 
     63 H63        15.4911  -26.4431  -47.7865 H         1 UNK         0.0903 
     64 H64        15.7534  -24.7112  -48.0000 H         1 UNK         0.0903 
     65 H65        17.1541  -27.4072  -46.6317 H         1 UNK         0.3096 
     66 H66        19.9337  -27.0046  -47.2812 H         1 UNK         0.1121 
     67 H67        20.4057  -28.7909  -45.7989 H         1 UNK         0.0849 
     68 H68        19.0694  -28.4468  -44.7549 H         1 UNK         0.0849 
     69 H69        17.9736  -32.0475  -45.8292 H         1 UNK         0.0865 
     70 H70        19.6080  -31.5377  -45.4906 H         1 UNK         0.0865 
     71 H71        19.4545  -32.4994  -43.2655 H         1 UNK         0.1346 
     72 H72        17.4271  -30.2181  -40.2575 H         1 UNK         0.1412 
     73 H73        16.7817  -29.3407  -44.3978 H         1 UNK         0.1426 
     74 H74        15.7642  -28.5728  -40.8890 H         1 UNK         0.0716 
     75 H75        15.1987  -28.5476  -42.5391 H         1 UNK         0.0716 
     76 H76        17.7919  -25.7462  -40.3200 H         1 UNK         0.0695 
     77 H77        17.6870  -27.4517  -39.9864 H         1 UNK         0.0695 
     78 H78        19.7000  -27.9295  -41.3116 H         1 UNK         0.0983 
     79 H79        19.2237  -25.6089  -42.6982 H         1 UNK         0.3095 
     80 H80        20.7962  -24.2282  -43.8047 H         1 UNK         0.0454 
     81 H81        23.2192  -24.1422  -43.3082 H         1 UNK         0.0851 
     82 H82        23.5085  -25.5556  -44.3088 H         1 UNK         0.0851 
     83 H83        22.9288  -24.0621  -45.0363 H         1 UNK         0.0851 
     84 H84        21.5733  -26.4585  -45.5765 H         1 UNK         0.2976 
     85 H85        20.1927  -24.6106  -40.1144 H         1 UNK         0.3116 
     86 H86        20.9005  -25.2683  -37.4333 H         1 UNK         0.0646 
     87 H87        21.6824  -22.8964  -37.3563 H         1 UNK         0.0847 
     88 H88        20.1028  -23.0156  -38.1100 H         1 UNK         0.0847 
     89 H89        21.5413  -22.7753  -39.1037 H         1 UNK         0.0847 
     90 H90        22.7814  -25.3419  -40.3889 H         1 UNK         0.3040 
     91 H91        25.3831  -25.5113  -38.9767 H         1 UNK         0.1015 
     92 H92        25.1784  -24.1919  -41.1222 H         1 UNK         0.0786 
     93 H93        24.7153  -25.6712  -41.9663 H         1 UNK         0.0786 
     94 H94        26.3134  -25.5244  -41.2561 H         1 UNK         0.0786 
     95 H95        22.8281  -27.5597  -39.6233 H         1 UNK         0.3172 
     96 H96        22.4131  -29.6863  -39.7893 H         1 UNK         0.0595 
     97 H97        23.8042  -29.8969  -37.7188 H         1 UNK         0.0839 
     98 H98        25.2248  -30.2415  -38.7071 H         1 UNK         0.0839 
     99 H99        23.8630  -31.3518  -38.6991 H         1 UNK         0.0839 
    100 H100       23.2276  -28.3983  -42.1495 H         1 UNK         0.2998 
    101 H101       25.0783  -29.9835  -43.6758 H         1 UNK         0.0822 
    102 H102       24.6443  -27.6179  -44.2128 H         1 UNK         0.0787 
    103 H103       24.2139  -28.6250  -45.5873 H         1 UNK         0.0787 
    104 H104       22.9475  -27.9733  -44.5555 H         1 UNK         0.0787 
    105 H105       24.7538  -31.9257  -44.4734 H         1 UNK         0.3055 
    106 H106       23.9475  -33.7824  -45.3366 H         1 UNK         0.1106 
    107 H107       23.2649  -32.2996  -47.2191 H         1 UNK         0.0828 
    108 H108       22.1767  -33.6645  -47.0563 H         1 UNK         0.0828 
    109 H109       21.6781  -32.0793  -46.4889 H         1 UNK         0.0828 
    110 H110       23.0081  -33.0123  -42.5871 H         1 UNK         0.2931 
    111 H111       20.5009  -34.4145  -42.2244 H         1 UNK         0.0412 
    112 H112       21.4133  -37.7499  -41.3890 H         1 UNK         0.3472 
    113 H113       20.1625  -36.5390  -41.2887 H         1 UNK         0.3472 
    114 H114       22.6286  -33.6748  -40.1528 H         1 UNK         0.0970 
    115 H115       21.0491  -34.3093  -39.7724 H         1 UNK         0.0970 
    116 H116       18.9273  -33.3803  -40.7856 H         1 UNK         0.0612 
    117 H117       18.7061  -32.1239  -39.5944 H         1 UNK         0.0612 
@<TRIPOS>BOND
     1    1    2 1    
     2    1   62 1    
     3    1   63 1    
     4    1   64 1    
     5    2    3 2    
     6    2    4 am   BACKBONE|DICT|INTERRES
     7    4    5 1    
     8    4   65 1    
     9    5    6 1    
    10    5   25 1    
    11    5   66 1    
    12    6    7 1    
    13    6   67 1    
    14    6   68 1    
    15    7    8 1    
    16    8    9 1    
    17    8   69 1    
    18    8   70 1    
    19    9   10 ar   
    20    9   14 ar   
    21   10   11 ar   
    22   10   71 1    
    23   11   12 ar   
    24   11   61 1    
    25   12   13 ar   
    26   12   72 1    
    27   13   14 ar   
    28   13   15 1    
    29   14   73 1    
    30   15   16 1    
    31   15   74 1    
    32   15   75 1    
    33   16   17 1    
    34   17   18 1    
    35   17   76 1    
    36   17   77 1    
    37   18   19 1    
    38   18   27 1    
    39   18   78 1    
    40   19   20 am   BACKBONE|DICT|INTERRES
    41   19   79 1    
    42   20   21 2    
    43   20   22 1    
    44   22   23 1    
    45   22   24 1    
    46   22   80 1    
    47   23   81 1    
    48   23   82 1    
    49   23   83 1    
    50   24   25 am   BACKBONE|DICT|INTERRES
    51   24   84 1    
    52   25   26 2    
    53   27   28 2    
    54   27   29 am   BACKBONE|DICT|INTERRES
    55   29   30 1    
    56   29   85 1    
    57   30   31 1    
    58   30   32 1    
    59   30   86 1    
    60   31   87 1    
    61   31   88 1    
    62   31   89 1    
    63   32   33 2    
    64   32   34 am   BACKBONE|DICT|INTERRES
    65   34   35 1    
    66   34   90 1    
    67   35   36 1    
    68   35   37 1    
    69   35   91 1    
    70   36   92 1    
    71   36   93 1    
    72   36   94 1    
    73   37   38 2    
    74   37   39 am   BACKBONE|DICT|INTERRES
    75   39   40 1    
    76   39   95 1    
    77   40   41 1    
    78   40   42 1    
    79   40   96 1    
    80   41   97 1    
    81   41   98 1    
    82   41   99 1    
    83   42   43 2    
    84   42   44 am   BACKBONE|DICT|INTERRES
    85   44   45 1    
    86   44  100 1    
    87   45   46 1    
    88   45   47 1    
    89   45  101 1    
    90   46  102 1    
    91   46  103 1    
    92   46  104 1    
    93   47   48 2    
    94   47   49 am   BACKBONE|DICT|INTERRES
    95   49   50 1    
    96   49  105 1    
    97   50   51 1    
    98   50   52 1    
    99   50  106 1    
   100   51  107 1    
   101   51  108 1    
   102   51  109 1    
   103   52   53 2    
   104   52   54 am   BACKBONE|DICT|INTERRES
   105   54   55 1    
   106   54  110 1    
   107   55   56 1    
   108   55   59 1    
   109   55  111 1    
   110   56   57 am   BACKBONE|DICT|INTERRES
   111   56   58 2    
   112   57  112 1    
   113   57  113 1    
   114   59   60 1    
   115   59  114 1    
   116   59  115 1    
   117   60   61 1    
   118   61  116 1    
   119   61  117 1    
@<TRIPOS>SUBSTRUCTURE
     1 UNK         1 GROUP             0       ****    0 ROOT    
