@<TRIPOS>MOLECULE
3R8
117   119    1
SMALL
USER_CHARGES


@<TRIPOS>ATOM
      1 CA         22.4721  -32.2023  -44.9157 C.3       0 UNK        -0.2013 
      2 C          22.0065  -31.0283  -45.7569 C.2       0 UNK         0.4866 
      3 O          22.6063  -30.7257  -46.7885 O.2       0 UNK        -0.5176 
      4 N          20.9159  -30.3858  -45.3252 N.am      1 UNK        -0.4884 
      5 CA         20.2220  -29.3025  -46.0287 C.3       1 UNK         0.0853 
      6 C6         19.6993  -29.7231  -47.4336 C.3       10 UNK        -0.0849 
      7 S7         18.1795  -28.8532  -47.9577 S.3       10 UNK        -0.2776 
      8 C8         16.8640  -29.8715  -47.2123 C.3       10 UNK         0.0316 
      9 C9         16.7434  -29.6140  -45.7175 C.ar      10 UNK        -0.0863 
     10 C10        17.2318  -30.5440  -44.7957 C.ar      10 UNK        -0.1009 
     11 C11        17.1638  -30.2823  -43.4250 C.ar      10 UNK        -0.0712 
     12 C12        16.5658  -29.1001  -42.9754 C.ar      10 UNK        -0.0894 
     13 C13        16.0691  -28.1612  -43.8876 C.ar      10 UNK        -0.0745 
     14 C14        16.1617  -28.4289  -45.2571 C.ar      10 UNK        -0.0972 
     15 C15        15.4002  -26.8690  -43.4203 C.3       10 UNK         0.0209 
     16 S16        16.2883  -25.9890  -42.0885 S.3       10 UNK        -0.2568 
     17 C17        17.9235  -25.6736  -42.8345 C.3       10 UNK        -0.0983 
     18 CA         19.0318  -26.4885  -42.1148 C.3       3 UNK         0.0876 
     19 N          20.1939  -26.7362  -42.9710 N.am      3 UNK        -0.4424 
     20 C          21.1650  -25.8906  -43.3530 C.2       2 UNK         0.4918 
     21 O          21.3166  -24.7599  -42.8901 O.2       2 UNK        -0.4875 
     22 CA         22.1248  -26.3859  -44.4569 C.3       2 UNK         0.0481 
     23 CB         23.5899  -26.3566  -44.0042 C.3       2 UNK        -0.1831 
     24 N          21.7590  -27.7327  -44.9184 N.am      2 UNK        -0.4498 
     25 C          20.9638  -27.9497  -45.9789 C.2       1 UNK         0.5027 
     26 O          20.7412  -27.0959  -46.8386 O.2       1 UNK        -0.4969 
     27 C          19.4197  -25.9536  -40.7224 C.2       3 UNK         0.5005 
     28 O          19.6966  -26.7591  -39.8342 O.2       3 UNK        -0.5279 
     29 N          19.4860  -24.6244  -40.5573 N.am      4 UNK        -0.4463 
     30 CA         19.9230  -23.9490  -39.3301 C.3       4 UNK         0.0283 
     31 CB         19.7389  -22.4317  -39.4891 C.3       4 UNK        -0.1875 
     32 C          21.3744  -24.2775  -38.9322 C.2       4 UNK         0.4949 
     33 O          21.6748  -24.3257  -37.7396 O.2       4 UNK        -0.5039 
     34 N          22.2327  -24.5290  -39.9307 N.am      5 UNK        -0.4663 
     35 CA         23.6061  -25.0098  -39.7458 C.3       5 UNK         0.0242 
     36 CB         24.5183  -24.2925  -40.7542 C.3       5 UNK        -0.1982 
     37 C          23.7207  -26.5416  -39.8823 C.2       5 UNK         0.5017 
     38 O          24.8199  -27.0729  -39.7201 O.2       5 UNK        -0.5012 
     39 N          22.6005  -27.2208  -40.1755 N.am      6 UNK        -0.4439 
     40 CA         22.4142  -28.6577  -40.4036 C.3       6 UNK         0.0297 
     41 CB         22.6737  -29.4694  -39.1184 C.3       6 UNK        -0.2006 
     42 C          23.1960  -29.2079  -41.6072 C.2       6 UNK         0.4892 
     43 O          22.5808  -29.5284  -42.6242 O.2       6 UNK        -0.5089 
     44 N          24.5252  -29.3003  -41.4601 N.am      7 UNK        -0.4243 
     45 CA         25.4868  -29.9718  -42.3446 C.3       7 UNK         0.0196 
     46 CB         25.5570  -29.2994  -43.7317 C.3       7 UNK        -0.2007 
     47 C          25.2458  -31.4920  -42.4145 C.2       7 UNK         0.5020 
     48 O          25.3443  -32.0830  -43.4891 O.2       7 UNK        -0.5147 
     49 N          24.9450  -32.0879  -41.2501 N.am      8 UNK        -0.4734 
     50 CA         24.6025  -33.4988  -41.0282 C.3       8 UNK         0.0238 
     51 CB         25.7517  -34.4405  -41.4533 C.3       8 UNK        -0.1912 
     52 C          23.2409  -33.8784  -41.6419 C.2       8 UNK         0.5038 
     53 O          23.1519  -34.8372  -42.4114 O.2       8 UNK        -0.5046 
     54 N          22.2001  -33.1213  -41.2640 N.am      9 UNK        -0.4200 
     55 CA         20.7819  -33.4491  -41.4922 C.3       9 UNK         0.0839 
     56 C          20.3913  -34.8204  -40.8690 C.2       9 UNK         0.5513 
     57 N          19.5429  -35.5876  -41.5392 N.am      9 UNK        -0.7519 
     58 O          20.8111  -35.1658  -39.7661 O.2       9 UNK        -0.4960 
     59 C59        19.8526  -32.3277  -40.9436 C.3       10 UNK        -0.0876 
     60 S60        19.5183  -31.0194  -42.1703 S.3       10 UNK        -0.2414 
     61 C61        17.7345  -31.2815  -42.4332 C.3       10 UNK         0.0169 
     62 H62        21.7595  -33.0242  -44.9749 H         1 UNK         0.0903 
     63 H63        22.5728  -31.9072  -43.8725 H         1 UNK         0.0903 
     64 H64        23.4390  -32.5666  -45.2611 H         1 UNK         0.0903 
     65 H65        20.5051  -30.6657  -44.4423 H         1 UNK         0.3096 
     66 H66        19.3525  -29.1090  -45.4056 H         1 UNK         0.1121 
     67 H67        19.4868  -30.7931  -47.4509 H         1 UNK         0.0849 
     68 H68        20.4708  -29.5693  -48.1901 H         1 UNK         0.0849 
     69 H69        15.9157  -29.6299  -47.6947 H         1 UNK         0.0865 
     70 H70        17.0469  -30.9274  -47.4179 H         1 UNK         0.0865 
     71 H71        17.6923  -31.4587  -45.1443 H         1 UNK         0.1346 
     72 H72        16.4950  -28.9063  -41.9139 H         1 UNK         0.1412 
     73 H73        15.7848  -27.7112  -45.9734 H         1 UNK         0.1426 
     74 H74        14.3964  -27.1086  -43.0675 H         1 UNK         0.0716 
     75 H75        15.2735  -26.1788  -44.2559 H         1 UNK         0.0716 
     76 H76        18.1275  -24.6022  -42.8367 H         1 UNK         0.0695 
     77 H77        17.8803  -25.9583  -43.8872 H         1 UNK         0.0695 
     78 H78        18.6316  -27.4871  -41.9332 H         1 UNK         0.0983 
     79 H79        20.2213  -27.6608  -43.3718 H         1 UNK         0.3095 
     80 H80        22.0397  -25.6753  -45.2810 H         1 UNK         0.0454 
     81 H81        23.7445  -26.8802  -43.0636 H         1 UNK         0.0851 
     82 H82        23.9244  -25.3290  -43.8662 H         1 UNK         0.0851 
     83 H83        24.2415  -26.8001  -44.7563 H         1 UNK         0.0851 
     84 H84        21.9658  -28.5031  -44.2867 H         1 UNK         0.2976 
     85 H85        19.2946  -24.0357  -41.3558 H         1 UNK         0.3116 
     86 H86        19.2757  -24.2892  -38.5190 H         1 UNK         0.0646 
     87 H87        20.3431  -22.0341  -40.3056 H         1 UNK         0.0847 
     88 H88        20.0344  -21.9060  -38.5799 H         1 UNK         0.0847 
     89 H89        18.6975  -22.1753  -39.6844 H         1 UNK         0.0847 
     90 H90        21.8993  -24.4548  -40.8871 H         1 UNK         0.3040 
     91 H91        23.9586  -24.7604  -38.7424 H         1 UNK         0.1015 
     92 H92        24.1933  -24.4577  -41.7797 H         1 UNK         0.0786 
     93 H93        25.5496  -24.6395  -40.6749 H         1 UNK         0.0786 
     94 H94        24.5271  -23.2166  -40.5788 H         1 UNK         0.0786 
     95 H95        21.7384  -26.6890  -40.2023 H         1 UNK         0.3172 
     96 H96        21.3579  -28.7820  -40.6473 H         1 UNK         0.0595 
     97 H97        23.6945  -29.3586  -38.7522 H         1 UNK         0.0839 
     98 H98        22.4982  -30.5324  -39.2831 H         1 UNK         0.0839 
     99 H99        22.0022  -29.1552  -38.3192 H         1 UNK         0.0839 
    100 H100       24.9145  -28.8691  -40.6270 H         1 UNK         0.2998 
    101 H101       26.4654  -29.8486  -41.8783 H         1 UNK         0.0822 
    102 H102       25.8128  -28.2446  -43.6412 H         1 UNK         0.0787 
    103 H103       26.3275  -29.7606  -44.3506 H         1 UNK         0.0787 
    104 H104       24.6160  -29.3805  -44.2764 H         1 UNK         0.0787 
    105 H105       24.9143  -31.4996  -40.4292 H         1 UNK         0.3055 
    106 H106       24.4834  -33.6176  -39.9497 H         1 UNK         0.1106 
    107 H107       25.9018  -34.4458  -42.5330 H         1 UNK         0.0828 
    108 H108       25.5398  -35.4680  -41.1552 H         1 UNK         0.0828 
    109 H109       26.6934  -34.1557  -40.9844 H         1 UNK         0.0828 
    110 H110       22.3762  -32.3455  -40.6470 H         1 UNK         0.2931 
    111 H111       20.6431  -33.5310  -42.5723 H         1 UNK         0.0412 
    112 H112       19.2638  -36.4721  -41.1435 H         1 UNK         0.3472 
    113 H113       19.1851  -35.3075  -42.4393 H         1 UNK         0.3472 
    114 H114       20.2758  -31.8698  -40.0481 H         1 UNK         0.0970 
    115 H115       18.8919  -32.7326  -40.6178 H         1 UNK         0.0970 
    116 H116       17.5674  -32.2984  -42.7919 H         1 UNK         0.0612 
    117 H117       17.2117  -31.1987  -41.4789 H         1 UNK         0.0612 
@<TRIPOS>BOND
     1    1    2 1    
     2    1   62 1    
     3    1   63 1    
     4    1   64 1    
     5    2    3 2    
     6    2    4 am   BACKBONE|DICT|INTERRES
     7    4    5 1    
     8    4   65 1    
     9    5    6 1    
    10    5   25 1    
    11    5   66 1    
    12    6    7 1    
    13    6   67 1    
    14    6   68 1    
    15    7    8 1    
    16    8    9 1    
    17    8   69 1    
    18    8   70 1    
    19    9   10 ar   
    20    9   14 ar   
    21   10   11 ar   
    22   10   71 1    
    23   11   12 ar   
    24   11   61 1    
    25   12   13 ar   
    26   12   72 1    
    27   13   14 ar   
    28   13   15 1    
    29   14   73 1    
    30   15   16 1    
    31   15   74 1    
    32   15   75 1    
    33   16   17 1    
    34   17   18 1    
    35   17   76 1    
    36   17   77 1    
    37   18   19 1    
    38   18   27 1    
    39   18   78 1    
    40   19   20 am   BACKBONE|DICT|INTERRES
    41   19   79 1    
    42   20   21 2    
    43   20   22 1    
    44   22   23 1    
    45   22   24 1    
    46   22   80 1    
    47   23   81 1    
    48   23   82 1    
    49   23   83 1    
    50   24   25 am   BACKBONE|DICT|INTERRES
    51   24   84 1    
    52   25   26 2    
    53   27   28 2    
    54   27   29 am   BACKBONE|DICT|INTERRES
    55   29   30 1    
    56   29   85 1    
    57   30   31 1    
    58   30   32 1    
    59   30   86 1    
    60   31   87 1    
    61   31   88 1    
    62   31   89 1    
    63   32   33 2    
    64   32   34 am   BACKBONE|DICT|INTERRES
    65   34   35 1    
    66   34   90 1    
    67   35   36 1    
    68   35   37 1    
    69   35   91 1    
    70   36   92 1    
    71   36   93 1    
    72   36   94 1    
    73   37   38 2    
    74   37   39 am   BACKBONE|DICT|INTERRES
    75   39   40 1    
    76   39   95 1    
    77   40   41 1    
    78   40   42 1    
    79   40   96 1    
    80   41   97 1    
    81   41   98 1    
    82   41   99 1    
    83   42   43 2    
    84   42   44 am   BACKBONE|DICT|INTERRES
    85   44   45 1    
    86   44  100 1    
    87   45   46 1    
    88   45   47 1    
    89   45  101 1    
    90   46  102 1    
    91   46  103 1    
    92   46  104 1    
    93   47   48 2    
    94   47   49 am   BACKBONE|DICT|INTERRES
    95   49   50 1    
    96   49  105 1    
    97   50   51 1    
    98   50   52 1    
    99   50  106 1    
   100   51  107 1    
   101   51  108 1    
   102   51  109 1    
   103   52   53 2    
   104   52   54 am   BACKBONE|DICT|INTERRES
   105   54   55 1    
   106   54  110 1    
   107   55   56 1    
   108   55   59 1    
   109   55  111 1    
   110   56   57 am   BACKBONE|DICT|INTERRES
   111   56   58 2    
   112   57  112 1    
   113   57  113 1    
   114   59   60 1    
   115   59  114 1    
   116   59  115 1    
   117   60   61 1    
   118   61  116 1    
   119   61  117 1    
@<TRIPOS>SUBSTRUCTURE
     1 UNK         1 GROUP             0       ****    0 ROOT    
