@<TRIPOS>MOLECULE
3R8
117   119    1
SMALL
USER_CHARGES


@<TRIPOS>ATOM
      1 CA         13.4107  -24.4018  -44.4720 C.3       0 UNK        -0.2013 
      2 C          14.7113  -24.7670  -45.1714 C.2       0 UNK         0.4866 
      3 O          15.4664  -23.8781  -45.5651 O.2       0 UNK        -0.5176 
      4 N          14.9808  -26.0693  -45.3282 N.am      1 UNK        -0.4884 
      5 CA         16.1938  -26.6060  -45.9614 C.3       1 UNK         0.0853 
      6 C6         15.9857  -28.0621  -46.4517 C.3       10 UNK        -0.0849 
      7 S7         15.4897  -29.2301  -45.1323 S.3       10 UNK        -0.2776 
      8 C8         16.7555  -30.5347  -45.2708 C.3       10 UNK         0.0316 
      9 C9         18.0530  -30.1969  -44.5449 C.ar      10 UNK        -0.0863 
     10 C10        18.1020  -30.2392  -43.1486 C.ar      10 UNK        -0.1009 
     11 C11        19.3074  -30.0396  -42.4655 C.ar      10 UNK        -0.0712 
     12 C12        20.4707  -29.7792  -43.1985 C.ar      10 UNK        -0.0894 
     13 C13        20.4359  -29.7199  -44.5961 C.ar      10 UNK        -0.0745 
     14 C14        19.2216  -29.9215  -45.2621 C.ar      10 UNK        -0.0972 
     15 C15        21.7159  -29.5131  -45.3972 C.3       10 UNK         0.0209 
     16 S16        22.0232  -27.7655  -45.8066 S.3       10 UNK        -0.2568 
     17 C17        22.7628  -27.1286  -44.2651 C.3       10 UNK        -0.0983 
     18 CA         21.9260  -25.9982  -43.6152 C.3       3 UNK         0.0876 
     19 N          20.5600  -26.4372  -43.3346 N.am      3 UNK        -0.4424 
     20 C          19.5494  -25.6539  -42.9446 C.2       2 UNK         0.4918 
     21 O          19.6239  -24.4300  -42.8159 O.2       2 UNK        -0.4875 
     22 CA         18.2230  -26.3809  -42.6636 C.3       2 UNK         0.0481 
     23 CB         17.5624  -25.8574  -41.3771 C.3       2 UNK        -0.1831 
     24 N          17.2471  -26.3298  -43.7560 N.am      2 UNK        -0.4498 
     25 C          17.4512  -26.4992  -45.0737 C.2       1 UNK         0.5027 
     26 O          18.5531  -26.6032  -45.6103 O.2       1 UNK        -0.4969 
     27 C          22.6179  -25.5224  -42.3243 C.2       3 UNK         0.5005 
     28 O          22.3948  -26.1169  -41.2671 O.2       3 UNK        -0.5279 
     29 N          23.5035  -24.5216  -42.4361 N.am      4 UNK        -0.4463 
     30 CA         24.2925  -23.9796  -41.3194 C.3       4 UNK         0.0283 
     31 CB         25.0850  -22.7529  -41.7987 C.3       4 UNK        -0.1875 
     32 C          25.2365  -25.0075  -40.6654 C.2       4 UNK         0.4949 
     33 O          25.4836  -24.9255  -39.4626 O.2       4 UNK        -0.5039 
     34 N          25.7198  -25.9699  -41.4630 N.am      5 UNK        -0.4663 
     35 CA         26.5230  -27.1085  -41.0090 C.3       5 UNK         0.0242 
     36 CB         27.3691  -27.6132  -42.1909 C.3       5 UNK        -0.1982 
     37 C          25.6785  -28.2609  -40.4295 C.2       5 UNK         0.5017 
     38 O          26.2551  -29.1784  -39.8455 O.2       5 UNK        -0.5012 
     39 N          24.3495  -28.2189  -40.6292 N.am      6 UNK        -0.4439 
     40 CA         23.3472  -29.2217  -40.2417 C.3       6 UNK         0.0297 
     41 CB         23.1848  -29.2586  -38.7081 C.3       6 UNK        -0.2006 
     42 C          23.5850  -30.6241  -40.8449 C.2       6 UNK         0.4892 
     43 O          23.1769  -31.6172  -40.2445 O.2       6 UNK        -0.5089 
     44 N          24.2357  -30.6780  -42.0178 N.am      7 UNK        -0.4243 
     45 CA         24.8062  -31.8812  -42.6360 C.3       7 UNK         0.0196 
     46 CB         25.4737  -31.5011  -43.9681 C.3       7 UNK        -0.2007 
     47 C          23.8367  -33.0594  -42.8316 C.2       7 UNK         0.5020 
     48 O          24.1986  -34.1936  -42.5182 O.2       7 UNK        -0.5147 
     49 N          22.6236  -32.7801  -43.3267 N.am      8 UNK        -0.4734 
     50 CA         21.5883  -33.7973  -43.5528 C.3       8 UNK         0.0238 
     51 CB         20.5799  -33.2839  -44.5924 C.3       8 UNK        -0.1912 
     52 C          20.8566  -34.2206  -42.2662 C.2       8 UNK         0.5038 
     53 O          20.1960  -35.2604  -42.2729 O.2       8 UNK        -0.5046 
     54 N          20.9757  -33.4175  -41.2023 N.am      9 UNK        -0.4200 
     55 CA         20.3684  -33.6582  -39.8869 C.3       9 UNK         0.0839 
     56 C          21.2896  -34.4529  -38.9164 C.2       9 UNK         0.5513 
     57 N          22.5203  -34.7917  -39.2836 N.am      9 UNK        -0.7519 
     58 O          20.8700  -34.7890  -37.8118 O.2       9 UNK        -0.4960 
     59 C59        19.8654  -32.3365  -39.2490 C.3       10 UNK        -0.0876 
     60 S60        18.5409  -31.5506  -40.2346 S.3       10 UNK        -0.2414 
     61 C61        19.3482  -30.0715  -40.9396 C.3       10 UNK         0.0169 
     62 H62        13.6180  -23.8210  -43.5736 H         1 UNK         0.0903 
     63 H63        12.7870  -23.7987  -45.1312 H         1 UNK         0.0903 
     64 H64        12.8415  -25.2846  -44.1814 H         1 UNK         0.0903 
     65 H65        14.3282  -26.7650  -44.9919 H         1 UNK         0.3096 
     66 H66        16.4006  -25.9954  -46.8438 H         1 UNK         0.1121 
     67 H67        16.8857  -28.4250  -46.9521 H         1 UNK         0.0849 
     68 H68        15.2072  -28.0772  -47.2160 H         1 UNK         0.0849 
     69 H69        16.3490  -31.4522  -44.8426 H         1 UNK         0.0865 
     70 H70        16.9414  -30.7591  -46.3223 H         1 UNK         0.0865 
     71 H71        17.1983  -30.4469  -42.5919 H         1 UNK         0.1346 
     72 H72        21.4064  -29.6288  -42.6823 H         1 UNK         0.1412 
     73 H73        19.1955  -29.8951  -46.3429 H         1 UNK         0.1426 
     74 H74        21.6516  -30.0760  -46.3297 H         1 UNK         0.0716 
     75 H75        22.5746  -29.9232  -44.8653 H         1 UNK         0.0716 
     76 H76        22.9123  -27.9513  -43.5643 H         1 UNK         0.0695 
     77 H77        23.7611  -26.7642  -44.5151 H         1 UNK         0.0695 
     78 H78        21.8648  -25.1576  -44.3099 H         1 UNK         0.0983 
     79 H79        20.3737  -27.4174  -43.4913 H         1 UNK         0.3095 
     80 H80        18.4483  -27.4338  -42.5008 H         1 UNK         0.0454 
     81 H81        18.2639  -25.8790  -40.5419 H         1 UNK         0.0851 
     82 H82        17.2211  -24.8276  -41.4893 H         1 UNK         0.0851 
     83 H83        16.7051  -26.4675  -41.0923 H         1 UNK         0.0851 
     84 H84        16.2828  -26.2435  -43.4720 H         1 UNK         0.2976 
     85 H85        23.6441  -24.0898  -43.3391 H         1 UNK         0.3116 
     86 H86        23.5895  -23.6510  -40.5508 H         1 UNK         0.0646 
     87 H87        25.6605  -22.3169  -40.9807 H         1 UNK         0.0847 
     88 H88        24.4230  -21.9731  -42.1756 H         1 UNK         0.0847 
     89 H89        25.7898  -23.0092  -42.5907 H         1 UNK         0.0847 
     90 H90        25.4883  -25.9365  -42.4451 H         1 UNK         0.3040 
     91 H91        27.2003  -26.7748  -40.2193 H         1 UNK         0.1015 
     92 H92        28.0215  -26.8285  -42.5747 H         1 UNK         0.0786 
     93 H93        26.7475  -27.9665  -43.0145 H         1 UNK         0.0786 
     94 H94        28.0100  -28.4427  -41.8882 H         1 UNK         0.0786 
     95 H95        23.9599  -27.3762  -41.0391 H         1 UNK         0.3172 
     96 H96        22.4056  -28.8658  -40.6583 H         1 UNK         0.0595 
     97 H97        22.9982  -28.2628  -38.3060 H         1 UNK         0.0839 
     98 H98        24.0733  -29.6580  -38.2180 H         1 UNK         0.0839 
     99 H99        22.3428  -29.8861  -38.4148 H         1 UNK         0.0839 
    100 H100       24.5210  -29.7996  -42.4230 H         1 UNK         0.2998 
    101 H101       25.5901  -32.2303  -41.9603 H         1 UNK         0.0822 
    102 H102       25.9295  -32.3734  -44.4391 H         1 UNK         0.0787 
    103 H103       24.7584  -31.0856  -44.6784 H         1 UNK         0.0787 
    104 H104       26.2661  -30.7668  -43.8205 H         1 UNK         0.0787 
    105 H105       22.3916  -31.8253  -43.5530 H         1 UNK         0.3055 
    106 H106       22.0658  -34.6908  -43.9623 H         1 UNK         0.1106 
    107 H107       21.0744  -32.9088  -45.4884 H         1 UNK         0.0828 
    108 H108       19.9067  -34.0834  -44.9044 H         1 UNK         0.0828 
    109 H109       19.9578  -32.4879  -44.1858 H         1 UNK         0.0828 
    110 H110       21.6095  -32.6302  -41.2496 H         1 UNK         0.2931 
    111 H111       19.4908  -34.2926  -40.0260 H         1 UNK         0.0412 
    112 H112       23.1022  -35.3113  -38.6458 H         1 UNK         0.3472 
    113 H113       22.8849  -34.4978  -40.1772 H         1 UNK         0.3472 
    114 H114       20.6933  -31.6459  -39.0876 H         1 UNK         0.0970 
    115 H115       19.4474  -32.5301  -38.2594 H         1 UNK         0.0970 
    116 H116       18.8386  -29.1853  -40.5596 H         1 UNK         0.0612 
    117 H117       20.3753  -30.0061  -40.5848 H         1 UNK         0.0612 
@<TRIPOS>BOND
     1    1    2 1    
     2    1   62 1    
     3    1   63 1    
     4    1   64 1    
     5    2    3 2    
     6    2    4 am   BACKBONE|DICT|INTERRES
     7    4    5 1    
     8    4   65 1    
     9    5    6 1    
    10    5   25 1    
    11    5   66 1    
    12    6    7 1    
    13    6   67 1    
    14    6   68 1    
    15    7    8 1    
    16    8    9 1    
    17    8   69 1    
    18    8   70 1    
    19    9   10 ar   
    20    9   14 ar   
    21   10   11 ar   
    22   10   71 1    
    23   11   12 ar   
    24   11   61 1    
    25   12   13 ar   
    26   12   72 1    
    27   13   14 ar   
    28   13   15 1    
    29   14   73 1    
    30   15   16 1    
    31   15   74 1    
    32   15   75 1    
    33   16   17 1    
    34   17   18 1    
    35   17   76 1    
    36   17   77 1    
    37   18   19 1    
    38   18   27 1    
    39   18   78 1    
    40   19   20 am   BACKBONE|DICT|INTERRES
    41   19   79 1    
    42   20   21 2    
    43   20   22 1    
    44   22   23 1    
    45   22   24 1    
    46   22   80 1    
    47   23   81 1    
    48   23   82 1    
    49   23   83 1    
    50   24   25 am   BACKBONE|DICT|INTERRES
    51   24   84 1    
    52   25   26 2    
    53   27   28 2    
    54   27   29 am   BACKBONE|DICT|INTERRES
    55   29   30 1    
    56   29   85 1    
    57   30   31 1    
    58   30   32 1    
    59   30   86 1    
    60   31   87 1    
    61   31   88 1    
    62   31   89 1    
    63   32   33 2    
    64   32   34 am   BACKBONE|DICT|INTERRES
    65   34   35 1    
    66   34   90 1    
    67   35   36 1    
    68   35   37 1    
    69   35   91 1    
    70   36   92 1    
    71   36   93 1    
    72   36   94 1    
    73   37   38 2    
    74   37   39 am   BACKBONE|DICT|INTERRES
    75   39   40 1    
    76   39   95 1    
    77   40   41 1    
    78   40   42 1    
    79   40   96 1    
    80   41   97 1    
    81   41   98 1    
    82   41   99 1    
    83   42   43 2    
    84   42   44 am   BACKBONE|DICT|INTERRES
    85   44   45 1    
    86   44  100 1    
    87   45   46 1    
    88   45   47 1    
    89   45  101 1    
    90   46  102 1    
    91   46  103 1    
    92   46  104 1    
    93   47   48 2    
    94   47   49 am   BACKBONE|DICT|INTERRES
    95   49   50 1    
    96   49  105 1    
    97   50   51 1    
    98   50   52 1    
    99   50  106 1    
   100   51  107 1    
   101   51  108 1    
   102   51  109 1    
   103   52   53 2    
   104   52   54 am   BACKBONE|DICT|INTERRES
   105   54   55 1    
   106   54  110 1    
   107   55   56 1    
   108   55   59 1    
   109   55  111 1    
   110   56   57 am   BACKBONE|DICT|INTERRES
   111   56   58 2    
   112   57  112 1    
   113   57  113 1    
   114   59   60 1    
   115   59  114 1    
   116   59  115 1    
   117   60   61 1    
   118   61  116 1    
   119   61  117 1    
@<TRIPOS>SUBSTRUCTURE
     1 UNK         1 GROUP             0       ****    0 ROOT    
