@<TRIPOS>MOLECULE
3R8
117   119    1
SMALL
USER_CHARGES


@<TRIPOS>ATOM
      1 CA         17.8861  -26.2668  -48.3893 C.3       0 UNK        -0.2013 
      2 C          17.9808  -26.1590  -46.8744 C.2       0 UNK         0.4866 
      3 O          18.1943  -25.0625  -46.3581 O.2       0 UNK        -0.5176 
      4 N          17.8202  -27.2904  -46.1737 N.am      1 UNK        -0.4884 
      5 CA         17.8764  -27.4463  -44.7131 C.3       1 UNK         0.0853 
      6 C6         16.7209  -26.7408  -43.9519 C.3       10 UNK        -0.0849 
      7 S7         15.0965  -27.4472  -44.3956 S.3       10 UNK        -0.2776 
      8 C8         14.7449  -28.5383  -42.9711 C.3       10 UNK         0.0316 
      9 C9         15.8221  -29.5942  -42.7358 C.ar      10 UNK        -0.0863 
     10 C10        16.2300  -30.4392  -43.7752 C.ar      10 UNK        -0.1009 
     11 C11        17.2535  -31.3683  -43.5719 C.ar      10 UNK        -0.0712 
     12 C12        17.8162  -31.5053  -42.3019 C.ar      10 UNK        -0.0894 
     13 C13        17.4022  -30.6885  -41.2481 C.ar      10 UNK        -0.0745 
     14 C14        16.4125  -29.7258  -41.4726 C.ar      10 UNK        -0.0972 
     15 C15        18.0201  -30.8728  -39.8701 C.3       10 UNK         0.0209 
     16 S16        19.7902  -30.4486  -39.8546 S.3       10 UNK        -0.2568 
     17 C17        19.7244  -28.6423  -39.6441 C.3       10 UNK        -0.0983 
     18 CA         20.9547  -27.9362  -40.2629 C.3       3 UNK         0.0876 
     19 N          21.0043  -28.1244  -41.7200 N.am      3 UNK        -0.4424 
     20 C          21.8976  -27.6115  -42.5805 C.2       2 UNK         0.4918 
     21 O          22.8397  -26.8925  -42.2513 O.2       2 UNK        -0.4875 
     22 CA         21.6541  -27.8765  -44.0761 C.3       2 UNK         0.0481 
     23 CB         22.3859  -29.1564  -44.5094 C.3       2 UNK        -0.1831 
     24 N          20.2399  -27.9722  -44.4595 N.am      2 UNK        -0.4498 
     25 C          19.2683  -27.0937  -44.1603 C.2       1 UNK         0.5027 
     26 O          19.4364  -26.0764  -43.4827 O.2       1 UNK        -0.4969 
     27 C          21.0014  -26.4639  -39.7930 C.2       3 UNK         0.5005 
     28 O          21.3841  -26.2222  -38.6473 O.2       3 UNK        -0.5279 
     29 N          20.6508  -25.5071  -40.6679 N.am      4 UNK        -0.4463 
     30 CA         20.8359  -24.0690  -40.4491 C.3       4 UNK         0.0283 
     31 CB         20.1759  -23.2966  -41.6021 C.3       4 UNK        -0.1875 
     32 C          22.3140  -23.6488  -40.2982 C.2       4 UNK         0.4949 
     33 O          22.5812  -22.6386  -39.6468 O.2       4 UNK        -0.5039 
     34 N          23.2369  -24.4229  -40.8858 N.am      5 UNK        -0.4663 
     35 CA         24.6846  -24.2628  -40.7567 C.3       5 UNK         0.0242 
     36 CB         25.3168  -24.1616  -42.1563 C.3       5 UNK        -0.1982 
     37 C          25.2732  -25.4364  -39.9599 C.2       5 UNK         0.5017 
     38 O          25.8636  -25.2116  -38.9030 O.2       5 UNK        -0.5012 
     39 N          25.0881  -26.6608  -40.4687 N.am      6 UNK        -0.4439 
     40 CA         25.5364  -27.9271  -39.8917 C.3       6 UNK         0.0297 
     41 CB         27.0729  -28.0460  -39.9241 C.3       6 UNK        -0.2006 
     42 C          24.8937  -29.0546  -40.7058 C.2       6 UNK         0.4892 
     43 O          24.9040  -28.9814  -41.9358 O.2       6 UNK        -0.5089 
     44 N          24.3358  -30.0569  -40.0139 N.am      7 UNK        -0.4243 
     45 CA         23.5743  -31.1667  -40.5983 C.3       7 UNK         0.0196 
     46 CB         23.0713  -32.0788  -39.4677 C.3       7 UNK        -0.2007 
     47 C          24.3731  -31.9860  -41.6284 C.2       7 UNK         0.5020 
     48 O          25.5566  -32.2562  -41.4108 O.2       7 UNK        -0.5147 
     49 N          23.6979  -32.3883  -42.7113 N.am      8 UNK        -0.4734 
     50 CA         24.2793  -33.1663  -43.8084 C.3       8 UNK         0.0238 
     51 CB         25.0071  -32.2407  -44.8019 C.3       8 UNK        -0.1912 
     52 C          23.2156  -34.0142  -44.5155 C.2       8 UNK         0.5038 
     53 O          23.4414  -35.2056  -44.7284 O.2       8 UNK        -0.5046 
     54 N          22.0743  -33.3960  -44.8520 N.am      9 UNK        -0.4200 
     55 CA         20.9215  -34.0504  -45.4953 C.3       9 UNK         0.0839 
     56 C          20.1009  -35.0096  -44.5821 C.2       9 UNK         0.5513 
     57 N          20.3314  -35.0517  -43.2752 N.am      9 UNK        -0.7519 
     58 O          19.2416  -35.7358  -45.0747 O.2       9 UNK        -0.4960 
     59 C59        20.0170  -33.0271  -46.2384 C.3       10 UNK        -0.0876 
     60 S60        19.4487  -31.6379  -45.1971 S.3       10 UNK        -0.2414 
     61 C61        17.7858  -32.2080  -44.7192 C.3       10 UNK         0.0169 
     62 H62        18.8175  -25.9358  -48.8479 H         1 UNK         0.0903 
     63 H63        17.6918  -27.2882  -48.7163 H         1 UNK         0.0903 
     64 H64        17.0802  -25.6340  -48.7601 H         1 UNK         0.0903 
     65 H65        17.6440  -28.1462  -46.6817 H         1 UNK         0.3096 
     66 H66        17.7751  -28.5136  -44.5322 H         1 UNK         0.1121 
     67 H67        16.8580  -26.8272  -42.8721 H         1 UNK         0.0849 
     68 H68        16.7107  -25.6712  -44.1671 H         1 UNK         0.0849 
     69 H69        14.6082  -27.9185  -42.0834 H         1 UNK         0.0865 
     70 H70        13.7923  -29.0417  -43.1407 H         1 UNK         0.0865 
     71 H71        15.7826  -30.3373  -44.7547 H         1 UNK         0.1346 
     72 H72        18.5975  -32.2358  -42.1390 H         1 UNK         0.1412 
     73 H73        16.0958  -29.0858  -40.6602 H         1 UNK         0.1426 
     74 H74        17.9101  -31.9168  -39.5735 H         1 UNK         0.0716 
     75 H75        17.4935  -30.2849  -39.1165 H         1 UNK         0.0716 
     76 H76        19.6586  -28.4486  -38.5713 H         1 UNK         0.0695 
     77 H77        18.8035  -28.2545  -40.0842 H         1 UNK         0.0695 
     78 H78        21.8548  -28.4043  -39.8601 H         1 UNK         0.0983 
     79 H79        20.2661  -28.6979  -42.1002 H         1 UNK         0.3095 
     80 H80        22.0780  -27.0357  -44.6284 H         1 UNK         0.0454 
     81 H81        22.3077  -29.3181  -45.5846 H         1 UNK         0.0851 
     82 H82        21.9876  -30.0366  -44.0051 H         1 UNK         0.0851 
     83 H83        23.4487  -29.0979  -44.2694 H         1 UNK         0.0851 
     84 H84        19.9941  -28.7704  -45.0285 H         1 UNK         0.2976 
     85 H85        20.3264  -25.7855  -41.5889 H         1 UNK         0.3116 
     86 H86        20.3233  -23.8051  -39.5219 H         1 UNK         0.0646 
     87 H87        20.6353  -23.5363  -42.5622 H         1 UNK         0.0847 
     88 H88        20.2679  -22.2195  -41.4554 H         1 UNK         0.0847 
     89 H89        19.1122  -23.5238  -41.6759 H         1 UNK         0.0847 
     90 H90        22.9257  -25.2545  -41.3824 H         1 UNK         0.3040 
     91 H91        24.9227  -23.3457  -40.2130 H         1 UNK         0.1015 
     92 H92        25.0833  -25.0278  -42.7769 H         1 UNK         0.0786 
     93 H93        26.4032  -24.0884  -42.0899 H         1 UNK         0.0786 
     94 H94        24.9643  -23.2739  -42.6816 H         1 UNK         0.0786 
     95 H95        24.5409  -26.7677  -41.3215 H         1 UNK         0.3172 
     96 H96        25.1870  -27.9802  -38.8586 H         1 UNK         0.0595 
     97 H97        27.4613  -27.9385  -40.9377 H         1 UNK         0.0839 
     98 H98        27.3960  -29.0195  -39.5529 H         1 UNK         0.0839 
     99 H99        27.5510  -27.2911  -39.3003 H         1 UNK         0.0839 
    100 H100       24.4195  -30.0546  -39.0078 H         1 UNK         0.2998 
    101 H101       22.7092  -30.7273  -41.0995 H         1 UNK         0.0822 
    102 H102       22.4461  -32.8813  -39.8615 H         1 UNK         0.0787 
    103 H103       23.8974  -32.5433  -38.9275 H         1 UNK         0.0787 
    104 H104       22.4677  -31.5265  -38.7472 H         1 UNK         0.0787 
    105 H105       22.7109  -32.1865  -42.7690 H         1 UNK         0.3055 
    106 H106       25.0107  -33.8646  -43.3935 H         1 UNK         0.1106 
    107 H107       24.3365  -31.4953  -45.2299 H         1 UNK         0.0828 
    108 H108       25.8285  -31.7101  -44.3198 H         1 UNK         0.0828 
    109 H109       25.4329  -32.8117  -45.6281 H         1 UNK         0.0828 
    110 H110       21.9674  -32.4086  -44.6821 H         1 UNK         0.2931 
    111 H111       21.3342  -34.7000  -46.2700 H         1 UNK         0.0412 
    112 H112       21.0432  -34.4751  -42.8599 H         1 UNK         0.3472 
    113 H113       19.7951  -35.6835  -42.7017 H         1 UNK         0.3472 
    114 H114       19.1595  -33.5205  -46.7005 H         1 UNK         0.0970 
    115 H115       20.5780  -32.5977  -47.0697 H         1 UNK         0.0970 
    116 H116       17.1233  -32.1575  -45.5845 H         1 UNK         0.0612 
    117 H117       17.8185  -33.2526  -44.4092 H         1 UNK         0.0612 
@<TRIPOS>BOND
     1    1    2 1    
     2    1   62 1    
     3    1   63 1    
     4    1   64 1    
     5    2    3 2    
     6    2    4 am   BACKBONE|DICT|INTERRES
     7    4    5 1    
     8    4   65 1    
     9    5    6 1    
    10    5   25 1    
    11    5   66 1    
    12    6    7 1    
    13    6   67 1    
    14    6   68 1    
    15    7    8 1    
    16    8    9 1    
    17    8   69 1    
    18    8   70 1    
    19    9   10 ar   
    20    9   14 ar   
    21   10   11 ar   
    22   10   71 1    
    23   11   12 ar   
    24   11   61 1    
    25   12   13 ar   
    26   12   72 1    
    27   13   14 ar   
    28   13   15 1    
    29   14   73 1    
    30   15   16 1    
    31   15   74 1    
    32   15   75 1    
    33   16   17 1    
    34   17   18 1    
    35   17   76 1    
    36   17   77 1    
    37   18   19 1    
    38   18   27 1    
    39   18   78 1    
    40   19   20 am   BACKBONE|DICT|INTERRES
    41   19   79 1    
    42   20   21 2    
    43   20   22 1    
    44   22   23 1    
    45   22   24 1    
    46   22   80 1    
    47   23   81 1    
    48   23   82 1    
    49   23   83 1    
    50   24   25 am   BACKBONE|DICT|INTERRES
    51   24   84 1    
    52   25   26 2    
    53   27   28 2    
    54   27   29 am   BACKBONE|DICT|INTERRES
    55   29   30 1    
    56   29   85 1    
    57   30   31 1    
    58   30   32 1    
    59   30   86 1    
    60   31   87 1    
    61   31   88 1    
    62   31   89 1    
    63   32   33 2    
    64   32   34 am   BACKBONE|DICT|INTERRES
    65   34   35 1    
    66   34   90 1    
    67   35   36 1    
    68   35   37 1    
    69   35   91 1    
    70   36   92 1    
    71   36   93 1    
    72   36   94 1    
    73   37   38 2    
    74   37   39 am   BACKBONE|DICT|INTERRES
    75   39   40 1    
    76   39   95 1    
    77   40   41 1    
    78   40   42 1    
    79   40   96 1    
    80   41   97 1    
    81   41   98 1    
    82   41   99 1    
    83   42   43 2    
    84   42   44 am   BACKBONE|DICT|INTERRES
    85   44   45 1    
    86   44  100 1    
    87   45   46 1    
    88   45   47 1    
    89   45  101 1    
    90   46  102 1    
    91   46  103 1    
    92   46  104 1    
    93   47   48 2    
    94   47   49 am   BACKBONE|DICT|INTERRES
    95   49   50 1    
    96   49  105 1    
    97   50   51 1    
    98   50   52 1    
    99   50  106 1    
   100   51  107 1    
   101   51  108 1    
   102   51  109 1    
   103   52   53 2    
   104   52   54 am   BACKBONE|DICT|INTERRES
   105   54   55 1    
   106   54  110 1    
   107   55   56 1    
   108   55   59 1    
   109   55  111 1    
   110   56   57 am   BACKBONE|DICT|INTERRES
   111   56   58 2    
   112   57  112 1    
   113   57  113 1    
   114   59   60 1    
   115   59  114 1    
   116   59  115 1    
   117   60   61 1    
   118   61  116 1    
   119   61  117 1    
@<TRIPOS>SUBSTRUCTURE
     1 UNK         1 GROUP             0       ****    0 ROOT    
