@<TRIPOS>MOLECULE
3R8
117   119    1
SMALL
USER_CHARGES


@<TRIPOS>ATOM
      1 CA         22.4474  -29.2876  -48.0894 C.3       0 UNK        -0.2013 
      2 C          21.5147  -29.0287  -46.9169 C.2       0 UNK         0.4866 
      3 O          21.8775  -29.3099  -45.7759 O.2       0 UNK        -0.5176 
      4 N          20.3237  -28.4798  -47.1841 N.am      1 UNK        -0.4884 
      5 CA         19.2681  -28.1891  -46.2022 C.3       1 UNK         0.0853 
      6 C6         17.8581  -28.3928  -46.8144 C.3       10 UNK        -0.0849 
      7 S7         17.5498  -30.1546  -47.1778 S.3       10 UNK        -0.2776 
      8 C8         16.2452  -30.5706  -45.9731 C.3       10 UNK         0.0316 
      9 C9         16.6869  -30.3770  -44.5270 C.ar      10 UNK        -0.0863 
     10 C10        17.5754  -31.2772  -43.9322 C.ar      10 UNK        -0.1009 
     11 C11        17.9464  -31.1314  -42.5905 C.ar      10 UNK        -0.0712 
     12 C12        17.4346  -30.0599  -41.8488 C.ar      10 UNK        -0.0894 
     13 C13        16.5578  -29.1432  -42.4367 C.ar      10 UNK        -0.0745 
     14 C14        16.1828  -29.3127  -43.7729 C.ar      10 UNK        -0.0972 
     15 C15        15.9813  -27.9869  -41.6304 C.3       10 UNK         0.0209 
     16 S16        16.7134  -26.3875  -42.1124 S.3       10 UNK        -0.2568 
     17 C17        17.8906  -26.0342  -40.7598 C.3       10 UNK        -0.0983 
     18 CA         19.3647  -26.3221  -41.1351 C.3       3 UNK         0.0876 
     19 N          19.7548  -25.6713  -42.3985 N.am      3 UNK        -0.4424 
     20 C          20.9770  -25.6425  -42.9484 C.2       2 UNK         0.4918 
     21 O          22.0013  -25.9944  -42.3676 O.2       2 UNK        -0.4875 
     22 CA         21.0486  -25.2590  -44.4332 C.3       2 UNK         0.0481 
     23 CB         22.4538  -24.7846  -44.8458 C.3       2 UNK        -0.1831 
     24 N          20.6951  -26.4403  -45.2204 N.am      2 UNK        -0.4498 
     25 C          19.4489  -26.7939  -45.5601 C.2       1 UNK         0.5027 
     26 O          18.4732  -26.0665  -45.3675 O.2       1 UNK        -0.4969 
     27 C          20.2879  -26.0422  -39.9287 C.2       3 UNK         0.5005 
     28 O          20.5464  -26.9569  -39.1453 O.2       3 UNK        -0.5279 
     29 N          20.7754  -24.7999  -39.8128 N.am      4 UNK        -0.4463 
     30 CA         21.6298  -24.3302  -38.7192 C.3       4 UNK         0.0283 
     31 CB         21.3641  -22.8294  -38.5065 C.3       4 UNK        -0.1875 
     32 C          23.1371  -24.5839  -38.9270 C.2       4 UNK         0.4949 
     33 O          23.9084  -24.2828  -38.0154 O.2       4 UNK        -0.5039 
     34 N          23.5515  -25.0905  -40.0990 N.am      5 UNK        -0.4663 
     35 CA         24.9600  -25.2898  -40.4581 C.3       5 UNK         0.0242 
     36 CB         25.1077  -25.5495  -41.9671 C.3       5 UNK        -0.1982 
     37 C          25.7768  -26.2972  -39.6100 C.2       5 UNK         0.5017 
     38 O          26.9496  -26.0055  -39.3796 O.2       5 UNK        -0.5012 
     39 N          25.2627  -27.4321  -39.1026 N.am      6 UNK        -0.4439 
     40 CA         23.9873  -28.1102  -39.3514 C.3       6 UNK         0.0297 
     41 CB         23.8223  -29.2243  -38.3040 C.3       6 UNK        -0.2006 
     42 C          23.8994  -28.7071  -40.7648 C.2       6 UNK         0.4892 
     43 O          24.9280  -28.9617  -41.3968 O.2       6 UNK        -0.5089 
     44 N          22.6605  -28.9342  -41.2137 N.am      7 UNK        -0.4243 
     45 CA         22.3246  -29.5020  -42.5202 C.3       7 UNK         0.0196 
     46 CB         20.8158  -29.3536  -42.7524 C.3       7 UNK        -0.2007 
     47 C          22.7451  -30.9709  -42.6936 C.2       7 UNK         0.5020 
     48 O          22.9724  -31.6857  -41.7143 O.2       7 UNK        -0.5147 
     49 N          22.7841  -31.4048  -43.9581 N.am      8 UNK        -0.4734 
     50 CA         23.2258  -32.7241  -44.4223 C.3       8 UNK         0.0238 
     51 CB         23.5811  -32.6122  -45.9177 C.3       8 UNK        -0.1912 
     52 C          22.2405  -33.8824  -44.1363 C.2       8 UNK         0.5038 
     53 O          21.9900  -34.6995  -45.0247 O.2       8 UNK        -0.5046 
     54 N          21.7215  -33.9584  -42.9050 N.am      9 UNK        -0.4200 
     55 CA         20.9447  -35.1010  -42.3878 C.3       9 UNK         0.0839 
     56 C          21.8374  -36.2502  -41.8325 C.2       9 UNK         0.5513 
     57 N          23.1473  -36.0783  -41.6945 N.am      9 UNK        -0.7519 
     58 O          21.3308  -37.3280  -41.5318 O.2       9 UNK        -0.4960 
     59 C59        19.8836  -34.6595  -41.3420 C.3       10 UNK        -0.0876 
     60 S60        18.4459  -33.8339  -42.1035 S.3       10 UNK        -0.2414 
     61 C61        18.9432  -32.0943  -41.9555 C.3       10 UNK         0.0169 
     62 H62        22.6570  -30.3535  -48.1722 H         1 UNK         0.0903 
     63 H63        22.0198  -28.9512  -49.0336 H         1 UNK         0.0903 
     64 H64        23.3919  -28.7656  -47.9387 H         1 UNK         0.0903 
     65 H65        20.0932  -28.2522  -48.1411 H         1 UNK         0.3096 
     66 H66        19.3567  -28.8950  -45.3738 H         1 UNK         0.1121 
     67 H67        17.0754  -28.0328  -46.1454 H         1 UNK         0.0849 
     68 H68        17.7495  -27.8159  -47.7343 H         1 UNK         0.0849 
     69 H69        15.3570  -29.9746  -46.1893 H         1 UNK         0.0865 
     70 H70        15.9509  -31.6109  -46.1202 H         1 UNK         0.0865 
     71 H71        17.9758  -32.0967  -44.5136 H         1 UNK         0.1346 
     72 H72        17.7241  -29.9342  -40.8144 H         1 UNK         0.1412 
     73 H73        15.4938  -28.6108  -44.2230 H         1 UNK         0.1426 
     74 H74        16.0984  -28.1604  -40.5601 H         1 UNK         0.0716 
     75 H75        14.9057  -27.9382  -41.8059 H         1 UNK         0.0716 
     76 H76        17.7709  -24.9820  -40.4944 H         1 UNK         0.0695 
     77 H77        17.6027  -26.5988  -39.8711 H         1 UNK         0.0695 
     78 H78        19.4310  -27.3941  -41.3145 H         1 UNK         0.0983 
     79 H79        18.9760  -25.3996  -42.9848 H         1 UNK         0.3095 
     80 H80        20.3447  -24.4458  -44.6220 H         1 UNK         0.0454 
     81 H81        23.2055  -25.5629  -44.7062 H         1 UNK         0.0851 
     82 H82        22.4771  -24.4830  -45.8929 H         1 UNK         0.0851 
     83 H83        22.7631  -23.9231  -44.2528 H         1 UNK         0.0851 
     84 H84        21.4294  -27.1203  -45.3750 H         1 UNK         0.2976 
     85 H85        20.5366  -24.1257  -40.5263 H         1 UNK         0.3116 
     86 H86        21.3450  -24.8517  -37.8027 H         1 UNK         0.0646 
     87 H87        21.9360  -22.4445  -37.6609 H         1 UNK         0.0847 
     88 H88        20.3123  -22.6378  -38.2936 H         1 UNK         0.0847 
     89 H89        21.6436  -22.2415  -39.3816 H         1 UNK         0.0847 
     90 H90        22.8663  -25.3459  -40.8058 H         1 UNK         0.3040 
     91 H91        25.4387  -24.3242  -40.2788 H         1 UNK         0.1015 
     92 H92        24.7283  -24.7094  -42.5486 H         1 UNK         0.0786 
     93 H93        24.5729  -26.4402  -42.2903 H         1 UNK         0.0786 
     94 H94        26.1549  -25.6843  -42.2408 H         1 UNK         0.0786 
     95 H95        25.9088  -27.9856  -38.5608 H         1 UNK         0.3172 
     96 H96        23.1651  -27.4146  -39.2077 H         1 UNK         0.0595 
     97 H97        22.8645  -29.7338  -38.4198 H         1 UNK         0.0839 
     98 H98        23.8501  -28.8246  -37.2900 H         1 UNK         0.0839 
     99 H99        24.6035  -29.9809  -38.3905 H         1 UNK         0.0839 
    100 H100       21.8857  -28.7107  -40.6062 H         1 UNK         0.2998 
    101 H101       22.8522  -28.9192  -43.2786 H         1 UNK         0.0822 
    102 H102       20.5622  -28.3411  -43.0431 H         1 UNK         0.0787 
    103 H103       20.4614  -29.9916  -43.5622 H         1 UNK         0.0787 
    104 H104       20.2485  -29.6039  -41.8578 H         1 UNK         0.0787 
    105 H105       22.5084  -30.7434  -44.6823 H         1 UNK         0.3055 
    106 H106       24.1448  -32.9706  -43.8861 H         1 UNK         0.1106 
    107 H107       22.7010  -32.3883  -46.5218 H         1 UNK         0.0828 
    108 H108       24.3173  -31.8279  -46.0949 H         1 UNK         0.0828 
    109 H109       24.0088  -33.5428  -46.2935 H         1 UNK         0.0828 
    110 H110       22.0086  -33.2527  -42.2329 H         1 UNK         0.2931 
    111 H111       20.4020  -35.5486  -43.2228 H         1 UNK         0.0412 
    112 H112       23.5788  -35.1988  -41.9281 H         1 UNK         0.3472 
    113 H113       23.7087  -36.8365  -41.3388 H         1 UNK         0.3472 
    114 H114       19.4839  -35.5231  -40.8064 H         1 UNK         0.0970 
    115 H115       20.3301  -34.0209  -40.5778 H         1 UNK         0.0970 
    116 H116       19.0954  -31.8573  -40.9014 H         1 UNK         0.0612 
    117 H117       19.9060  -31.9743  -42.4472 H         1 UNK         0.0612 
@<TRIPOS>BOND
     1    1    2 1    
     2    1   62 1    
     3    1   63 1    
     4    1   64 1    
     5    2    3 2    
     6    2    4 am   BACKBONE|DICT|INTERRES
     7    4    5 1    
     8    4   65 1    
     9    5    6 1    
    10    5   25 1    
    11    5   66 1    
    12    6    7 1    
    13    6   67 1    
    14    6   68 1    
    15    7    8 1    
    16    8    9 1    
    17    8   69 1    
    18    8   70 1    
    19    9   10 ar   
    20    9   14 ar   
    21   10   11 ar   
    22   10   71 1    
    23   11   12 ar   
    24   11   61 1    
    25   12   13 ar   
    26   12   72 1    
    27   13   14 ar   
    28   13   15 1    
    29   14   73 1    
    30   15   16 1    
    31   15   74 1    
    32   15   75 1    
    33   16   17 1    
    34   17   18 1    
    35   17   76 1    
    36   17   77 1    
    37   18   19 1    
    38   18   27 1    
    39   18   78 1    
    40   19   20 am   BACKBONE|DICT|INTERRES
    41   19   79 1    
    42   20   21 2    
    43   20   22 1    
    44   22   23 1    
    45   22   24 1    
    46   22   80 1    
    47   23   81 1    
    48   23   82 1    
    49   23   83 1    
    50   24   25 am   BACKBONE|DICT|INTERRES
    51   24   84 1    
    52   25   26 2    
    53   27   28 2    
    54   27   29 am   BACKBONE|DICT|INTERRES
    55   29   30 1    
    56   29   85 1    
    57   30   31 1    
    58   30   32 1    
    59   30   86 1    
    60   31   87 1    
    61   31   88 1    
    62   31   89 1    
    63   32   33 2    
    64   32   34 am   BACKBONE|DICT|INTERRES
    65   34   35 1    
    66   34   90 1    
    67   35   36 1    
    68   35   37 1    
    69   35   91 1    
    70   36   92 1    
    71   36   93 1    
    72   36   94 1    
    73   37   38 2    
    74   37   39 am   BACKBONE|DICT|INTERRES
    75   39   40 1    
    76   39   95 1    
    77   40   41 1    
    78   40   42 1    
    79   40   96 1    
    80   41   97 1    
    81   41   98 1    
    82   41   99 1    
    83   42   43 2    
    84   42   44 am   BACKBONE|DICT|INTERRES
    85   44   45 1    
    86   44  100 1    
    87   45   46 1    
    88   45   47 1    
    89   45  101 1    
    90   46  102 1    
    91   46  103 1    
    92   46  104 1    
    93   47   48 2    
    94   47   49 am   BACKBONE|DICT|INTERRES
    95   49   50 1    
    96   49  105 1    
    97   50   51 1    
    98   50   52 1    
    99   50  106 1    
   100   51  107 1    
   101   51  108 1    
   102   51  109 1    
   103   52   53 2    
   104   52   54 am   BACKBONE|DICT|INTERRES
   105   54   55 1    
   106   54  110 1    
   107   55   56 1    
   108   55   59 1    
   109   55  111 1    
   110   56   57 am   BACKBONE|DICT|INTERRES
   111   56   58 2    
   112   57  112 1    
   113   57  113 1    
   114   59   60 1    
   115   59  114 1    
   116   59  115 1    
   117   60   61 1    
   118   61  116 1    
   119   61  117 1    
@<TRIPOS>SUBSTRUCTURE
     1 UNK         1 GROUP             0       ****    0 ROOT    
