@<TRIPOS>MOLECULE
3R8
117   119    1
SMALL
USER_CHARGES


@<TRIPOS>ATOM
      1 CA         16.5526  -22.8447  -41.0339 C.3       0 UNK        -0.2013 
      2 C          16.8756  -23.3846  -42.4188 C.2       0 UNK         0.4866 
      3 O          17.7723  -22.8673  -43.0849 O.2       0 UNK        -0.5176 
      4 N          16.1528  -24.4226  -42.8584 N.am      1 UNK        -0.4884 
      5 CA         16.3387  -25.0843  -44.1575 C.3       1 UNK         0.0853 
      6 C6         15.0725  -25.8721  -44.5823 C.3       10 UNK        -0.0849 
      7 S7         14.5648  -27.1682  -43.3922 S.3       10 UNK        -0.2776 
      8 C8         14.4845  -28.6558  -44.4433 C.3       10 UNK         0.0316 
      9 C9         15.8295  -29.3563  -44.6087 C.ar      10 UNK        -0.0863 
     10 C10        16.3468  -30.1295  -43.5648 C.ar      10 UNK        -0.1009 
     11 C11        17.5208  -30.8737  -43.7277 C.ar      10 UNK        -0.0712 
     12 C12        18.1801  -30.8313  -44.9658 C.ar      10 UNK        -0.0894 
     13 C13        17.6838  -30.0522  -46.0157 C.ar      10 UNK        -0.0745 
     14 C14        16.5132  -29.3096  -45.8275 C.ar      10 UNK        -0.0972 
     15 C15        18.3614  -30.0777  -47.3811 C.3       10 UNK         0.0209 
     16 S16        19.4975  -28.6778  -47.6414 S.3       10 UNK        -0.2568 
     17 C17        21.0318  -29.2401  -46.8250 C.3       10 UNK        -0.0983 
     18 CA         21.4816  -28.2815  -45.6920 C.3       3 UNK         0.0876 
     19 N          20.4564  -28.2162  -44.6535 N.am      3 UNK        -0.4424 
     20 C          20.3526  -27.2915  -43.6970 C.2       2 UNK         0.4918 
     21 O          21.1460  -26.3649  -43.5223 O.2       2 UNK        -0.4875 
     22 CA         19.1054  -27.4254  -42.8065 C.3       2 UNK         0.0481 
     23 CB         19.4765  -27.4478  -41.3175 C.3       2 UNK        -0.1831 
     24 N          18.0881  -26.3983  -43.0363 N.am      2 UNK        -0.4498 
     25 C          17.5866  -25.9889  -44.2136 C.2       1 UNK         0.5027 
     26 O          18.0233  -26.3150  -45.3168 O.2       1 UNK        -0.4969 
     27 C          22.8627  -28.6977  -45.1390 C.2       3 UNK         0.5005 
     28 O          22.9693  -29.1744  -44.0056 O.2       3 UNK        -0.5279 
     29 N          23.8932  -28.5550  -45.9869 N.am      4 UNK        -0.4463 
     30 CA         25.2685  -29.0307  -45.7984 C.3       4 UNK         0.0283 
     31 CB         25.3162  -30.5718  -45.9241 C.3       4 UNK        -0.1875 
     32 C          25.9105  -28.4868  -44.5076 C.2       4 UNK         0.4949 
     33 O          26.1693  -27.2857  -44.4266 O.2       4 UNK        -0.5039 
     34 N          26.1535  -29.3692  -43.5297 N.am      5 UNK        -0.4663 
     35 CA         26.7497  -29.0490  -42.2311 C.3       5 UNK         0.0242 
     36 CB         27.2527  -30.3513  -41.5856 C.3       5 UNK        -0.1982 
     37 C          25.8026  -28.3098  -41.2685 C.2       5 UNK         0.5017 
     38 O          26.2727  -27.8311  -40.2356 O.2       5 UNK        -0.5012 
     39 N          24.4996  -28.2563  -41.5869 N.am      6 UNK        -0.4439 
     40 CA         23.3924  -27.6526  -40.8319 C.3       6 UNK         0.0297 
     41 CB         23.5902  -26.1397  -40.6252 C.3       6 UNK        -0.2006 
     42 C          23.0530  -28.3619  -39.5082 C.2       6 UNK         0.4892 
     43 O          21.8726  -28.5937  -39.2494 O.2       6 UNK        -0.5089 
     44 N          24.0656  -28.7368  -38.7156 N.am      7 UNK        -0.4243 
     45 CA         23.9557  -29.5425  -37.4959 C.3       7 UNK         0.0196 
     46 CB         25.3412  -29.6425  -36.8352 C.3       7 UNK        -0.2007 
     47 C          23.3802  -30.9324  -37.8177 C.2       7 UNK         0.5020 
     48 O          24.1034  -31.7835  -38.3396 O.2       7 UNK        -0.5147 
     49 N          22.0645  -31.0897  -37.5994 N.am      8 UNK        -0.4734 
     50 CA         21.2203  -32.2168  -38.0334 C.3       8 UNK         0.0238 
     51 CB         21.5500  -33.4828  -37.2142 C.3       8 UNK        -0.1912 
     52 C          21.2799  -32.4626  -39.5591 C.2       8 UNK         0.5038 
     53 O          21.1572  -33.6076  -39.9964 O.2       8 UNK        -0.5046 
     54 N          21.5211  -31.3796  -40.3151 N.am      9 UNK        -0.4200 
     55 CA         21.9349  -31.3330  -41.7273 C.3       9 UNK         0.0839 
     56 C          23.1008  -32.2821  -42.1449 C.2       9 UNK         0.5513 
     57 N          24.0128  -32.6275  -41.2422 N.am      9 UNK        -0.7519 
     58 O          23.2099  -32.6848  -43.2999 O.2       9 UNK        -0.4960 
     59 C59        20.7612  -31.2240  -42.7404 C.3       10 UNK        -0.0876 
     60 S60        19.5809  -32.6125  -42.7674 S.3       10 UNK        -0.2414 
     61 C61        17.9961  -31.7292  -42.5466 C.3       10 UNK         0.0169 
     62 H62        15.7388  -23.3941  -40.5608 H         1 UNK         0.0903 
     63 H63        17.4288  -22.9151  -40.3898 H         1 UNK         0.0903 
     64 H64        16.2608  -21.7968  -41.0987 H         1 UNK         0.0903 
     65 H65        15.4221  -24.8123  -42.2777 H         1 UNK         0.3096 
     66 H66        16.5006  -24.3034  -44.9046 H         1 UNK         0.1121 
     67 H67        15.2159  -26.3105  -45.5720 H         1 UNK         0.0849 
     68 H68        14.2369  -25.1794  -44.6944 H         1 UNK         0.0849 
     69 H69        13.7826  -29.3562  -43.9881 H         1 UNK         0.0865 
     70 H70        14.0541  -28.4015  -45.4132 H         1 UNK         0.0865 
     71 H71        15.8135  -30.1725  -42.6245 H         1 UNK         0.1346 
     72 H72        19.0666  -31.4239  -45.1369 H         1 UNK         0.1412 
     73 H73        16.1165  -28.7238  -46.6456 H         1 UNK         0.1426 
     74 H74        17.5965  -30.0442  -48.1585 H         1 UNK         0.0716 
     75 H75        18.8928  -31.0185  -47.5326 H         1 UNK         0.0716 
     76 H76        21.7940  -29.3108  -47.6030 H         1 UNK         0.0695 
     77 H77        20.9016  -30.2534  -46.4409 H         1 UNK         0.0695 
     78 H78        21.5901  -27.2764  -46.1058 H         1 UNK         0.0983 
     79 H79        19.7054  -28.8834  -44.7515 H         1 UNK         0.3095 
     80 H80        18.6242  -28.3775  -43.0305 H         1 UNK         0.0454 
     81 H81        20.1464  -28.2801  -41.1087 H         1 UNK         0.0851 
     82 H82        18.5990  -27.5812  -40.6850 H         1 UNK         0.0851 
     83 H83        19.9815  -26.5317  -41.0085 H         1 UNK         0.0851 
     84 H84        17.6398  -26.0303  -42.2109 H         1 UNK         0.2976 
     85 H85        23.7159  -28.1081  -46.8761 H         1 UNK         0.3116 
     86 H86        25.8544  -28.6190  -46.6217 H         1 UNK         0.0646 
     87 H87        24.7009  -31.0700  -45.1735 H         1 UNK         0.0847 
     88 H88        26.3358  -30.9469  -45.8247 H         1 UNK         0.0847 
     89 H89        24.9567  -30.8929  -46.9017 H         1 UNK         0.0847 
     90 H90        25.8809  -30.3304  -43.6787 H         1 UNK         0.3040 
     91 H91        27.6080  -28.3946  -42.3998 H         1 UNK         0.1015 
     92 H92        26.4344  -31.0431  -41.3830 H         1 UNK         0.0786 
     93 H93        27.7506  -30.1514  -40.6356 H         1 UNK         0.0786 
     94 H94        27.9742  -30.8601  -42.2251 H         1 UNK         0.0786 
     95 H95        24.2176  -28.6888  -42.4632 H         1 UNK         0.3172 
     96 H96        22.5219  -27.7734  -41.4769 H         1 UNK         0.0595 
     97 H97        24.4416  -25.9186  -39.9812 H         1 UNK         0.0839 
     98 H98        22.7089  -25.6950  -40.1610 H         1 UNK         0.0839 
     99 H99        23.7448  -25.6301  -41.5764 H         1 UNK         0.0839 
    100 H100       25.0031  -28.5013  -39.0306 H         1 UNK         0.2998 
    101 H101       23.2837  -29.0294  -36.8049 H         1 UNK         0.0822 
    102 H102       25.7154  -28.6593  -36.5492 H         1 UNK         0.0787 
    103 H103       25.2987  -30.2499  -35.9302 H         1 UNK         0.0787 
    104 H104       26.0755  -30.0984  -37.5010 H         1 UNK         0.0787 
    105 H105       21.5604  -30.2973  -37.2223 H         1 UNK         0.3055 
    106 H106       20.1880  -31.9380  -37.8151 H         1 UNK         0.1106 
    107 H107       20.8464  -34.2868  -37.4338 H         1 UNK         0.0828 
    108 H108       22.5501  -33.8575  -37.4348 H         1 UNK         0.0828 
    109 H109       21.4929  -33.2891  -36.1432 H         1 UNK         0.0828 
    110 H110       21.5866  -30.4921  -39.8282 H         1 UNK         0.2931 
    111 H111       22.4219  -30.3611  -41.7822 H         1 UNK         0.0412 
    112 H112       24.7621  -33.2417  -41.5167 H         1 UNK         0.3472 
    113 H113       23.9453  -32.3169  -40.2786 H         1 UNK         0.3472 
    114 H114       21.1493  -31.0975  -43.7519 H         1 UNK         0.0970 
    115 H115       20.2151  -30.3052  -42.5325 H         1 UNK         0.0970 
    116 H116       18.0677  -31.1050  -41.6544 H         1 UNK         0.0612 
    117 H117       17.2288  -32.4756  -42.3371 H         1 UNK         0.0612 
@<TRIPOS>BOND
     1    1    2 1    
     2    1   62 1    
     3    1   63 1    
     4    1   64 1    
     5    2    3 2    
     6    2    4 am   BACKBONE|DICT|INTERRES
     7    4    5 1    
     8    4   65 1    
     9    5    6 1    
    10    5   25 1    
    11    5   66 1    
    12    6    7 1    
    13    6   67 1    
    14    6   68 1    
    15    7    8 1    
    16    8    9 1    
    17    8   69 1    
    18    8   70 1    
    19    9   10 ar   
    20    9   14 ar   
    21   10   11 ar   
    22   10   71 1    
    23   11   12 ar   
    24   11   61 1    
    25   12   13 ar   
    26   12   72 1    
    27   13   14 ar   
    28   13   15 1    
    29   14   73 1    
    30   15   16 1    
    31   15   74 1    
    32   15   75 1    
    33   16   17 1    
    34   17   18 1    
    35   17   76 1    
    36   17   77 1    
    37   18   19 1    
    38   18   27 1    
    39   18   78 1    
    40   19   20 am   BACKBONE|DICT|INTERRES
    41   19   79 1    
    42   20   21 2    
    43   20   22 1    
    44   22   23 1    
    45   22   24 1    
    46   22   80 1    
    47   23   81 1    
    48   23   82 1    
    49   23   83 1    
    50   24   25 am   BACKBONE|DICT|INTERRES
    51   24   84 1    
    52   25   26 2    
    53   27   28 2    
    54   27   29 am   BACKBONE|DICT|INTERRES
    55   29   30 1    
    56   29   85 1    
    57   30   31 1    
    58   30   32 1    
    59   30   86 1    
    60   31   87 1    
    61   31   88 1    
    62   31   89 1    
    63   32   33 2    
    64   32   34 am   BACKBONE|DICT|INTERRES
    65   34   35 1    
    66   34   90 1    
    67   35   36 1    
    68   35   37 1    
    69   35   91 1    
    70   36   92 1    
    71   36   93 1    
    72   36   94 1    
    73   37   38 2    
    74   37   39 am   BACKBONE|DICT|INTERRES
    75   39   40 1    
    76   39   95 1    
    77   40   41 1    
    78   40   42 1    
    79   40   96 1    
    80   41   97 1    
    81   41   98 1    
    82   41   99 1    
    83   42   43 2    
    84   42   44 am   BACKBONE|DICT|INTERRES
    85   44   45 1    
    86   44  100 1    
    87   45   46 1    
    88   45   47 1    
    89   45  101 1    
    90   46  102 1    
    91   46  103 1    
    92   46  104 1    
    93   47   48 2    
    94   47   49 am   BACKBONE|DICT|INTERRES
    95   49   50 1    
    96   49  105 1    
    97   50   51 1    
    98   50   52 1    
    99   50  106 1    
   100   51  107 1    
   101   51  108 1    
   102   51  109 1    
   103   52   53 2    
   104   52   54 am   BACKBONE|DICT|INTERRES
   105   54   55 1    
   106   54  110 1    
   107   55   56 1    
   108   55   59 1    
   109   55  111 1    
   110   56   57 am   BACKBONE|DICT|INTERRES
   111   56   58 2    
   112   57  112 1    
   113   57  113 1    
   114   59   60 1    
   115   59  114 1    
   116   59  115 1    
   117   60   61 1    
   118   61  116 1    
   119   61  117 1    
@<TRIPOS>SUBSTRUCTURE
     1 UNK         1 GROUP             0       ****    0 ROOT    
