@<TRIPOS>MOLECULE
3R8
117   119    1
SMALL
USER_CHARGES


@<TRIPOS>ATOM
      1 CA         15.4111  -26.9556  -48.1573 C.3       0 UNK        -0.2013 
      2 C          16.8802  -27.1448  -47.8099 C.2       0 UNK         0.4866 
      3 O          17.6542  -27.6058  -48.6493 O.2       0 UNK        -0.5176 
      4 N          17.2707  -26.7917  -46.5820 N.am      1 UNK        -0.4884 
      5 CA         18.6360  -26.8731  -46.0695 C.3       1 UNK         0.0853 
      6 C6         18.9729  -28.3023  -45.5735 C.3       10 UNK        -0.0849 
      7 S7         20.7400  -28.5281  -45.1735 S.3       10 UNK        -0.2776 
      8 C8         20.7765  -30.2650  -44.6196 C.3       10 UNK         0.0316 
      9 C9         19.7722  -30.5591  -43.5089 C.ar      10 UNK        -0.0863 
     10 C10        18.8137  -31.5648  -43.6752 C.ar      10 UNK        -0.1009 
     11 C11        17.8504  -31.8035  -42.6886 C.ar      10 UNK        -0.0712 
     12 C12        17.8490  -31.0231  -41.5286 C.ar      10 UNK        -0.0894 
     13 C13        18.8142  -30.0304  -41.3410 C.ar      10 UNK        -0.0745 
     14 C14        19.7785  -29.8092  -42.3288 C.ar      10 UNK        -0.0972 
     15 C15        18.8085  -29.1832  -40.0808 C.3       10 UNK         0.0209 
     16 S16        18.0091  -27.5762  -40.3899 S.3       10 UNK        -0.2568 
     17 C17        19.1496  -26.4594  -39.5139 C.3       10 UNK        -0.0983 
     18 CA         20.3867  -26.1186  -40.3785 C.3       3 UNK         0.0876 
     19 N          20.0311  -25.3757  -41.5921 N.am      3 UNK        -0.4424 
     20 C          20.8846  -25.0930  -42.5826 C.2       2 UNK         0.4918 
     21 O          22.0602  -25.4593  -42.6019 O.2       2 UNK        -0.4875 
     22 CA         20.3236  -24.2958  -43.7667 C.3       2 UNK         0.0481 
     23 CB         21.3513  -23.2851  -44.3068 C.3       2 UNK        -0.1831 
     24 N          19.9650  -25.2307  -44.8288 N.am      2 UNK        -0.4498 
     25 C          18.7686  -25.8158  -44.9588 C.2       1 UNK         0.5027 
     26 O          17.7934  -25.5550  -44.2472 O.2       1 UNK        -0.4969 
     27 C          21.4543  -25.3826  -39.5441 C.2       3 UNK         0.5005 
     28 O          21.5115  -24.1501  -39.5610 O.2       3 UNK        -0.5279 
     29 N          22.2967  -26.1623  -38.8521 N.am      4 UNK        -0.4463 
     30 CA         23.4724  -25.7710  -38.0585 C.3       4 UNK         0.0283 
     31 CB         23.1353  -24.7326  -36.9701 C.3       4 UNK        -0.1875 
     32 C          24.6720  -25.3276  -38.9150 C.2       4 UNK         0.4949 
     33 O          25.8028  -25.6840  -38.5838 O.2       4 UNK        -0.5039 
     34 N          24.4179  -24.6068  -40.0157 N.am      5 UNK        -0.4663 
     35 CA         25.4013  -24.3165  -41.0634 C.3       5 UNK         0.0242 
     36 CB         24.8615  -23.2098  -41.9834 C.3       5 UNK        -0.1982 
     37 C          25.7631  -25.5759  -41.8723 C.2       5 UNK         0.5017 
     38 O          26.9224  -25.7408  -42.2537 O.2       5 UNK        -0.5012 
     39 N          24.7716  -26.4469  -42.0865 N.am      6 UNK        -0.4439 
     40 CA         24.8877  -27.7690  -42.6865 C.3       6 UNK         0.0297 
     41 CB         24.5041  -27.6826  -44.1739 C.3       6 UNK        -0.2006 
     42 C          23.9604  -28.7346  -41.9356 C.2       6 UNK         0.4892 
     43 O          23.0479  -28.2975  -41.2280 O.2       6 UNK        -0.5089 
     44 N          24.2030  -30.0348  -42.1201 N.am      7 UNK        -0.4243 
     45 CA         23.3817  -31.1257  -41.6090 C.3       7 UNK         0.0196 
     46 CB         23.7467  -31.4449  -40.1482 C.3       7 UNK        -0.2007 
     47 C          23.6013  -32.3327  -42.5242 C.2       7 UNK         0.5020 
     48 O          24.7505  -32.7169  -42.7497 O.2       7 UNK        -0.5147 
     49 N          22.5073  -32.8936  -43.0464 N.am      8 UNK        -0.4734 
     50 CA         22.4981  -34.0353  -43.9672 C.3       8 UNK         0.0238 
     51 CB         22.9233  -33.5890  -45.3834 C.3       8 UNK        -0.1912 
     52 C          21.1191  -34.7168  -43.9502 C.2       8 UNK         0.5038 
     53 O          20.6375  -35.1620  -44.9934 O.2       8 UNK        -0.5046 
     54 N          20.4868  -34.7366  -42.7708 N.am      9 UNK        -0.4200 
     55 CA         19.1373  -35.2675  -42.5460 C.3       9 UNK         0.0839 
     56 C          19.0961  -36.8183  -42.4599 C.2       9 UNK         0.5513 
     57 N          17.9128  -37.4077  -42.5569 N.am      9 UNK        -0.7519 
     58 O          20.1118  -37.4883  -42.2817 O.2       9 UNK        -0.4960 
     59 C59        18.4856  -34.5789  -41.3134 C.3       10 UNK        -0.0876 
     60 S60        16.7322  -34.1354  -41.5620 S.3       10 UNK        -0.2414 
     61 C61        16.7939  -32.8843  -42.8957 C.3       10 UNK         0.0169 
     62 H62        14.9643  -27.9112  -48.4305 H         1 UNK         0.0903 
     63 H63        14.8445  -26.5431  -47.3226 H         1 UNK         0.0903 
     64 H64        15.3098  -26.2774  -49.0042 H         1 UNK         0.0903 
     65 H65        16.6169  -26.3797  -45.9260 H         1 UNK         0.3096 
     66 H66        19.3208  -26.6035  -46.8773 H         1 UNK         0.1121 
     67 H67        18.3639  -28.5509  -44.7021 H         1 UNK         0.0849 
     68 H68        18.7153  -29.0344  -46.3403 H         1 UNK         0.0849 
     69 H69        21.7835  -30.4884  -44.2687 H         1 UNK         0.0865 
     70 H70        20.6000  -30.9087  -45.4826 H         1 UNK         0.0865 
     71 H71        18.8048  -32.1525  -44.5833 H         1 UNK         0.1346 
     72 H72        17.0960  -31.1930  -40.7712 H         1 UNK         0.1412 
     73 H73        20.5150  -29.0275  -42.1957 H         1 UNK         0.1426 
     74 H74        19.8357  -29.0477  -39.7394 H         1 UNK         0.0716 
     75 H75        18.2840  -29.6937  -39.2716 H         1 UNK         0.0716 
     76 H76        19.4384  -26.9311  -38.5723 H         1 UNK         0.0695 
     77 H77        18.6083  -25.5507  -39.2437 H         1 UNK         0.0695 
     78 H78        20.8347  -27.0542  -40.7163 H         1 UNK         0.0983 
     79 H79        19.0726  -25.0676  -41.6649 H         1 UNK         0.3095 
     80 H80        19.4445  -23.7368  -43.4388 H         1 UNK         0.0454 
     81 H81        20.9347  -22.6958  -45.1236 H         1 UNK         0.0851 
     82 H82        22.2538  -23.7750  -44.6748 H         1 UNK         0.0851 
     83 H83        21.6557  -22.5871  -43.5259 H         1 UNK         0.0851 
     84 H84        20.7266  -25.5542  -45.4089 H         1 UNK         0.2976 
     85 H85        22.1961  -27.1625  -38.9708 H         1 UNK         0.3116 
     86 H86        23.7829  -26.6825  -37.5448 H         1 UNK         0.0646 
     87 H87        23.9875  -24.5807  -36.3066 H         1 UNK         0.0847 
     88 H88        22.2986  -25.0597  -36.3532 H         1 UNK         0.0847 
     89 H89        22.8830  -23.7594  -37.3917 H         1 UNK         0.0847 
     90 H90        23.4565  -24.3287  -40.1839 H         1 UNK         0.3040 
     91 H91        26.3150  -23.9533  -40.5873 H         1 UNK         0.1015 
     92 H92        24.6548  -22.2960  -41.4260 H         1 UNK         0.0786 
     93 H93        23.9417  -23.5124  -42.4843 H         1 UNK         0.0786 
     94 H94        25.5872  -22.9599  -42.7585 H         1 UNK         0.0786 
     95 H95        23.8343  -26.2188  -41.7682 H         1 UNK         0.3172 
     96 H96        25.9125  -28.1336  -42.5898 H         1 UNK         0.0595 
     97 H97        23.4838  -27.3177  -44.3013 H         1 UNK         0.0839 
     98 H98        24.5655  -28.6574  -44.6589 H         1 UNK         0.0839 
     99 H99        25.1682  -27.0086  -44.7150 H         1 UNK         0.0839 
    100 H100       24.9655  -30.3246  -42.7195 H         1 UNK         0.2998 
    101 H101       22.3317  -30.8314  -41.6507 H         1 UNK         0.0822 
    102 H102       23.1496  -32.2754  -39.7695 H         1 UNK         0.0787 
    103 H103       24.7968  -31.7222  -40.0470 H         1 UNK         0.0787 
    104 H104       23.5623  -30.5900  -39.4973 H         1 UNK         0.0787 
    105 H105       21.5995  -32.5098  -42.8177 H         1 UNK         0.3055 
    106 H106       23.2138  -34.7796  -43.6106 H         1 UNK         0.1106 
    107 H107       22.9583  -34.4373  -46.0681 H         1 UNK         0.0828 
    108 H108       22.2275  -32.8611  -45.8008 H         1 UNK         0.0828 
    109 H109       23.9169  -33.1412  -45.3838 H         1 UNK         0.0828 
    110 H110       20.9867  -34.4302  -41.9499 H         1 UNK         0.2931 
    111 H111       18.5630  -35.0060  -43.4358 H         1 UNK         0.0412 
    112 H112       17.0732  -36.8607  -42.6745 H         1 UNK         0.3472 
    113 H113       17.8546  -38.4124  -42.4952 H         1 UNK         0.3472 
    114 H114       18.5622  -35.2035  -40.4210 H         1 UNK         0.0970 
    115 H115       19.0129  -33.6610  -41.0504 H         1 UNK         0.0970 
    116 H116       16.9452  -33.3937  -43.8481 H         1 UNK         0.0612 
    117 H117       15.8160  -32.4063  -42.9649 H         1 UNK         0.0612 
@<TRIPOS>BOND
     1    1    2 1    
     2    1   62 1    
     3    1   63 1    
     4    1   64 1    
     5    2    3 2    
     6    2    4 am   BACKBONE|DICT|INTERRES
     7    4    5 1    
     8    4   65 1    
     9    5    6 1    
    10    5   25 1    
    11    5   66 1    
    12    6    7 1    
    13    6   67 1    
    14    6   68 1    
    15    7    8 1    
    16    8    9 1    
    17    8   69 1    
    18    8   70 1    
    19    9   10 ar   
    20    9   14 ar   
    21   10   11 ar   
    22   10   71 1    
    23   11   12 ar   
    24   11   61 1    
    25   12   13 ar   
    26   12   72 1    
    27   13   14 ar   
    28   13   15 1    
    29   14   73 1    
    30   15   16 1    
    31   15   74 1    
    32   15   75 1    
    33   16   17 1    
    34   17   18 1    
    35   17   76 1    
    36   17   77 1    
    37   18   19 1    
    38   18   27 1    
    39   18   78 1    
    40   19   20 am   BACKBONE|DICT|INTERRES
    41   19   79 1    
    42   20   21 2    
    43   20   22 1    
    44   22   23 1    
    45   22   24 1    
    46   22   80 1    
    47   23   81 1    
    48   23   82 1    
    49   23   83 1    
    50   24   25 am   BACKBONE|DICT|INTERRES
    51   24   84 1    
    52   25   26 2    
    53   27   28 2    
    54   27   29 am   BACKBONE|DICT|INTERRES
    55   29   30 1    
    56   29   85 1    
    57   30   31 1    
    58   30   32 1    
    59   30   86 1    
    60   31   87 1    
    61   31   88 1    
    62   31   89 1    
    63   32   33 2    
    64   32   34 am   BACKBONE|DICT|INTERRES
    65   34   35 1    
    66   34   90 1    
    67   35   36 1    
    68   35   37 1    
    69   35   91 1    
    70   36   92 1    
    71   36   93 1    
    72   36   94 1    
    73   37   38 2    
    74   37   39 am   BACKBONE|DICT|INTERRES
    75   39   40 1    
    76   39   95 1    
    77   40   41 1    
    78   40   42 1    
    79   40   96 1    
    80   41   97 1    
    81   41   98 1    
    82   41   99 1    
    83   42   43 2    
    84   42   44 am   BACKBONE|DICT|INTERRES
    85   44   45 1    
    86   44  100 1    
    87   45   46 1    
    88   45   47 1    
    89   45  101 1    
    90   46  102 1    
    91   46  103 1    
    92   46  104 1    
    93   47   48 2    
    94   47   49 am   BACKBONE|DICT|INTERRES
    95   49   50 1    
    96   49  105 1    
    97   50   51 1    
    98   50   52 1    
    99   50  106 1    
   100   51  107 1    
   101   51  108 1    
   102   51  109 1    
   103   52   53 2    
   104   52   54 am   BACKBONE|DICT|INTERRES
   105   54   55 1    
   106   54  110 1    
   107   55   56 1    
   108   55   59 1    
   109   55  111 1    
   110   56   57 am   BACKBONE|DICT|INTERRES
   111   56   58 2    
   112   57  112 1    
   113   57  113 1    
   114   59   60 1    
   115   59  114 1    
   116   59  115 1    
   117   60   61 1    
   118   61  116 1    
   119   61  117 1    
@<TRIPOS>SUBSTRUCTURE
     1 UNK         1 GROUP             0       ****    0 ROOT    
