@<TRIPOS>MOLECULE
3R8
117   119    1
SMALL
USER_CHARGES


@<TRIPOS>ATOM
      1 CA         15.4735  -25.3631  -49.7670 C.3       0 UNK        -0.2013 
      2 C          15.4143  -25.5562  -48.2586 C.2       0 UNK         0.4866 
      3 O          14.7375  -24.7869  -47.5752 O.2       0 UNK        -0.5176 
      4 N          16.1143  -26.5794  -47.7478 N.am      1 UNK        -0.4884 
      5 CA         16.2406  -26.9485  -46.3288 C.3       1 UNK         0.0853 
      6 C6         14.8838  -27.3690  -45.6807 C.3       10 UNK        -0.0849 
      7 S7         14.3965  -29.0407  -46.2230 S.3       10 UNK        -0.2776 
      8 C8         14.7342  -30.0361  -44.7263 C.3       10 UNK         0.0316 
      9 C9         16.1514  -29.8522  -44.1901 C.ar      10 UNK        -0.0863 
     10 C10        16.3577  -29.4128  -42.8769 C.ar      10 UNK        -0.1009 
     11 C11        17.6539  -29.2360  -42.3833 C.ar      10 UNK        -0.0712 
     12 C12        18.7435  -29.5010  -43.2131 C.ar      10 UNK        -0.0894 
     13 C13        18.5559  -29.9188  -44.5328 C.ar      10 UNK        -0.0745 
     14 C14        17.2560  -30.1161  -45.0066 C.ar      10 UNK        -0.0972 
     15 C15        19.7496  -30.1663  -45.4454 C.3       10 UNK         0.0209 
     16 S16        20.5520  -28.6165  -45.9843 S.3       10 UNK        -0.2568 
     17 C17        21.6250  -28.2204  -44.5561 C.3       10 UNK        -0.0983 
     18 CA         21.3242  -26.8610  -43.8609 C.3       3 UNK         0.0876 
     19 N          19.8904  -26.5692  -43.7515 N.am      3 UNK        -0.4424 
     20 C          19.3682  -25.3879  -43.3945 C.2       2 UNK         0.4918 
     21 O          20.0372  -24.3662  -43.2272 O.2       2 UNK        -0.4875 
     22 CA         17.8419  -25.3590  -43.1793 C.3       2 UNK         0.0481 
     23 CB         17.2707  -23.9302  -43.0554 C.3       2 UNK        -0.1831 
     24 N          17.1077  -26.1415  -44.1809 N.am      2 UNK        -0.4498 
     25 C          17.0366  -25.9106  -45.5018 C.2       1 UNK         0.5027 
     26 O          17.6079  -24.9707  -46.0612 O.2       1 UNK        -0.4969 
     27 C          21.9854  -26.8289  -42.4643 C.2       3 UNK         0.5005 
     28 O          21.3027  -27.0566  -41.4605 O.2       3 UNK        -0.5279 
     29 N          23.3021  -26.5824  -42.4222 N.am      4 UNK        -0.4463 
     30 CA         24.1012  -26.5715  -41.1931 C.3       4 UNK         0.0283 
     31 CB         25.5385  -26.1360  -41.5226 C.3       4 UNK        -0.1875 
     32 C          24.1098  -27.9435  -40.4995 C.2       4 UNK         0.4949 
     33 O          24.3189  -28.9570  -41.1685 O.2       4 UNK        -0.5039 
     34 N          23.9349  -27.9461  -39.1713 N.am      5 UNK        -0.4663 
     35 CA         23.8663  -29.1507  -38.3313 C.3       5 UNK         0.0242 
     36 CB         23.4566  -28.7465  -36.9058 C.3       5 UNK        -0.1982 
     37 C          25.1615  -29.9848  -38.3041 C.2       5 UNK         0.5017 
     38 O          25.1099  -31.1777  -38.0054 O.2       5 UNK        -0.5012 
     39 N          26.2959  -29.3461  -38.6190 N.am      6 UNK        -0.4439 
     40 CA         27.5964  -29.9935  -38.7921 C.3       6 UNK         0.0297 
     41 CB         28.7035  -28.9391  -38.6269 C.3       6 UNK        -0.2006 
     42 C          27.7401  -30.7098  -40.1492 C.2       6 UNK         0.4892 
     43 O          28.6175  -31.5653  -40.2736 O.2       6 UNK        -0.5089 
     44 N          26.9137  -30.3413  -41.1390 N.am      7 UNK        -0.4243 
     45 CA         26.9588  -30.8697  -42.5021 C.3       7 UNK         0.0196 
     46 CB         26.8661  -29.7039  -43.5022 C.3       7 UNK        -0.2007 
     47 C          25.8329  -31.8805  -42.7542 C.2       7 UNK         0.5020 
     48 O          26.0934  -32.9334  -43.3374 O.2       7 UNK        -0.5147 
     49 N          24.6070  -31.5493  -42.3315 N.am      8 UNK        -0.4734 
     50 CA         23.4015  -32.3462  -42.5565 C.3       8 UNK         0.0238 
     51 CB         22.9067  -32.1534  -44.0078 C.3       8 UNK        -0.1912 
     52 C          22.3545  -32.0360  -41.4718 C.2       8 UNK         0.5038 
     53 O          22.7321  -31.8289  -40.3185 O.2       8 UNK        -0.5046 
     54 N          21.0660  -32.0388  -41.8415 N.am      9 UNK        -0.4200 
     55 CA         19.9068  -31.9614  -40.9361 C.3       9 UNK         0.0839 
     56 C          19.7418  -33.2430  -40.0596 C.2       9 UNK         0.5513 
     57 N          18.9365  -33.1950  -39.0078 N.am      9 UNK        -0.7519 
     58 O          20.2997  -34.3001  -40.3500 O.2       9 UNK        -0.4960 
     59 C59        19.8513  -30.6216  -40.1364 C.3       10 UNK        -0.0876 
     60 S60        18.1397  -30.0821  -39.7782 S.3       10 UNK        -0.2414 
     61 C61        17.8853  -28.7274  -40.9669 C.3       10 UNK         0.0169 
     62 H62        15.8846  -24.3819  -50.0030 H         1 UNK         0.0903 
     63 H63        16.0941  -26.1162  -50.2523 H         1 UNK         0.0903 
     64 H64        14.4722  -25.4244  -50.1925 H         1 UNK         0.0903 
     65 H65        16.6603  -27.1498  -48.3786 H         1 UNK         0.3096 
     66 H66        16.8984  -27.8169  -46.3327 H         1 UNK         0.1121 
     67 H67        14.0864  -26.6722  -45.9394 H         1 UNK         0.0849 
     68 H68        14.9090  -27.3660  -44.5913 H         1 UNK         0.0849 
     69 H69        13.9959  -29.7815  -43.9642 H         1 UNK         0.0865 
     70 H70        14.5783  -31.0901  -44.9602 H         1 UNK         0.0865 
     71 H71        15.5107  -29.2079  -42.2359 H         1 UNK         0.1346 
     72 H72        19.7390  -29.3684  -42.8217 H         1 UNK         0.1412 
     73 H73        17.0978  -30.4530  -46.0225 H         1 UNK         0.1426 
     74 H74        19.4324  -30.7096  -46.3368 H         1 UNK         0.0716 
     75 H75        20.4689  -30.8136  -44.9468 H         1 UNK         0.0716 
     76 H76        22.6537  -28.2153  -44.9206 H         1 UNK         0.0695 
     77 H77        21.5927  -29.0453  -43.8451 H         1 UNK         0.0695 
     78 H78        21.7647  -26.0639  -44.4639 H         1 UNK         0.0983 
     79 H79        19.2706  -27.3541  -43.8847 H         1 UNK         0.3095 
     80 H80        17.6678  -25.8583  -42.2252 H         1 UNK         0.0454 
     81 H81        16.1944  -23.9457  -42.8856 H         1 UNK         0.0851 
     82 H82        17.4613  -23.3360  -43.9494 H         1 UNK         0.0851 
     83 H83        17.7221  -23.4018  -42.2149 H         1 UNK         0.0851 
     84 H84        16.6435  -26.9648  -43.8224 H         1 UNK         0.2976 
     85 H85        23.8034  -26.4412  -43.2873 H         1 UNK         0.3116 
     86 H86        23.6613  -25.8345  -40.5178 H         1 UNK         0.0646 
     87 H87        26.0252  -26.8299  -42.2093 H         1 UNK         0.0847 
     88 H88        26.1503  -26.0891  -40.6208 H         1 UNK         0.0847 
     89 H89        25.5600  -25.1448  -41.9758 H         1 UNK         0.0847 
     90 H90        23.7778  -27.0645  -38.7032 H         1 UNK         0.3040 
     91 H91        23.0830  -29.7910  -38.7410 H         1 UNK         0.1015 
     92 H92        24.1889  -28.0801  -36.4482 H         1 UNK         0.0786 
     93 H93        23.3666  -29.6231  -36.2624 H         1 UNK         0.0786 
     94 H94        22.4898  -28.2428  -36.8981 H         1 UNK         0.0786 
     95 H95        26.2418  -28.3581  -38.8190 H         1 UNK         0.3172 
     96 H96        27.7221  -30.7434  -38.0080 H         1 UNK         0.0595 
     97 H97        28.6363  -28.1580  -39.3853 H         1 UNK         0.0839 
     98 H98        29.6912  -29.3938  -38.7159 H         1 UNK         0.0839 
     99 H99        28.6565  -28.4630  -37.6472 H         1 UNK         0.0839 
    100 H100       26.1645  -29.6880  -40.9392 H         1 UNK         0.2998 
    101 H101       27.9083  -31.3805  -42.6771 H         1 UNK         0.0822 
    102 H102       27.6860  -28.9988  -43.3646 H         1 UNK         0.0787 
    103 H103       26.9199  -30.0675  -44.5292 H         1 UNK         0.0787 
    104 H104       25.9302  -29.1529  -43.4013 H         1 UNK         0.0787 
    105 H105       24.4671  -30.6750  -41.8260 H         1 UNK         0.3055 
    106 H106       23.6550  -33.4001  -42.4207 H         1 UNK         0.1106 
    107 H107       22.0273  -32.7597  -44.2262 H         1 UNK         0.0828 
    108 H108       22.6671  -31.1108  -44.2110 H         1 UNK         0.0828 
    109 H109       23.6699  -32.4543  -44.7256 H         1 UNK         0.0828 
    110 H110       20.8476  -32.2629  -42.8002 H         1 UNK         0.2931 
    111 H111       19.0532  -31.9801  -41.6148 H         1 UNK         0.0412 
    112 H112       18.4486  -32.3400  -38.7830 H         1 UNK         0.3472 
    113 H113       18.8052  -34.0195  -38.4428 H         1 UNK         0.3472 
    114 H114       20.3614  -29.8250  -40.6789 H         1 UNK         0.0970 
    115 H115       20.3996  -30.7102  -39.1967 H         1 UNK         0.0970 
    116 H116       18.7388  -28.0481  -40.9404 H         1 UNK         0.0612 
    117 H117       17.0252  -28.1403  -40.6416 H         1 UNK         0.0612 
@<TRIPOS>BOND
     1    1    2 1    
     2    1   62 1    
     3    1   63 1    
     4    1   64 1    
     5    2    3 2    
     6    2    4 am   BACKBONE|DICT|INTERRES
     7    4    5 1    
     8    4   65 1    
     9    5    6 1    
    10    5   25 1    
    11    5   66 1    
    12    6    7 1    
    13    6   67 1    
    14    6   68 1    
    15    7    8 1    
    16    8    9 1    
    17    8   69 1    
    18    8   70 1    
    19    9   10 ar   
    20    9   14 ar   
    21   10   11 ar   
    22   10   71 1    
    23   11   12 ar   
    24   11   61 1    
    25   12   13 ar   
    26   12   72 1    
    27   13   14 ar   
    28   13   15 1    
    29   14   73 1    
    30   15   16 1    
    31   15   74 1    
    32   15   75 1    
    33   16   17 1    
    34   17   18 1    
    35   17   76 1    
    36   17   77 1    
    37   18   19 1    
    38   18   27 1    
    39   18   78 1    
    40   19   20 am   BACKBONE|DICT|INTERRES
    41   19   79 1    
    42   20   21 2    
    43   20   22 1    
    44   22   23 1    
    45   22   24 1    
    46   22   80 1    
    47   23   81 1    
    48   23   82 1    
    49   23   83 1    
    50   24   25 am   BACKBONE|DICT|INTERRES
    51   24   84 1    
    52   25   26 2    
    53   27   28 2    
    54   27   29 am   BACKBONE|DICT|INTERRES
    55   29   30 1    
    56   29   85 1    
    57   30   31 1    
    58   30   32 1    
    59   30   86 1    
    60   31   87 1    
    61   31   88 1    
    62   31   89 1    
    63   32   33 2    
    64   32   34 am   BACKBONE|DICT|INTERRES
    65   34   35 1    
    66   34   90 1    
    67   35   36 1    
    68   35   37 1    
    69   35   91 1    
    70   36   92 1    
    71   36   93 1    
    72   36   94 1    
    73   37   38 2    
    74   37   39 am   BACKBONE|DICT|INTERRES
    75   39   40 1    
    76   39   95 1    
    77   40   41 1    
    78   40   42 1    
    79   40   96 1    
    80   41   97 1    
    81   41   98 1    
    82   41   99 1    
    83   42   43 2    
    84   42   44 am   BACKBONE|DICT|INTERRES
    85   44   45 1    
    86   44  100 1    
    87   45   46 1    
    88   45   47 1    
    89   45  101 1    
    90   46  102 1    
    91   46  103 1    
    92   46  104 1    
    93   47   48 2    
    94   47   49 am   BACKBONE|DICT|INTERRES
    95   49   50 1    
    96   49  105 1    
    97   50   51 1    
    98   50   52 1    
    99   50  106 1    
   100   51  107 1    
   101   51  108 1    
   102   51  109 1    
   103   52   53 2    
   104   52   54 am   BACKBONE|DICT|INTERRES
   105   54   55 1    
   106   54  110 1    
   107   55   56 1    
   108   55   59 1    
   109   55  111 1    
   110   56   57 am   BACKBONE|DICT|INTERRES
   111   56   58 2    
   112   57  112 1    
   113   57  113 1    
   114   59   60 1    
   115   59  114 1    
   116   59  115 1    
   117   60   61 1    
   118   61  116 1    
   119   61  117 1    
@<TRIPOS>SUBSTRUCTURE
     1 UNK         1 GROUP             0       ****    0 ROOT    
