@<TRIPOS>MOLECULE
3R8
117   119    1
SMALL
USER_CHARGES


@<TRIPOS>ATOM
      1 CA         14.8201  -21.4351  -46.5719 C.3       0 UNK        -0.2013 
      2 C          15.5182  -22.7070  -47.0298 C.2       0 UNK         0.4866 
      3 O          16.1892  -22.6992  -48.0627 O.2       0 UNK        -0.5176 
      4 N          15.3599  -23.8017  -46.2751 N.am      1 UNK        -0.4884 
      5 CA         16.0177  -25.0878  -46.5269 C.3       1 UNK         0.0853 
      6 C6         15.2953  -26.2371  -45.7796 C.3       10 UNK        -0.0849 
      7 S7         15.5971  -27.8642  -46.5487 S.3       10 UNK        -0.2776 
      8 C8         14.8649  -28.9862  -45.3174 C.3       10 UNK         0.0316 
      9 C9         15.8222  -29.2916  -44.1731 C.ar      10 UNK        -0.0863 
     10 C10        16.7283  -30.3520  -44.2819 C.ar      10 UNK        -0.1009 
     11 C11        17.5682  -30.6856  -43.2139 C.ar      10 UNK        -0.0712 
     12 C12        17.4922  -29.9456  -42.0307 C.ar      10 UNK        -0.0894 
     13 C13        16.6279  -28.8525  -41.9260 C.ar      10 UNK        -0.0745 
     14 C14        15.7832  -28.5396  -42.9949 C.ar      10 UNK        -0.0972 
     15 C15        16.6154  -28.0065  -40.6594 C.3       10 UNK         0.0209 
     16 S16        18.2567  -27.3048  -40.2784 S.3       10 UNK        -0.2568 
     17 C17        18.6015  -26.2990  -41.7643 C.3       10 UNK        -0.0983 
     18 CA         19.5883  -26.9928  -42.7420 C.3       3 UNK         0.0876 
     19 N          19.5279  -26.3779  -44.0680 N.am      3 UNK        -0.4424 
     20 C          19.9096  -26.9449  -45.2186 C.2       2 UNK         0.4918 
     21 O          20.3535  -28.0913  -45.3018 O.2       2 UNK        -0.4875 
     22 CA         19.7414  -26.0834  -46.4852 C.3       2 UNK         0.0481 
     23 CB         20.4294  -26.7044  -47.7147 C.3       2 UNK        -0.1831 
     24 N          18.3255  -25.8719  -46.7882 N.am      2 UNK        -0.4498 
     25 C          17.5112  -25.0271  -46.1430 C.2       1 UNK         0.5027 
     26 O          17.8902  -24.2680  -45.2449 O.2       1 UNK        -0.4969 
     27 C          21.0460  -27.0354  -42.2327 C.2       3 UNK         0.5005 
     28 O          21.4242  -26.2745  -41.3383 O.2       3 UNK        -0.5279 
     29 N          21.8561  -27.9161  -42.8328 N.am      4 UNK        -0.4463 
     30 CA         23.2671  -28.1482  -42.5200 C.3       4 UNK         0.0283 
     31 CB         23.9326  -28.8209  -43.7346 C.3       4 UNK        -0.1875 
     32 C          23.4312  -28.9754  -41.2326 C.2       4 UNK         0.4949 
     33 O          24.0053  -30.0634  -41.2684 O.2       4 UNK        -0.5039 
     34 N          22.8924  -28.4677  -40.1170 N.am      5 UNK        -0.4663 
     35 CA         22.8149  -29.1443  -38.8151 C.3       5 UNK         0.0242 
     36 CB         21.9769  -28.2843  -37.8563 C.3       5 UNK        -0.1982 
     37 C          24.1776  -29.4894  -38.1869 C.2       5 UNK         0.5017 
     38 O          24.2552  -30.4161  -37.3806 O.2       5 UNK        -0.5012 
     39 N          25.2231  -28.7502  -38.5771 N.am      6 UNK        -0.4439 
     40 CA         26.6145  -28.9912  -38.1927 C.3       6 UNK         0.0297 
     41 CB         27.3775  -27.6565  -38.2561 C.3       6 UNK        -0.2006 
     42 C          27.3155  -30.0548  -39.0630 C.2       6 UNK         0.4892 
     43 O          28.4563  -30.4046  -38.7554 O.2       6 UNK        -0.5089 
     44 N          26.6635  -30.5275  -40.1345 N.am      7 UNK        -0.4243 
     45 CA         27.2233  -31.4538  -41.1134 C.3       7 UNK         0.0196 
     46 CB         27.8378  -30.6545  -42.2831 C.3       7 UNK        -0.2007 
     47 C          26.1471  -32.4679  -41.5274 C.2       7 UNK         0.5020 
     48 O          25.7677  -33.3041  -40.7071 O.2       7 UNK        -0.5147 
     49 N          25.6879  -32.3960  -42.7847 N.am      8 UNK        -0.4734 
     50 CA         24.8031  -33.3658  -43.4421 C.3       8 UNK         0.0238 
     51 CB         24.5907  -32.9399  -44.9043 C.3       8 UNK        -0.1912 
     52 C          23.4458  -33.6134  -42.7590 C.2       8 UNK         0.5038 
     53 O          22.9220  -34.7222  -42.8794 O.2       8 UNK        -0.5046 
     54 N          22.9088  -32.6036  -42.0647 N.am      9 UNK        -0.4200 
     55 CA         21.6654  -32.6972  -41.2823 C.3       9 UNK         0.0839 
     56 C          21.9218  -32.9106  -39.7620 C.2       9 UNK         0.5513 
     57 N          23.1538  -33.1007  -39.3052 N.am      9 UNK        -0.7519 
     58 O          20.9788  -32.9118  -38.9753 O.2       9 UNK        -0.4960 
     59 C59        20.7130  -31.4983  -41.5431 C.3       10 UNK        -0.0876 
     60 S60        20.2824  -31.2971  -43.3080 S.3       10 UNK        -0.2414 
     61 C61        18.5448  -31.8492  -43.3389 C.3       10 UNK         0.0169 
     62 H62        15.5536  -20.6501  -46.3893 H         1 UNK         0.0903 
     63 H63        14.1320  -21.0865  -47.3416 H         1 UNK         0.0903 
     64 H64        14.2524  -21.5885  -45.6543 H         1 UNK         0.0903 
     65 H65        14.8286  -23.7388  -45.4182 H         1 UNK         0.3096 
     66 H66        15.9521  -25.2754  -47.6017 H         1 UNK         0.1121 
     67 H67        15.5776  -26.2591  -44.7257 H         1 UNK         0.0849 
     68 H68        14.2160  -26.0760  -45.7990 H         1 UNK         0.0849 
     69 H69        13.9332  -28.5641  -44.9374 H         1 UNK         0.0865 
     70 H70        14.5878  -29.9162  -45.8164 H         1 UNK         0.0865 
     71 H71        16.7695  -30.9259  -45.1978 H         1 UNK         0.1346 
     72 H72        18.1311  -30.1899  -41.1957 H         1 UNK         0.1412 
     73 H73        15.0915  -27.7130  -42.9082 H         1 UNK         0.1426 
     74 H74        16.2926  -28.6261  -39.8217 H         1 UNK         0.0716 
     75 H75        15.8928  -27.1927  -40.7383 H         1 UNK         0.0716 
     76 H76        17.6540  -26.1027  -42.2691 H         1 UNK         0.0695 
     77 H77        18.9736  -25.3212  -41.4533 H         1 UNK         0.0695 
     78 H78        19.2646  -28.0285  -42.8592 H         1 UNK         0.0983 
     79 H79        19.1431  -25.4408  -44.1160 H         1 UNK         0.3095 
     80 H80        20.2124  -25.1167  -46.2944 H         1 UNK         0.0454 
     81 H81        19.9964  -27.6704  -47.9775 H         1 UNK         0.0851 
     82 H82        20.3504  -26.0531  -48.5852 H         1 UNK         0.0851 
     83 H83        21.4919  -26.8645  -47.5270 H         1 UNK         0.0851 
     84 H84        17.9170  -26.5058  -47.4612 H         1 UNK         0.2976 
     85 H85        21.4636  -28.4627  -43.5935 H         1 UNK         0.3116 
     86 H86        23.7560  -27.1857  -42.3567 H         1 UNK         0.0646 
     87 H87        23.4843  -29.7912  -43.9516 H         1 UNK         0.0847 
     88 H88        24.9966  -28.9821  -43.5597 H         1 UNK         0.0847 
     89 H89        23.8428  -28.2041  -44.6288 H         1 UNK         0.0847 
     90 H90        22.4121  -27.5757  -40.2036 H         1 UNK         0.3040 
     91 H91        22.2914  -30.0894  -38.9668 H         1 UNK         0.1015 
     92 H92        20.9727  -28.1183  -38.2477 H         1 UNK         0.0786 
     93 H93        22.4355  -27.3099  -37.6836 H         1 UNK         0.0786 
     94 H94        21.8685  -28.7719  -36.8863 H         1 UNK         0.0786 
     95 H95        25.0521  -28.0071  -39.2391 H         1 UNK         0.3172 
     96 H96        26.6413  -29.3470  -37.1606 H         1 UNK         0.0595 
     97 H97        26.9226  -26.9071  -37.6080 H         1 UNK         0.0839 
     98 H98        27.4054  -27.2540  -39.2695 H         1 UNK         0.0839 
     99 H99        28.4104  -27.7796  -37.9272 H         1 UNK         0.0839 
    100 H100       25.7009  -30.2489  -40.3026 H         1 UNK         0.2998 
    101 H101       28.0196  -32.0423  -40.6524 H         1 UNK         0.0822 
    102 H102       28.6637  -30.0333  -41.9354 H         1 UNK         0.0787 
    103 H103       28.2427  -31.3174  -43.0491 H         1 UNK         0.0787 
    104 H104       27.1107  -29.9934  -42.7552 H         1 UNK         0.0787 
    105 H105       26.0447  -31.6532  -43.3675 H         1 UNK         0.3055 
    106 H106       25.3290  -34.3230  -43.4416 H         1 UNK         0.1106 
    107 H107       24.0962  -31.9707  -44.9745 H         1 UNK         0.0828 
    108 H108       25.5360  -32.8771  -45.4436 H         1 UNK         0.0828 
    109 H109       23.9666  -33.6609  -45.4345 H         1 UNK         0.0828 
    110 H110       23.4293  -31.7368  -41.9632 H         1 UNK         0.2931 
    111 H111       21.1185  -33.5883  -41.5951 H         1 UNK         0.0412 
    112 H112       23.9520  -33.1285  -39.9312 H         1 UNK         0.3472 
    113 H113       23.2955  -33.2230  -38.3154 H         1 UNK         0.3472 
    114 H114       21.1526  -30.5680  -41.1901 H         1 UNK         0.0970 
    115 H115       19.7993  -31.6260  -40.9629 H         1 UNK         0.0970 
    116 H116       18.3792  -32.3799  -44.2776 H         1 UNK         0.0612 
    117 H117       18.3604  -32.5770  -42.5476 H         1 UNK         0.0612 
@<TRIPOS>BOND
     1    1    2 1    
     2    1   62 1    
     3    1   63 1    
     4    1   64 1    
     5    2    3 2    
     6    2    4 am   BACKBONE|DICT|INTERRES
     7    4    5 1    
     8    4   65 1    
     9    5    6 1    
    10    5   25 1    
    11    5   66 1    
    12    6    7 1    
    13    6   67 1    
    14    6   68 1    
    15    7    8 1    
    16    8    9 1    
    17    8   69 1    
    18    8   70 1    
    19    9   10 ar   
    20    9   14 ar   
    21   10   11 ar   
    22   10   71 1    
    23   11   12 ar   
    24   11   61 1    
    25   12   13 ar   
    26   12   72 1    
    27   13   14 ar   
    28   13   15 1    
    29   14   73 1    
    30   15   16 1    
    31   15   74 1    
    32   15   75 1    
    33   16   17 1    
    34   17   18 1    
    35   17   76 1    
    36   17   77 1    
    37   18   19 1    
    38   18   27 1    
    39   18   78 1    
    40   19   20 am   BACKBONE|DICT|INTERRES
    41   19   79 1    
    42   20   21 2    
    43   20   22 1    
    44   22   23 1    
    45   22   24 1    
    46   22   80 1    
    47   23   81 1    
    48   23   82 1    
    49   23   83 1    
    50   24   25 am   BACKBONE|DICT|INTERRES
    51   24   84 1    
    52   25   26 2    
    53   27   28 2    
    54   27   29 am   BACKBONE|DICT|INTERRES
    55   29   30 1    
    56   29   85 1    
    57   30   31 1    
    58   30   32 1    
    59   30   86 1    
    60   31   87 1    
    61   31   88 1    
    62   31   89 1    
    63   32   33 2    
    64   32   34 am   BACKBONE|DICT|INTERRES
    65   34   35 1    
    66   34   90 1    
    67   35   36 1    
    68   35   37 1    
    69   35   91 1    
    70   36   92 1    
    71   36   93 1    
    72   36   94 1    
    73   37   38 2    
    74   37   39 am   BACKBONE|DICT|INTERRES
    75   39   40 1    
    76   39   95 1    
    77   40   41 1    
    78   40   42 1    
    79   40   96 1    
    80   41   97 1    
    81   41   98 1    
    82   41   99 1    
    83   42   43 2    
    84   42   44 am   BACKBONE|DICT|INTERRES
    85   44   45 1    
    86   44  100 1    
    87   45   46 1    
    88   45   47 1    
    89   45  101 1    
    90   46  102 1    
    91   46  103 1    
    92   46  104 1    
    93   47   48 2    
    94   47   49 am   BACKBONE|DICT|INTERRES
    95   49   50 1    
    96   49  105 1    
    97   50   51 1    
    98   50   52 1    
    99   50  106 1    
   100   51  107 1    
   101   51  108 1    
   102   51  109 1    
   103   52   53 2    
   104   52   54 am   BACKBONE|DICT|INTERRES
   105   54   55 1    
   106   54  110 1    
   107   55   56 1    
   108   55   59 1    
   109   55  111 1    
   110   56   57 am   BACKBONE|DICT|INTERRES
   111   56   58 2    
   112   57  112 1    
   113   57  113 1    
   114   59   60 1    
   115   59  114 1    
   116   59  115 1    
   117   60   61 1    
   118   61  116 1    
   119   61  117 1    
@<TRIPOS>SUBSTRUCTURE
     1 UNK         1 GROUP             0       ****    0 ROOT    
