@<TRIPOS>MOLECULE
3R8
117   119    1
SMALL
USER_CHARGES


@<TRIPOS>ATOM
      1 CA         13.9625  -24.0477  -46.7753 C.3       0 UNK        -0.2013 
      2 C          14.6230  -24.5288  -45.4914 C.2       0 UNK         0.4866 
      3 O          14.4124  -23.9249  -44.4389 O.2       0 UNK        -0.5176 
      4 N          15.4108  -25.6102  -45.5808 N.am      1 UNK        -0.4884 
      5 CA         16.1784  -26.2451  -44.4968 C.3       1 UNK         0.0853 
      6 C6         15.2803  -26.8043  -43.3521 C.3       10 UNK        -0.0849 
      7 S7         14.3962  -28.2987  -43.9065 S.3       10 UNK        -0.2776 
      8 C8         15.2616  -29.6105  -42.9748 C.3       10 UNK         0.0316 
      9 C9         16.7768  -29.6051  -43.1675 C.ar      10 UNK        -0.0863 
     10 C10        17.6228  -29.5770  -42.0534 C.ar      10 UNK        -0.1009 
     11 C11        19.0108  -29.6355  -42.2124 C.ar      10 UNK        -0.0712 
     12 C12        19.5539  -29.6823  -43.4984 C.ar      10 UNK        -0.0894 
     13 C13        18.7234  -29.6872  -44.6217 C.ar      10 UNK        -0.0745 
     14 C14        17.3358  -29.6677  -44.4486 C.ar      10 UNK        -0.0972 
     15 C15        19.3192  -29.7497  -46.0209 C.3       10 UNK         0.0209 
     16 S16        19.8155  -28.1040  -46.6279 S.3       10 UNK        -0.2568 
     17 C17        21.4948  -27.9266  -45.9278 C.3       10 UNK        -0.0983 
     18 CA         21.7058  -26.6046  -45.1411 C.3       3 UNK         0.0876 
     19 N          20.6702  -26.4050  -44.1225 N.am      3 UNK        -0.4424 
     20 C          20.4414  -25.2682  -43.4521 C.2       2 UNK         0.4918 
     21 O          21.0505  -24.2143  -43.6475 O.2       2 UNK        -0.4875 
     22 CA         19.3088  -25.3372  -42.4097 C.3       2 UNK         0.0481 
     23 CB         19.0461  -23.9913  -41.7009 C.3       2 UNK        -0.1831 
     24 N          18.0747  -25.8868  -42.9848 N.am      2 UNK        -0.4498 
     25 C          17.3535  -25.3741  -43.9962 C.2       1 UNK         0.5027 
     26 O          17.6232  -24.3081  -44.5565 O.2       1 UNK        -0.4969 
     27 C          23.1274  -26.5542  -44.5322 C.2       3 UNK         0.5005 
     28 O          23.2811  -26.5543  -43.3079 O.2       3 UNK        -0.5279 
     29 N          24.1497  -26.5543  -45.4033 N.am      4 UNK        -0.4463 
     30 CA         25.5753  -26.5419  -45.0419 C.3       4 UNK         0.0283 
     31 CB         26.4281  -26.4869  -46.3194 C.3       4 UNK        -0.1875 
     32 C          26.0152  -27.7218  -44.1537 C.2       4 UNK         0.4949 
     33 O          26.8979  -27.5495  -43.3124 O.2       4 UNK        -0.5039 
     34 N          25.3584  -28.8799  -44.3074 N.am      5 UNK        -0.4663 
     35 CA         25.4720  -30.0421  -43.4217 C.3       5 UNK         0.0242 
     36 CB         25.0467  -31.3038  -44.1978 C.3       5 UNK        -0.1982 
     37 C          24.6454  -29.8375  -42.1354 C.2       5 UNK         0.5017 
     38 O          23.7346  -30.6189  -41.8585 O.2       5 UNK        -0.5012 
     39 N          24.9520  -28.7682  -41.3903 N.am      6 UNK        -0.4439 
     40 CA         24.2624  -28.3571  -40.1660 C.3       6 UNK         0.0297 
     41 CB         24.8527  -27.0252  -39.6782 C.3       6 UNK        -0.2006 
     42 C          24.3456  -29.4243  -39.0629 C.2       6 UNK         0.4892 
     43 O          25.3811  -30.0802  -38.9258 O.2       6 UNK        -0.5089 
     44 N          23.2445  -29.5848  -38.3160 N.am      7 UNK        -0.4243 
     45 CA         22.9913  -30.5630  -37.2448 C.3       7 UNK         0.0196 
     46 CB         23.9920  -30.4089  -36.0824 C.3       7 UNK        -0.2007 
     47 C          22.9059  -32.0286  -37.7154 C.2       7 UNK         0.5020 
     48 O          22.0714  -32.7711  -37.1979 O.2       7 UNK        -0.5147 
     49 N          23.7455  -32.4234  -38.6804 N.am      8 UNK        -0.4734 
     50 CA         23.7128  -33.7280  -39.3440 C.3       8 UNK         0.0238 
     51 CB         25.0108  -33.9291  -40.1441 C.3       8 UNK        -0.1912 
     52 C          22.4811  -33.8758  -40.2513 C.2       8 UNK         0.5038 
     53 O          21.7972  -34.8978  -40.1831 O.2       8 UNK        -0.5046 
     54 N          22.2240  -32.8424  -41.0641 N.am      9 UNK        -0.4200 
     55 CA         21.0824  -32.7015  -41.9792 C.3       9 UNK         0.0839 
     56 C          21.0333  -33.7469  -43.1340 C.2       9 UNK         0.5513 
     57 N          22.1478  -34.3680  -43.5023 N.am      9 UNK        -0.7519 
     58 O          19.9835  -33.9813  -43.7269 O.2       9 UNK        -0.4960 
     59 C59        19.7263  -32.5414  -41.2344 C.3       10 UNK        -0.0876 
     60 S60        19.7024  -31.1926  -39.9949 S.3       10 UNK        -0.2414 
     61 C61        19.9296  -29.6840  -40.9985 C.3       10 UNK         0.0169 
     62 H62        12.8784  -24.0556  -46.6650 H         1 UNK         0.0903 
     63 H63        14.2202  -24.6749  -47.6285 H         1 UNK         0.0903 
     64 H64        14.2751  -23.0278  -46.9979 H         1 UNK         0.0903 
     65 H65        15.5446  -26.0319  -46.4894 H         1 UNK         0.3096 
     66 H66        16.6792  -27.0875  -44.9740 H         1 UNK         0.1121 
     67 H67        15.8459  -27.0594  -42.4560 H         1 UNK         0.0849 
     68 H68        14.5498  -26.0662  -43.0204 H         1 UNK         0.0849 
     69 H69        15.0065  -29.5097  -41.9186 H         1 UNK         0.0865 
     70 H70        14.8720  -30.5796  -43.2892 H         1 UNK         0.0865 
     71 H71        17.2051  -29.5497  -41.0559 H         1 UNK         0.1346 
     72 H72        20.6259  -29.7367  -43.6206 H         1 UNK         0.1412 
     73 H73        16.6858  -29.6974  -45.3129 H         1 UNK         0.1426 
     74 H74        20.1698  -30.4328  -46.0424 H         1 UNK         0.0716 
     75 H75        18.5877  -30.1652  -46.7157 H         1 UNK         0.0716 
     76 H76        22.1893  -27.9823  -46.7676 H         1 UNK         0.0695 
     77 H77        21.7282  -28.7872  -45.3010 H         1 UNK         0.0695 
     78 H78        21.6280  -25.7721  -45.8439 H         1 UNK         0.0983 
     79 H79        20.1043  -27.2125  -43.9108 H         1 UNK         0.3095 
     80 H80        19.6355  -26.0479  -41.6489 H         1 UNK         0.0454 
     81 H81        18.2573  -24.0831  -40.9546 H         1 UNK         0.0851 
     82 H82        18.7549  -23.2091  -42.4023 H         1 UNK         0.0851 
     83 H83        19.9417  -23.6439  -41.1846 H         1 UNK         0.0851 
     84 H84        17.7933  -26.7842  -42.6145 H         1 UNK         0.2976 
     85 H85        23.9420  -26.5519  -46.3921 H         1 UNK         0.3116 
     86 H86        25.7557  -25.6272  -44.4732 H         1 UNK         0.0646 
     87 H87        26.2055  -25.5979  -46.9098 H         1 UNK         0.0847 
     88 H88        27.4914  -26.4524  -46.0770 H         1 UNK         0.0847 
     89 H89        26.2677  -27.3611  -46.9517 H         1 UNK         0.0847 
     90 H90        24.6314  -28.9180  -45.0062 H         1 UNK         0.3040 
     91 H91        26.5152  -30.1667  -43.1223 H         1 UNK         0.1015 
     92 H92        25.1525  -32.1962  -43.5793 H         1 UNK         0.0786 
     93 H93        25.6639  -31.4515  -45.0841 H         1 UNK         0.0786 
     94 H94        24.0052  -31.2515  -44.5180 H         1 UNK         0.0786 
     95 H95        25.7089  -28.1775  -41.7148 H         1 UNK         0.3172 
     96 H96        23.2134  -28.1976  -40.4245 H         1 UNK         0.0595 
     97 H97        25.9119  -27.1194  -39.4347 H         1 UNK         0.0839 
     98 H98        24.3413  -26.6746  -38.7807 H         1 UNK         0.0839 
     99 H99        24.7486  -26.2465  -40.4345 H         1 UNK         0.0839 
    100 H100       22.4501  -29.0011  -38.5391 H         1 UNK         0.2998 
    101 H101       22.0029  -30.3118  -36.8557 H         1 UNK         0.0822 
    102 H102       24.0099  -29.3858  -35.7070 H         1 UNK         0.0787 
    103 H103       23.7181  -31.0559  -35.2480 H         1 UNK         0.0787 
    104 H104       25.0071  -30.6769  -36.3765 H         1 UNK         0.0787 
    105 H105       24.4251  -31.7431  -39.0097 H         1 UNK         0.3055 
    106 H106       23.6563  -34.5029  -38.5761 H         1 UNK         0.1106 
    107 H107       25.8839  -33.9071  -39.4918 H         1 UNK         0.0828 
    108 H108       25.0109  -34.8948  -40.6515 H         1 UNK         0.0828 
    109 H109       25.1436  -33.1587  -40.9050 H         1 UNK         0.0828 
    110 H110       22.8704  -32.0576  -41.0860 H         1 UNK         0.2931 
    111 H111       21.2699  -31.7634  -42.4986 H         1 UNK         0.0412 
    112 H112       22.1153  -35.0373  -44.2551 H         1 UNK         0.3472 
    113 H113       23.0168  -34.1770  -43.0308 H         1 UNK         0.3472 
    114 H114       18.9158  -32.3653  -41.9436 H         1 UNK         0.0970 
    115 H115       19.4708  -33.4712  -40.7241 H         1 UNK         0.0970 
    116 H116       20.9768  -29.6207  -41.2996 H         1 UNK         0.0612 
    117 H117       19.7403  -28.8122  -40.3712 H         1 UNK         0.0612 
@<TRIPOS>BOND
     1    1    2 1    
     2    1   62 1    
     3    1   63 1    
     4    1   64 1    
     5    2    3 2    
     6    2    4 am   BACKBONE|DICT|INTERRES
     7    4    5 1    
     8    4   65 1    
     9    5    6 1    
    10    5   25 1    
    11    5   66 1    
    12    6    7 1    
    13    6   67 1    
    14    6   68 1    
    15    7    8 1    
    16    8    9 1    
    17    8   69 1    
    18    8   70 1    
    19    9   10 ar   
    20    9   14 ar   
    21   10   11 ar   
    22   10   71 1    
    23   11   12 ar   
    24   11   61 1    
    25   12   13 ar   
    26   12   72 1    
    27   13   14 ar   
    28   13   15 1    
    29   14   73 1    
    30   15   16 1    
    31   15   74 1    
    32   15   75 1    
    33   16   17 1    
    34   17   18 1    
    35   17   76 1    
    36   17   77 1    
    37   18   19 1    
    38   18   27 1    
    39   18   78 1    
    40   19   20 am   BACKBONE|DICT|INTERRES
    41   19   79 1    
    42   20   21 2    
    43   20   22 1    
    44   22   23 1    
    45   22   24 1    
    46   22   80 1    
    47   23   81 1    
    48   23   82 1    
    49   23   83 1    
    50   24   25 am   BACKBONE|DICT|INTERRES
    51   24   84 1    
    52   25   26 2    
    53   27   28 2    
    54   27   29 am   BACKBONE|DICT|INTERRES
    55   29   30 1    
    56   29   85 1    
    57   30   31 1    
    58   30   32 1    
    59   30   86 1    
    60   31   87 1    
    61   31   88 1    
    62   31   89 1    
    63   32   33 2    
    64   32   34 am   BACKBONE|DICT|INTERRES
    65   34   35 1    
    66   34   90 1    
    67   35   36 1    
    68   35   37 1    
    69   35   91 1    
    70   36   92 1    
    71   36   93 1    
    72   36   94 1    
    73   37   38 2    
    74   37   39 am   BACKBONE|DICT|INTERRES
    75   39   40 1    
    76   39   95 1    
    77   40   41 1    
    78   40   42 1    
    79   40   96 1    
    80   41   97 1    
    81   41   98 1    
    82   41   99 1    
    83   42   43 2    
    84   42   44 am   BACKBONE|DICT|INTERRES
    85   44   45 1    
    86   44  100 1    
    87   45   46 1    
    88   45   47 1    
    89   45  101 1    
    90   46  102 1    
    91   46  103 1    
    92   46  104 1    
    93   47   48 2    
    94   47   49 am   BACKBONE|DICT|INTERRES
    95   49   50 1    
    96   49  105 1    
    97   50   51 1    
    98   50   52 1    
    99   50  106 1    
   100   51  107 1    
   101   51  108 1    
   102   51  109 1    
   103   52   53 2    
   104   52   54 am   BACKBONE|DICT|INTERRES
   105   54   55 1    
   106   54  110 1    
   107   55   56 1    
   108   55   59 1    
   109   55  111 1    
   110   56   57 am   BACKBONE|DICT|INTERRES
   111   56   58 2    
   112   57  112 1    
   113   57  113 1    
   114   59   60 1    
   115   59  114 1    
   116   59  115 1    
   117   60   61 1    
   118   61  116 1    
   119   61  117 1    
@<TRIPOS>SUBSTRUCTURE
     1 UNK         1 GROUP             0       ****    0 ROOT    
