@<TRIPOS>MOLECULE
3R8
117   119    1
SMALL
USER_CHARGES


@<TRIPOS>ATOM
      1 CA         14.9057  -27.4242  -38.7890 C.3       0 UNK        -0.2013 
      2 C          15.6050  -26.8745  -40.0234 C.2       0 UNK         0.4866 
      3 O          16.1495  -25.7709  -39.9780 O.2       0 UNK        -0.5176 
      4 N          15.5878  -27.6319  -41.1277 N.am      1 UNK        -0.4884 
      5 CA         16.2871  -27.3043  -42.3742 C.3       1 UNK         0.0853 
      6 C6         15.7121  -28.1234  -43.5545 C.3       10 UNK        -0.0849 
      7 S7         16.1947  -27.4469  -45.1813 S.3       10 UNK        -0.2776 
      8 C8         16.4946  -28.9568  -46.1582 C.3       10 UNK         0.0316 
      9 C9         17.5974  -29.8274  -45.5706 C.ar      10 UNK        -0.0863 
     10 C10        17.2899  -31.0753  -45.0220 C.ar      10 UNK        -0.1009 
     11 C11        18.2894  -31.8782  -44.4669 C.ar      10 UNK        -0.0712 
     12 C12        19.6135  -31.4182  -44.4740 C.ar      10 UNK        -0.0894 
     13 C13        19.9449  -30.1862  -45.0466 C.ar      10 UNK        -0.0745 
     14 C14        18.9236  -29.3886  -45.5786 C.ar      10 UNK        -0.0972 
     15 C15        21.4013  -29.7241  -45.0403 C.3       10 UNK         0.0209 
     16 S16        21.8667  -28.7639  -46.5251 S.3       10 UNK        -0.2568 
     17 C17        23.2710  -27.7766  -45.9104 C.3       10 UNK        -0.0983 
     18 CA         22.8322  -26.3810  -45.3836 C.3       3 UNK         0.0876 
     19 N          21.9839  -26.5193  -44.1986 N.am      3 UNK        -0.4424 
     20 C          20.6942  -26.1931  -44.0913 C.2       2 UNK         0.4918 
     21 O          20.0351  -25.6104  -44.9547 O.2       2 UNK        -0.4875 
     22 CA         20.0505  -26.6086  -42.7676 C.3       2 UNK         0.0481 
     23 CB         20.4659  -25.6730  -41.6168 C.3       2 UNK        -0.1831 
     24 N          18.5975  -26.6411  -42.8722 N.am      2 UNK        -0.4498 
     25 C          17.8117  -27.4920  -42.2018 C.2       1 UNK         0.5027 
     26 O          18.2434  -28.3860  -41.4645 O.2       1 UNK        -0.4969 
     27 C          24.0526  -25.4903  -45.0604 C.2       3 UNK         0.5005 
     28 O          25.0487  -25.5388  -45.7846 O.2       3 UNK        -0.5279 
     29 N          23.9839  -24.7253  -43.9571 N.am      4 UNK        -0.4463 
     30 CA         25.0124  -23.8646  -43.3496 C.3       4 UNK         0.0283 
     31 CB         25.4851  -22.7589  -44.3137 C.3       4 UNK        -0.1875 
     32 C          26.2033  -24.6413  -42.7588 C.2       4 UNK         0.4949 
     33 O          26.5726  -24.3993  -41.6101 O.2       4 UNK        -0.5039 
     34 N          26.7604  -25.5785  -43.5338 N.am      5 UNK        -0.4663 
     35 CA         27.8204  -26.5026  -43.1214 C.3       5 UNK         0.0242 
     36 CB         28.5086  -27.0568  -44.3795 C.3       5 UNK        -0.1982 
     37 C          27.3090  -27.6562  -42.2373 C.2       5 UNK         0.5017 
     38 O          28.1171  -28.3055  -41.5722 O.2       5 UNK        -0.5012 
     39 N          25.9932  -27.8969  -42.2485 N.am      6 UNK        -0.4439 
     40 CA         25.2937  -28.9133  -41.4715 C.3       6 UNK         0.0297 
     41 CB         25.3430  -30.2623  -42.2115 C.3       6 UNK        -0.2006 
     42 C          23.8457  -28.4568  -41.2700 C.2       6 UNK         0.4892 
     43 O          23.3418  -27.6643  -42.0725 O.2       6 UNK        -0.5089 
     44 N          23.2023  -28.9870  -40.2264 N.am      7 UNK        -0.4243 
     45 CA         21.7903  -28.7880  -39.9160 C.3       7 UNK         0.0196 
     46 CB         21.6453  -27.8233  -38.7277 C.3       7 UNK        -0.2007 
     47 C          21.1684  -30.1516  -39.6071 C.2       7 UNK         0.5020 
     48 O          21.7985  -30.9495  -38.9077 O.2       7 UNK        -0.5147 
     49 N          19.9510  -30.3778  -40.1215 N.am      8 UNK        -0.4734 
     50 CA         19.1643  -31.6172  -40.0468 C.3       8 UNK         0.0238 
     51 CB         18.7754  -31.9190  -38.5818 C.3       8 UNK        -0.1912 
     52 C          19.8291  -32.8293  -40.7403 C.2       8 UNK         0.5038 
     53 O          20.9050  -32.7077  -41.3312 O.2       8 UNK        -0.5046 
     54 N          19.1391  -33.9749  -40.6841 N.am      9 UNK        -0.4200 
     55 CA         19.5470  -35.2639  -41.2719 C.3       9 UNK         0.0839 
     56 C          19.5078  -36.4274  -40.2374 C.2       9 UNK         0.5513 
     57 N          19.3604  -36.1658  -38.9432 N.am      9 UNK        -0.7519 
     58 O          19.6315  -37.5923  -40.6073 O.2       9 UNK        -0.4960 
     59 C59        18.7348  -35.5906  -42.5597 C.3       10 UNK        -0.0876 
     60 S60        19.1718  -34.5046  -43.9585 S.3       10 UNK        -0.2414 
     61 C61        17.8973  -33.2063  -43.8219 C.3       10 UNK         0.0169 
     62 H62        15.6187  -27.5326  -37.9721 H         1 UNK         0.0903 
     63 H63        14.4532  -28.3980  -38.9753 H         1 UNK         0.0903 
     64 H64        14.1198  -26.7413  -38.4674 H         1 UNK         0.0903 
     65 H65        15.1545  -28.5436  -41.0945 H         1 UNK         0.3096 
     66 H66        16.1011  -26.2463  -42.5753 H         1 UNK         0.1121 
     67 H67        14.6214  -28.1078  -43.5199 H         1 UNK         0.0849 
     68 H68        15.9952  -29.1724  -43.4634 H         1 UNK         0.0849 
     69 H69        15.5610  -29.5152  -46.2437 H         1 UNK         0.0865 
     70 H70        16.7700  -28.6704  -47.1743 H         1 UNK         0.0865 
     71 H71        16.2633  -31.4161  -45.0103 H         1 UNK         0.1346 
     72 H72        20.3937  -32.0181  -44.0257 H         1 UNK         0.1412 
     73 H73        19.1534  -28.4175  -45.9957 H         1 UNK         0.1426 
     74 H74        22.0708  -30.5831  -44.9735 H         1 UNK         0.0716 
     75 H75        21.5690  -29.1409  -44.1365 H         1 UNK         0.0716 
     76 H76        23.8043  -28.3374  -45.1400 H         1 UNK         0.0695 
     77 H77        23.9654  -27.6736  -46.7463 H         1 UNK         0.0695 
     78 H78        22.2847  -25.8663  -46.1761 H         1 UNK         0.0983 
     79 H79        22.4347  -26.9751  -43.4028 H         1 UNK         0.3095 
     80 H80        20.4022  -27.6206  -42.5719 H         1 UNK         0.0454 
     81 H81        20.1502  -24.6457  -41.8018 H         1 UNK         0.0851 
     82 H82        20.0266  -25.9896  -40.6708 H         1 UNK         0.0851 
     83 H83        21.5474  -25.6645  -41.4787 H         1 UNK         0.0851 
     84 H84        18.1966  -25.9941  -43.5396 H         1 UNK         0.2976 
     85 H85        23.1219  -24.7824  -43.4331 H         1 UNK         0.3116 
     86 H86        24.5181  -23.3703  -42.5115 H         1 UNK         0.0646 
     87 H87        26.1632  -22.0697  -43.8089 H         1 UNK         0.0847 
     88 H88        24.6456  -22.1720  -44.6859 H         1 UNK         0.0847 
     89 H89        26.0198  -23.1618  -45.1742 H         1 UNK         0.0847 
     90 H90        26.3767  -25.6915  -44.4702 H         1 UNK         0.3040 
     91 H91        28.5596  -25.9484  -42.5383 H         1 UNK         0.1015 
     92 H92        28.9363  -26.2557  -44.9828 H         1 UNK         0.0786 
     93 H93        27.8123  -27.6148  -45.0072 H         1 UNK         0.0786 
     94 H94        29.3237  -27.7320  -44.1151 H         1 UNK         0.0786 
     95 H95        25.3852  -27.2807  -42.7715 H         1 UNK         0.3172 
     96 H96        25.7669  -29.0100  -40.4919 H         1 UNK         0.0595 
     97 H97        24.8162  -31.0376  -41.6536 H         1 UNK         0.0839 
     98 H98        26.3692  -30.6041  -42.3474 H         1 UNK         0.0839 
     99 H99        24.8791  -30.1971  -43.1968 H         1 UNK         0.0839 
    100 H100       23.6646  -29.6840  -39.6568 H         1 UNK         0.2998 
    101 H101       21.2745  -28.3662  -40.7739 H         1 UNK         0.0822 
    102 H102       22.1336  -28.2099  -37.8323 H         1 UNK         0.0787 
    103 H103       22.0813  -26.8501  -38.9541 H         1 UNK         0.0787 
    104 H104       20.5943  -27.6609  -38.4850 H         1 UNK         0.0787 
    105 H105       19.5109  -29.6380  -40.6652 H         1 UNK         0.3055 
    106 H106       18.2484  -31.4116  -40.6040 H         1 UNK         0.1106 
    107 H107       19.6320  -32.2517  -37.9945 H         1 UNK         0.0828 
    108 H108       18.3619  -31.0360  -38.0941 H         1 UNK         0.0828 
    109 H109       18.0149  -32.6973  -38.5187 H         1 UNK         0.0828 
    110 H110       18.2611  -33.9928  -40.1861 H         1 UNK         0.2931 
    111 H111       20.5999  -35.2067  -41.5539 H         1 UNK         0.0412 
    112 H112       19.3158  -35.2180  -38.6062 H         1 UNK         0.3472 
    113 H113       19.3435  -36.9324  -38.2883 H         1 UNK         0.3472 
    114 H114       17.6615  -35.5449  -42.3675 H         1 UNK         0.0970 
    115 H115       18.9332  -36.6104  -42.8945 H         1 UNK         0.0970 
    116 H116       17.6671  -33.0151  -42.7749 H         1 UNK         0.0612 
    117 H117       16.9803  -33.5896  -44.2721 H         1 UNK         0.0612 
@<TRIPOS>BOND
     1    1    2 1    
     2    1   62 1    
     3    1   63 1    
     4    1   64 1    
     5    2    3 2    
     6    2    4 am   BACKBONE|DICT|INTERRES
     7    4    5 1    
     8    4   65 1    
     9    5    6 1    
    10    5   25 1    
    11    5   66 1    
    12    6    7 1    
    13    6   67 1    
    14    6   68 1    
    15    7    8 1    
    16    8    9 1    
    17    8   69 1    
    18    8   70 1    
    19    9   10 ar   
    20    9   14 ar   
    21   10   11 ar   
    22   10   71 1    
    23   11   12 ar   
    24   11   61 1    
    25   12   13 ar   
    26   12   72 1    
    27   13   14 ar   
    28   13   15 1    
    29   14   73 1    
    30   15   16 1    
    31   15   74 1    
    32   15   75 1    
    33   16   17 1    
    34   17   18 1    
    35   17   76 1    
    36   17   77 1    
    37   18   19 1    
    38   18   27 1    
    39   18   78 1    
    40   19   20 am   BACKBONE|DICT|INTERRES
    41   19   79 1    
    42   20   21 2    
    43   20   22 1    
    44   22   23 1    
    45   22   24 1    
    46   22   80 1    
    47   23   81 1    
    48   23   82 1    
    49   23   83 1    
    50   24   25 am   BACKBONE|DICT|INTERRES
    51   24   84 1    
    52   25   26 2    
    53   27   28 2    
    54   27   29 am   BACKBONE|DICT|INTERRES
    55   29   30 1    
    56   29   85 1    
    57   30   31 1    
    58   30   32 1    
    59   30   86 1    
    60   31   87 1    
    61   31   88 1    
    62   31   89 1    
    63   32   33 2    
    64   32   34 am   BACKBONE|DICT|INTERRES
    65   34   35 1    
    66   34   90 1    
    67   35   36 1    
    68   35   37 1    
    69   35   91 1    
    70   36   92 1    
    71   36   93 1    
    72   36   94 1    
    73   37   38 2    
    74   37   39 am   BACKBONE|DICT|INTERRES
    75   39   40 1    
    76   39   95 1    
    77   40   41 1    
    78   40   42 1    
    79   40   96 1    
    80   41   97 1    
    81   41   98 1    
    82   41   99 1    
    83   42   43 2    
    84   42   44 am   BACKBONE|DICT|INTERRES
    85   44   45 1    
    86   44  100 1    
    87   45   46 1    
    88   45   47 1    
    89   45  101 1    
    90   46  102 1    
    91   46  103 1    
    92   46  104 1    
    93   47   48 2    
    94   47   49 am   BACKBONE|DICT|INTERRES
    95   49   50 1    
    96   49  105 1    
    97   50   51 1    
    98   50   52 1    
    99   50  106 1    
   100   51  107 1    
   101   51  108 1    
   102   51  109 1    
   103   52   53 2    
   104   52   54 am   BACKBONE|DICT|INTERRES
   105   54   55 1    
   106   54  110 1    
   107   55   56 1    
   108   55   59 1    
   109   55  111 1    
   110   56   57 am   BACKBONE|DICT|INTERRES
   111   56   58 2    
   112   57  112 1    
   113   57  113 1    
   114   59   60 1    
   115   59  114 1    
   116   59  115 1    
   117   60   61 1    
   118   61  116 1    
   119   61  117 1    
@<TRIPOS>SUBSTRUCTURE
     1 UNK         1 GROUP             0       ****    0 ROOT    
