@<TRIPOS>MOLECULE
3R8
117   119    1
SMALL
USER_CHARGES


@<TRIPOS>ATOM
      1 CA         21.8782  -27.0312  -49.8691 C.3       0 UNK        -0.2013 
      2 C          21.9371  -27.0195  -48.3488 C.2       0 UNK         0.4866 
      3 O          22.9878  -26.7225  -47.7792 O.2       0 UNK        -0.5176 
      4 N          20.8206  -27.3494  -47.6887 N.am      1 UNK        -0.4884 
      5 CA         20.6844  -27.3531  -46.2288 C.3       1 UNK         0.0853 
      6 C6         19.3829  -28.0581  -45.7678 C.3       10 UNK        -0.0849 
      7 S7         19.2762  -29.7949  -46.2862 S.3       10 UNK        -0.2776 
      8 C8         17.6271  -30.2280  -45.6437 C.3       10 UNK         0.0316 
      9 C9         17.6043  -30.3466  -44.1241 C.ar      10 UNK        -0.0863 
     10 C10        18.2962  -31.3883  -43.5018 C.ar      10 UNK        -0.1009 
     11 C11        18.2345  -31.5583  -42.1162 C.ar      10 UNK        -0.0712 
     12 C12        17.4708  -30.6738  -41.3493 C.ar      10 UNK        -0.0894 
     13 C13        16.7842  -29.6152  -41.9544 C.ar      10 UNK        -0.0745 
     14 C14        16.8595  -29.4539  -43.3436 C.ar      10 UNK        -0.0972 
     15 C15        15.9214  -28.6801  -41.1112 C.3       10 UNK         0.0209 
     16 S16        16.8527  -27.8447  -39.7811 S.3       10 UNK        -0.2568 
     17 C17        17.8344  -26.6235  -40.7119 C.3       10 UNK        -0.0983 
     18 CA         19.2567  -27.1453  -41.0455 C.3       3 UNK         0.0876 
     19 N          19.8566  -26.4147  -42.1607 N.am      3 UNK        -0.4424 
     20 C          20.3740  -25.1757  -42.1693 C.2       2 UNK         0.4918 
     21 O          20.4616  -24.4582  -41.1721 O.2       2 UNK        -0.4875 
     22 CA         20.8859  -24.6634  -43.5297 C.3       2 UNK         0.0481 
     23 CB         22.1221  -23.7571  -43.4101 C.3       2 UNK        -0.1831 
     24 N          21.1637  -25.7933  -44.4205 N.am      2 UNK        -0.4498 
     25 C          20.6798  -25.9220  -45.6595 C.2       1 UNK         0.5027 
     26 O          20.1482  -25.0068  -46.2943 O.2       1 UNK        -0.4969 
     27 C          20.2329  -27.2432  -39.8561 C.2       3 UNK         0.5005 
     28 O          21.1887  -28.0123  -39.9376 O.2       3 UNK        -0.5279 
     29 N          20.0236  -26.4458  -38.8005 N.am      4 UNK        -0.4463 
     30 CA         20.9011  -26.3716  -37.6289 C.3       4 UNK         0.0283 
     31 CB         20.2512  -25.4705  -36.5668 C.3       4 UNK        -0.1875 
     32 C          22.3309  -25.8867  -37.9411 C.2       4 UNK         0.4949 
     33 O          23.2554  -26.2579  -37.2175 O.2       4 UNK        -0.5039 
     34 N          22.4930  -25.0731  -38.9950 N.am      5 UNK        -0.4663 
     35 CA         23.7849  -24.5199  -39.4110 C.3       5 UNK         0.0242 
     36 CB         23.5717  -23.0864  -39.9240 C.3       5 UNK        -0.1982 
     37 C          24.5185  -25.3804  -40.4571 C.2       5 UNK         0.5017 
     38 O          25.7230  -25.1909  -40.6294 O.2       5 UNK        -0.5012 
     39 N          23.8126  -26.2998  -41.1304 N.am      6 UNK        -0.4439 
     40 CA         24.3563  -27.2204  -42.1310 C.3       6 UNK         0.0297 
     41 CB         24.7681  -26.4938  -43.4298 C.3       6 UNK        -0.2006 
     42 C          23.3029  -28.2969  -42.3998 C.2       6 UNK         0.4892 
     43 O          22.3644  -28.0544  -43.1647 O.2       6 UNK        -0.5089 
     44 N          23.4569  -29.4389  -41.7240 N.am      7 UNK        -0.4243 
     45 CA         22.5443  -30.5745  -41.7839 C.3       7 UNK         0.0196 
     46 CB         22.5057  -31.2462  -40.3980 C.3       7 UNK        -0.2007 
     47 C          23.0219  -31.5670  -42.8497 C.2       7 UNK         0.5020 
     48 O          24.1143  -32.1204  -42.7132 O.2       7 UNK        -0.5147 
     49 N          22.1855  -31.8161  -43.8650 N.am      8 UNK        -0.4734 
     50 CA         22.4226  -32.8462  -44.8876 C.3       8 UNK         0.0238 
     51 CB         21.6190  -32.4980  -46.1504 C.3       8 UNK        -0.1912 
     52 C          22.0786  -34.2716  -44.4086 C.2       8 UNK         0.5038 
     53 O          22.3960  -35.2348  -45.1069 O.2       8 UNK        -0.5046 
     54 N          21.4242  -34.3765  -43.2451 N.am      9 UNK        -0.4200 
     55 CA         20.9648  -35.6200  -42.6070 C.3       9 UNK         0.0839 
     56 C          22.1007  -36.5440  -42.0777 C.2       9 UNK         0.5513 
     57 N          23.3409  -36.0825  -41.9674 N.am      9 UNK        -0.7519 
     58 O          21.8477  -37.7034  -41.7609 O.2       9 UNK        -0.4960 
     59 C59        19.9284  -35.3349  -41.4840 C.3       10 UNK        -0.0876 
     60 S60        18.5115  -34.3267  -42.0456 S.3       10 UNK        -0.2414 
     61 C61        19.0165  -32.6803  -41.4522 C.3       10 UNK         0.0169 
     62 H62        22.6121  -27.7311  -50.2677 H         1 UNK         0.0903 
     63 H63        20.8952  -27.3248  -50.2372 H         1 UNK         0.0903 
     64 H64        22.1046  -26.0398  -50.2607 H         1 UNK         0.0903 
     65 H65        19.9837  -27.5819  -48.2040 H         1 UNK         0.3096 
     66 H66        21.5414  -27.8900  -45.8140 H         1 UNK         0.1121 
     67 H67        19.3032  -28.0441  -44.6795 H         1 UNK         0.0849 
     68 H68        18.5044  -27.5310  -46.1471 H         1 UNK         0.0849 
     69 H69        16.8963  -29.4962  -45.9914 H         1 UNK         0.0865 
     70 H70        17.3250  -31.1833  -46.0753 H         1 UNK         0.0865 
     71 H71        18.8710  -32.0806  -44.1015 H         1 UNK         0.1346 
     72 H72        17.4115  -30.8034  -40.2771 H         1 UNK         0.1412 
     73 H73        16.3155  -28.6499  -43.8207 H         1 UNK         0.1426 
     74 H74        15.1227  -29.2672  -40.6559 H         1 UNK         0.0716 
     75 H75        15.4286  -27.9307  -41.7325 H         1 UNK         0.0716 
     76 H76        17.8626  -25.6806  -40.1641 H         1 UNK         0.0695 
     77 H77        17.2994  -26.3989  -41.6361 H         1 UNK         0.0695 
     78 H78        19.1536  -28.1674  -41.4133 H         1 UNK         0.0983 
     79 H79        19.8905  -26.9297  -43.0258 H         1 UNK         0.3095 
     80 H80        20.0725  -24.0619  -43.9402 H         1 UNK         0.0454 
     81 H81        22.5074  -23.4795  -44.3911 H         1 UNK         0.0851 
     82 H82        22.9275  -24.2345  -42.8557 H         1 UNK         0.0851 
     83 H83        21.8717  -22.8314  -42.8913 H         1 UNK         0.0851 
     84 H84        21.6250  -26.5949  -43.9885 H         1 UNK         0.2976 
     85 H85        19.2294  -25.8224  -38.8190 H         1 UNK         0.3116 
     86 H86        20.9835  -27.3794  -37.2164 H         1 UNK         0.0646 
     87 H87        20.1189  -24.4501  -36.9286 H         1 UNK         0.0847 
     88 H88        20.8681  -25.4194  -35.6684 H         1 UNK         0.0847 
     89 H89        19.2752  -25.8508  -36.2648 H         1 UNK         0.0847 
     90 H90        21.6823  -24.8173  -39.5508 H         1 UNK         0.3040 
     91 H91        24.4488  -24.4571  -38.5454 H         1 UNK         0.1015 
     92 H92        22.8409  -23.0475  -40.7294 H         1 UNK         0.0786 
     93 H93        24.5014  -22.6576  -40.3009 H         1 UNK         0.0786 
     94 H94        23.2170  -22.4341  -39.1259 H         1 UNK         0.0786 
     95 H95        22.8467  -26.4582  -40.8705 H         1 UNK         0.3172 
     96 H96        25.2452  -27.6967  -41.7116 H         1 UNK         0.0595 
     97 H97        23.9257  -26.0107  -43.9210 H         1 UNK         0.0839 
     98 H98        25.1881  -27.2010  -44.1460 H         1 UNK         0.0839 
     99 H99        25.5292  -25.7354  -43.2490 H         1 UNK         0.0839 
    100 H100       24.2707  -29.5543  -41.1376 H         1 UNK         0.2998 
    101 H101       21.5355  -30.2299  -42.0252 H         1 UNK         0.0822 
    102 H102       21.9060  -32.1554  -40.4041 H         1 UNK         0.0787 
    103 H103       23.5029  -31.5267  -40.0564 H         1 UNK         0.0787 
    104 H104       22.0749  -30.5797  -39.6506 H         1 UNK         0.0787 
    105 H105       21.3276  -31.2870  -43.9411 H         1 UNK         0.3055 
    106 H106       23.4831  -32.8440  -45.1507 H         1 UNK         0.1106 
    107 H107       20.5446  -32.5291  -45.9673 H         1 UNK         0.0828 
    108 H108       21.8713  -31.5045  -46.5216 H         1 UNK         0.0828 
    109 H109       21.8299  -33.2039  -46.9549 H         1 UNK         0.0828 
    110 H110       21.2118  -33.5251  -42.7528 H         1 UNK         0.2931 
    111 H111       20.4528  -36.1929  -43.3827 H         1 UNK         0.0412 
    112 H112       24.0663  -36.6932  -41.6252 H         1 UNK         0.3472 
    113 H113       23.5613  -35.1342  -42.2287 H         1 UNK         0.3472 
    114 H114       20.4067  -34.8494  -40.6310 H         1 UNK         0.0970 
    115 H115       19.5247  -36.2743  -41.1010 H         1 UNK         0.0970 
    116 H116       20.0700  -32.5244  -41.6713 H         1 UNK         0.0612 
    117 H117       18.9134  -32.6451  -40.3664 H         1 UNK         0.0612 
@<TRIPOS>BOND
     1    1    2 1    
     2    1   62 1    
     3    1   63 1    
     4    1   64 1    
     5    2    3 2    
     6    2    4 am   BACKBONE|DICT|INTERRES
     7    4    5 1    
     8    4   65 1    
     9    5    6 1    
    10    5   25 1    
    11    5   66 1    
    12    6    7 1    
    13    6   67 1    
    14    6   68 1    
    15    7    8 1    
    16    8    9 1    
    17    8   69 1    
    18    8   70 1    
    19    9   10 ar   
    20    9   14 ar   
    21   10   11 ar   
    22   10   71 1    
    23   11   12 ar   
    24   11   61 1    
    25   12   13 ar   
    26   12   72 1    
    27   13   14 ar   
    28   13   15 1    
    29   14   73 1    
    30   15   16 1    
    31   15   74 1    
    32   15   75 1    
    33   16   17 1    
    34   17   18 1    
    35   17   76 1    
    36   17   77 1    
    37   18   19 1    
    38   18   27 1    
    39   18   78 1    
    40   19   20 am   BACKBONE|DICT|INTERRES
    41   19   79 1    
    42   20   21 2    
    43   20   22 1    
    44   22   23 1    
    45   22   24 1    
    46   22   80 1    
    47   23   81 1    
    48   23   82 1    
    49   23   83 1    
    50   24   25 am   BACKBONE|DICT|INTERRES
    51   24   84 1    
    52   25   26 2    
    53   27   28 2    
    54   27   29 am   BACKBONE|DICT|INTERRES
    55   29   30 1    
    56   29   85 1    
    57   30   31 1    
    58   30   32 1    
    59   30   86 1    
    60   31   87 1    
    61   31   88 1    
    62   31   89 1    
    63   32   33 2    
    64   32   34 am   BACKBONE|DICT|INTERRES
    65   34   35 1    
    66   34   90 1    
    67   35   36 1    
    68   35   37 1    
    69   35   91 1    
    70   36   92 1    
    71   36   93 1    
    72   36   94 1    
    73   37   38 2    
    74   37   39 am   BACKBONE|DICT|INTERRES
    75   39   40 1    
    76   39   95 1    
    77   40   41 1    
    78   40   42 1    
    79   40   96 1    
    80   41   97 1    
    81   41   98 1    
    82   41   99 1    
    83   42   43 2    
    84   42   44 am   BACKBONE|DICT|INTERRES
    85   44   45 1    
    86   44  100 1    
    87   45   46 1    
    88   45   47 1    
    89   45  101 1    
    90   46  102 1    
    91   46  103 1    
    92   46  104 1    
    93   47   48 2    
    94   47   49 am   BACKBONE|DICT|INTERRES
    95   49   50 1    
    96   49  105 1    
    97   50   51 1    
    98   50   52 1    
    99   50  106 1    
   100   51  107 1    
   101   51  108 1    
   102   51  109 1    
   103   52   53 2    
   104   52   54 am   BACKBONE|DICT|INTERRES
   105   54   55 1    
   106   54  110 1    
   107   55   56 1    
   108   55   59 1    
   109   55  111 1    
   110   56   57 am   BACKBONE|DICT|INTERRES
   111   56   58 2    
   112   57  112 1    
   113   57  113 1    
   114   59   60 1    
   115   59  114 1    
   116   59  115 1    
   117   60   61 1    
   118   61  116 1    
   119   61  117 1    
@<TRIPOS>SUBSTRUCTURE
     1 UNK         1 GROUP             0       ****    0 ROOT    
