@<TRIPOS>MOLECULE
3R8
117   119    1
SMALL
USER_CHARGES


@<TRIPOS>ATOM
      1 CA         14.1395  -27.6921  -41.8891 C.3       0 UNK        -0.2013 
      2 C          15.3956  -27.2367  -42.6159 C.2       0 UNK         0.4866 
      3 O          16.4947  -27.6515  -42.2483 O.2       0 UNK        -0.5176 
      4 N          15.2379  -26.3806  -43.6358 N.am      1 UNK        -0.4884 
      5 CA         16.2658  -25.8134  -44.5274 C.3       1 UNK         0.0853 
      6 C6         17.0942  -26.8718  -45.2951 C.3       10 UNK        -0.0849 
      7 S7         16.1066  -27.9462  -46.3958 S.3       10 UNK        -0.2776 
      8 C8         16.3257  -29.6058  -45.6472 C.3       10 UNK         0.0316 
      9 C9         17.7679  -30.0925  -45.4576 C.ar      10 UNK        -0.0863 
     10 C10        17.9872  -31.2444  -44.6970 C.ar      10 UNK        -0.1009 
     11 C11        19.2842  -31.6920  -44.4256 C.ar      10 UNK        -0.0712 
     12 C12        20.3792  -30.9560  -44.8933 C.ar      10 UNK        -0.0894 
     13 C13        20.1800  -29.8144  -45.6767 C.ar      10 UNK        -0.0745 
     14 C14        18.8757  -29.4231  -45.9910 C.ar      10 UNK        -0.0972 
     15 C15        21.3639  -29.0174  -46.2166 C.3       10 UNK         0.0209 
     16 S16        21.1651  -27.2128  -45.9878 S.3       10 UNK        -0.2568 
     17 C17        22.2107  -26.9044  -44.5332 C.3       10 UNK        -0.0983 
     18 CA         21.9626  -25.5018  -43.9197 C.3       3 UNK         0.0876 
     19 N          20.6760  -25.4369  -43.2148 N.am      3 UNK        -0.4424 
     20 C          20.1255  -24.3223  -42.7125 C.2       2 UNK         0.4918 
     21 O          20.5942  -23.1932  -42.8720 O.2       2 UNK        -0.4875 
     22 CA         18.8221  -24.5178  -41.9111 C.3       2 UNK         0.0481 
     23 CB         18.2737  -23.2054  -41.3116 C.3       2 UNK        -0.1831 
     24 N          17.7920  -25.2116  -42.6916 N.am      2 UNK        -0.4498 
     25 C          17.2213  -24.8150  -43.8384 C.2       1 UNK         0.5027 
     26 O          17.4318  -23.7256  -44.3731 O.2       1 UNK        -0.4969 
     27 C          23.1428  -25.1032  -43.0046 C.2       3 UNK         0.5005 
     28 O          23.0726  -25.2754  -41.7850 O.2       3 UNK        -0.5279 
     29 N          24.2261  -24.6074  -43.6203 N.am      4 UNK        -0.4463 
     30 CA         25.4669  -24.2162  -42.9392 C.3       4 UNK         0.0283 
     31 CB         26.3342  -23.3897  -43.9028 C.3       4 UNK        -0.1875 
     32 C          26.2718  -25.4069  -42.3833 C.2       4 UNK         0.4949 
     33 O          27.0596  -25.2206  -41.4556 O.2       4 UNK        -0.5039 
     34 N          26.0620  -26.5993  -42.9505 N.am      5 UNK        -0.4663 
     35 CA         26.6360  -27.8683  -42.5191 C.3       5 UNK         0.0242 
     36 CB         27.9798  -28.1016  -43.2319 C.3       5 UNK        -0.1982 
     37 C          25.6333  -28.9798  -42.8483 C.2       5 UNK         0.5017 
     38 O          24.8109  -28.8055  -43.7501 O.2       5 UNK        -0.5012 
     39 N          25.7222  -30.0966  -42.1128 N.am      6 UNK        -0.4439 
     40 CA         24.9018  -31.3127  -42.2364 C.3       6 UNK         0.0297 
     41 CB         25.0853  -31.9706  -43.6212 C.3       6 UNK        -0.2006 
     42 C          23.4097  -31.1391  -41.8800 C.2       6 UNK         0.4892 
     43 O          22.6323  -32.0647  -42.1107 O.2       6 UNK        -0.5089 
     44 N          23.0347  -30.0012  -41.2759 N.am      7 UNK        -0.4243 
     45 CA         21.6642  -29.6675  -40.8635 C.3       7 UNK         0.0196 
     46 CB         21.5947  -28.1738  -40.5114 C.3       7 UNK        -0.2007 
     47 C          21.1162  -30.5230  -39.7046 C.2       7 UNK         0.5020 
     48 O          19.9143  -30.4802  -39.4429 O.2       7 UNK        -0.5147 
     49 N          21.9879  -31.2908  -39.0349 N.am      8 UNK        -0.4734 
     50 CA         21.6044  -32.3386  -38.0839 C.3       8 UNK         0.0238 
     51 CB         22.8375  -32.7585  -37.2675 C.3       8 UNK        -0.1912 
     52 C          20.9711  -33.5622  -38.7756 C.2       8 UNK         0.5038 
     53 O          20.1947  -34.2734  -38.1368 O.2       8 UNK        -0.5046 
     54 N          21.3071  -33.7730  -40.0575 N.am      9 UNK        -0.4200 
     55 CA         20.7567  -34.7972  -40.9599 C.3       9 UNK         0.0839 
     56 C          21.0406  -36.2731  -40.5467 C.2       9 UNK         0.5513 
     57 N          22.0336  -36.5420  -39.7074 N.am      9 UNK        -0.7519 
     58 O          20.3762  -37.1939  -41.0159 O.2       9 UNK        -0.4960 
     59 C59        19.2648  -34.5411  -41.3227 C.3       10 UNK        -0.0876 
     60 S60        18.9473  -32.8450  -41.9250 S.3       10 UNK        -0.2414 
     61 C61        19.4926  -32.9870  -43.6531 C.3       10 UNK         0.0169 
     62 H62        14.0488  -28.7766  -41.9443 H         1 UNK         0.0903 
     63 H63        14.1905  -27.4075  -40.8385 H         1 UNK         0.0903 
     64 H64        13.2375  -27.2544  -42.3164 H         1 UNK         0.0903 
     65 H65        14.2991  -26.0720  -43.8499 H         1 UNK         0.3096 
     66 H66        15.7152  -25.2337  -45.2708 H         1 UNK         0.1121 
     67 H67        17.8395  -26.3814  -45.9255 H         1 UNK         0.0849 
     68 H68        17.6618  -27.4788  -44.5892 H         1 UNK         0.0849 
     69 H69        15.8268  -29.6026  -44.6768 H         1 UNK         0.0865 
     70 H70        15.7931  -30.3313  -46.2634 H         1 UNK         0.0865 
     71 H71        17.1439  -31.7961  -44.3035 H         1 UNK         0.1346 
     72 H72        21.3841  -31.2848  -44.6637 H         1 UNK         0.1412 
     73 H73        18.7381  -28.5604  -46.6251 H         1 UNK         0.1426 
     74 H74        22.2987  -29.3453  -45.7582 H         1 UNK         0.0716 
     75 H75        21.4566  -29.2226  -47.2838 H         1 UNK         0.0716 
     76 H76        23.2418  -27.0048  -44.8762 H         1 UNK         0.0695 
     77 H77        22.0552  -27.6928  -43.7941 H         1 UNK         0.0695 
     78 H78        21.9221  -24.7675  -44.7276 H         1 UNK         0.0983 
     79 H79        20.2178  -26.3195  -43.0477 H         1 UNK         0.3095 
     80 H80        19.0693  -25.1776  -41.0780 H         1 UNK         0.0454 
     81 H81        17.3740  -23.3838  -40.7231 H         1 UNK         0.0851 
     82 H82        18.0308  -22.4730  -42.0819 H         1 UNK         0.0851 
     83 H83        19.0078  -22.7451  -40.6492 H         1 UNK         0.0851 
     84 H84        17.5156  -26.1334  -42.3556 H         1 UNK         0.2976 
     85 H85        24.2109  -24.4983  -44.6249 H         1 UNK         0.3116 
     86 H86        25.2002  -23.5805  -42.0921 H         1 UNK         0.0646 
     87 H87        25.8105  -22.4968  -44.2444 H         1 UNK         0.0847 
     88 H88        27.2508  -23.0566  -43.4138 H         1 UNK         0.0847 
     89 H89        26.6267  -23.9668  -44.7810 H         1 UNK         0.0847 
     90 H90        25.3622  -26.6884  -43.6762 H         1 UNK         0.3040 
     91 H91        26.7907  -27.8481  -41.4377 H         1 UNK         0.1015 
     92 H92        27.8600  -28.1299  -44.3158 H         1 UNK         0.0786 
     93 H93        28.4281  -29.0481  -42.9272 H         1 UNK         0.0786 
     94 H94        28.6957  -27.3141  -42.9954 H         1 UNK         0.0786 
     95 H95        26.4336  -30.1325  -41.3944 H         1 UNK         0.3172 
     96 H96        25.2977  -32.0085  -41.4953 H         1 UNK         0.0595 
     97 H97        24.6379  -31.3744  -44.4171 H         1 UNK         0.0839 
     98 H98        24.6143  -32.9539  -43.6537 H         1 UNK         0.0839 
     99 H99        26.1396  -32.1116  -43.8586 H         1 UNK         0.0839 
    100 H100       23.7395  -29.2976  -41.1134 H         1 UNK         0.2998 
    101 H101       21.0099  -29.8465  -41.7203 H         1 UNK         0.0822 
    102 H102       21.8795  -27.5583  -41.3622 H         1 UNK         0.0787 
    103 H103       20.5819  -27.8818  -40.2298 H         1 UNK         0.0787 
    104 H104       22.2520  -27.9220  -39.6783 H         1 UNK         0.0787 
    105 H105       22.9629  -31.2350  -39.2897 H         1 UNK         0.3055 
    106 H106       20.8589  -31.9285  -37.3987 H         1 UNK         0.1106 
    107 H107       23.2546  -31.9154  -36.7165 H         1 UNK         0.0828 
    108 H108       22.5769  -33.5239  -36.5349 H         1 UNK         0.0828 
    109 H109       23.6243  -33.1691  -37.9015 H         1 UNK         0.0828 
    110 H110       21.9196  -33.1066  -40.5137 H         1 UNK         0.2931 
    111 H111       21.3259  -34.6763  -41.8817 H         1 UNK         0.0412 
    112 H112       22.5913  -35.7969  -39.3222 H         1 UNK         0.3472 
    113 H113       22.2199  -37.4990  -39.4512 H         1 UNK         0.3472 
    114 H114       18.9247  -35.2463  -42.0832 H         1 UNK         0.0970 
    115 H115       18.6327  -34.7143  -40.4503 H         1 UNK         0.0970 
    116 H116       20.5439  -33.2773  -43.6729 H         1 UNK         0.0612 
    117 H117       18.9378  -33.7883  -44.1431 H         1 UNK         0.0612 
@<TRIPOS>BOND
     1    1    2 1    
     2    1   62 1    
     3    1   63 1    
     4    1   64 1    
     5    2    3 2    
     6    2    4 am   BACKBONE|DICT|INTERRES
     7    4    5 1    
     8    4   65 1    
     9    5    6 1    
    10    5   25 1    
    11    5   66 1    
    12    6    7 1    
    13    6   67 1    
    14    6   68 1    
    15    7    8 1    
    16    8    9 1    
    17    8   69 1    
    18    8   70 1    
    19    9   10 ar   
    20    9   14 ar   
    21   10   11 ar   
    22   10   71 1    
    23   11   12 ar   
    24   11   61 1    
    25   12   13 ar   
    26   12   72 1    
    27   13   14 ar   
    28   13   15 1    
    29   14   73 1    
    30   15   16 1    
    31   15   74 1    
    32   15   75 1    
    33   16   17 1    
    34   17   18 1    
    35   17   76 1    
    36   17   77 1    
    37   18   19 1    
    38   18   27 1    
    39   18   78 1    
    40   19   20 am   BACKBONE|DICT|INTERRES
    41   19   79 1    
    42   20   21 2    
    43   20   22 1    
    44   22   23 1    
    45   22   24 1    
    46   22   80 1    
    47   23   81 1    
    48   23   82 1    
    49   23   83 1    
    50   24   25 am   BACKBONE|DICT|INTERRES
    51   24   84 1    
    52   25   26 2    
    53   27   28 2    
    54   27   29 am   BACKBONE|DICT|INTERRES
    55   29   30 1    
    56   29   85 1    
    57   30   31 1    
    58   30   32 1    
    59   30   86 1    
    60   31   87 1    
    61   31   88 1    
    62   31   89 1    
    63   32   33 2    
    64   32   34 am   BACKBONE|DICT|INTERRES
    65   34   35 1    
    66   34   90 1    
    67   35   36 1    
    68   35   37 1    
    69   35   91 1    
    70   36   92 1    
    71   36   93 1    
    72   36   94 1    
    73   37   38 2    
    74   37   39 am   BACKBONE|DICT|INTERRES
    75   39   40 1    
    76   39   95 1    
    77   40   41 1    
    78   40   42 1    
    79   40   96 1    
    80   41   97 1    
    81   41   98 1    
    82   41   99 1    
    83   42   43 2    
    84   42   44 am   BACKBONE|DICT|INTERRES
    85   44   45 1    
    86   44  100 1    
    87   45   46 1    
    88   45   47 1    
    89   45  101 1    
    90   46  102 1    
    91   46  103 1    
    92   46  104 1    
    93   47   48 2    
    94   47   49 am   BACKBONE|DICT|INTERRES
    95   49   50 1    
    96   49  105 1    
    97   50   51 1    
    98   50   52 1    
    99   50  106 1    
   100   51  107 1    
   101   51  108 1    
   102   51  109 1    
   103   52   53 2    
   104   52   54 am   BACKBONE|DICT|INTERRES
   105   54   55 1    
   106   54  110 1    
   107   55   56 1    
   108   55   59 1    
   109   55  111 1    
   110   56   57 am   BACKBONE|DICT|INTERRES
   111   56   58 2    
   112   57  112 1    
   113   57  113 1    
   114   59   60 1    
   115   59  114 1    
   116   59  115 1    
   117   60   61 1    
   118   61  116 1    
   119   61  117 1    
@<TRIPOS>SUBSTRUCTURE
     1 UNK         1 GROUP             0       ****    0 ROOT    
