@<TRIPOS>MOLECULE
3R8
117   119    1
SMALL
USER_CHARGES


@<TRIPOS>ATOM
      1 CA         15.9621  -24.9896  -46.7450 C.3       0 UNK        -0.2013 
      2 C          17.1529  -25.6262  -46.0461 C.2       0 UNK         0.4866 
      3 O          17.0818  -25.9056  -44.8491 O.2       0 UNK        -0.5176 
      4 N          18.2549  -25.8448  -46.7778 N.am      1 UNK        -0.4884 
      5 CA         19.5173  -26.4948  -46.3714 C.3       1 UNK         0.0853 
      6 C6         19.3403  -27.9453  -45.8378 C.3       10 UNK        -0.0849 
      7 S7         18.5090  -29.0654  -47.0108 S.3       10 UNK        -0.2776 
      8 C8         16.9082  -29.3532  -46.1851 C.3       10 UNK         0.0316 
      9 C9         17.0380  -30.2207  -44.9394 C.ar      10 UNK        -0.0863 
     10 C10        17.2928  -31.5881  -45.0731 C.ar      10 UNK        -0.1009 
     11 C11        17.3711  -32.4133  -43.9480 C.ar      10 UNK        -0.0712 
     12 C12        17.1785  -31.8589  -42.6784 C.ar      10 UNK        -0.0894 
     13 C13        16.9056  -30.4946  -42.5281 C.ar      10 UNK        -0.0745 
     14 C14        16.8495  -29.6766  -43.6627 C.ar      10 UNK        -0.0972 
     15 C15        16.5892  -29.9343  -41.1457 C.3       10 UNK         0.0209 
     16 S16        18.0783  -29.5640  -40.1627 S.3       10 UNK        -0.2568 
     17 C17        18.5060  -27.8770  -40.7091 C.3       10 UNK        -0.0983 
     18 CA         19.8116  -27.8466  -41.5421 C.3       3 UNK         0.0876 
     19 N          19.8876  -26.6431  -42.3748 N.am      3 UNK        -0.4424 
     20 C          20.4279  -25.4378  -42.1281 C.2       2 UNK         0.4918 
     21 O          21.0428  -25.1425  -41.1025 O.2       2 UNK        -0.4875 
     22 CA         20.1989  -24.3607  -43.2136 C.3       2 UNK         0.0481 
     23 CB         21.4174  -23.4387  -43.4217 C.3       2 UNK        -0.1831 
     24 N          19.7029  -24.9254  -44.4776 N.am      2 UNK        -0.4498 
     25 C          20.3637  -25.6910  -45.3587 C.2       1 UNK         0.5027 
     26 O          21.5844  -25.8400  -45.3573 O.2       1 UNK        -0.4969 
     27 C          21.0994  -28.1258  -40.7389 C.2       3 UNK         0.5005 
     28 O          22.0335  -28.7084  -41.2895 O.2       3 UNK        -0.5279 
     29 N          21.1452  -27.7003  -39.4673 N.am      4 UNK        -0.4463 
     30 CA         22.2725  -27.8627  -38.5416 C.3       4 UNK         0.0283 
     31 CB         21.9222  -27.2135  -37.1943 C.3       4 UNK        -0.1875 
     32 C          23.6117  -27.3152  -39.0667 C.2       4 UNK         0.4949 
     33 O          24.6511  -27.9164  -38.7962 O.2       4 UNK        -0.5039 
     34 N          23.5669  -26.2301  -39.8535 N.am      5 UNK        -0.4663 
     35 CA         24.7389  -25.6445  -40.5146 C.3       5 UNK         0.0242 
     36 CB         24.3908  -24.2317  -41.0049 C.3       5 UNK        -0.1982 
     37 C          25.2864  -26.5032  -41.6719 C.2       5 UNK         0.5017 
     38 O          26.4391  -26.3143  -42.0605 O.2       5 UNK        -0.5012 
     39 N          24.4732  -27.4388  -42.1802 N.am      6 UNK        -0.4439 
     40 CA         24.8330  -28.4365  -43.1878 C.3       6 UNK         0.0297 
     41 CB         23.7469  -28.4513  -44.2802 C.3       6 UNK        -0.2006 
     42 C          25.0222  -29.8277  -42.5504 C.2       6 UNK         0.4892 
     43 O          24.8950  -30.8304  -43.2503 O.2       6 UNK        -0.5089 
     44 N          25.3157  -29.8736  -41.2406 N.am      7 UNK        -0.4243 
     45 CA         25.4946  -31.0747  -40.4146 C.3       7 UNK         0.0196 
     46 CB         26.7023  -31.9136  -40.8872 C.3       7 UNK        -0.2007 
     47 C          24.1994  -31.8970  -40.2626 C.2       7 UNK         0.5020 
     48 O          24.2364  -33.1270  -40.3025 O.2       7 UNK        -0.5147 
     49 N          23.0818  -31.1845  -40.0666 N.am      8 UNK        -0.4734 
     50 CA         21.7275  -31.6674  -39.7627 C.3       8 UNK         0.0238 
     51 CB         21.7095  -32.6246  -38.5513 C.3       8 UNK        -0.1912 
     52 C          20.9452  -32.2224  -40.9650 C.2       8 UNK         0.5038 
     53 O          19.8127  -32.6614  -40.7648 O.2       8 UNK        -0.5046 
     54 N          21.5135  -32.1638  -42.1761 N.am      9 UNK        -0.4200 
     55 CA         20.8410  -32.4768  -43.4415 C.3       9 UNK         0.0839 
     56 C          21.7329  -32.0365  -44.6256 C.2       9 UNK         0.5513 
     57 N          21.2649  -31.1126  -45.4534 N.am      9 UNK        -0.7519 
     58 O          22.8249  -32.5620  -44.8221 O.2       9 UNK        -0.4960 
     59 C59        20.4055  -33.9671  -43.5560 C.3       10 UNK        -0.0876 
     60 S60        19.2243  -34.2625  -44.9151 S.3       10 UNK        -0.2414 
     61 C61        17.6263  -33.9072  -44.1119 C.3       10 UNK         0.0169 
     62 H62        15.7069  -24.0449  -46.2657 H         1 UNK         0.0903 
     63 H63        16.1629  -24.7935  -47.7981 H         1 UNK         0.0903 
     64 H64        15.0965  -25.6485  -46.6819 H         1 UNK         0.0903 
     65 H65        18.2393  -25.5585  -47.7476 H         1 UNK         0.3096 
     66 H66        20.1209  -26.5519  -47.2793 H         1 UNK         0.1121 
     67 H67        18.7986  -27.9479  -44.8921 H         1 UNK         0.0849 
     68 H68        20.3159  -28.3842  -45.6189 H         1 UNK         0.0849 
     69 H69        16.4365  -28.4007  -45.9456 H         1 UNK         0.0865 
     70 H70        16.2382  -29.8465  -46.8908 H         1 UNK         0.0865 
     71 H71        17.4278  -32.0137  -46.0585 H         1 UNK         0.1346 
     72 H72        17.2250  -32.4921  -41.8025 H         1 UNK         0.1412 
     73 H73        16.6259  -28.6233  -43.5549 H         1 UNK         0.1426 
     74 H74        15.9584  -29.0475  -41.2218 H         1 UNK         0.0716 
     75 H75        15.9963  -30.6671  -40.5963 H         1 UNK         0.0716 
     76 H76        18.5558  -27.2147  -39.8438 H         1 UNK         0.0695 
     77 H77        17.6813  -27.4929  -41.3113 H         1 UNK         0.0695 
     78 H78        19.7455  -28.6660  -42.2611 H         1 UNK         0.0983 
     79 H79        19.4042  -26.7202  -43.2558 H         1 UNK         0.3095 
     80 H80        19.3868  -23.7371  -42.8377 H         1 UNK         0.0454 
     81 H81        21.2198  -22.6888  -44.1873 H         1 UNK         0.0851 
     82 H82        22.3066  -23.9938  -43.7188 H         1 UNK         0.0851 
     83 H83        21.6609  -22.9036  -42.5032 H         1 UNK         0.0851 
     84 H84        18.6903  -24.9304  -44.5758 H         1 UNK         0.2976 
     85 H85        20.3436  -27.2003  -39.1109 H         1 UNK         0.3116 
     86 H86        22.4038  -28.9324  -38.3720 H         1 UNK         0.0646 
     87 H87        21.0343  -27.6663  -36.7527 H         1 UNK         0.0847 
     88 H88        22.7357  -27.3374  -36.4779 H         1 UNK         0.0847 
     89 H89        21.7394  -26.1430  -37.2970 H         1 UNK         0.0847 
     90 H90        22.6633  -25.8194  -40.0728 H         1 UNK         0.3040 
     91 H91        25.5373  -25.5587  -39.7739 H         1 UNK         0.1015 
     92 H92        23.6108  -24.2571  -41.7635 H         1 UNK         0.0786 
     93 H93        25.2609  -23.7447  -41.4473 H         1 UNK         0.0786 
     94 H94        24.0449  -23.5992  -40.1872 H         1 UNK         0.0786 
     95 H95        23.5533  -27.5647  -41.7666 H         1 UNK         0.3172 
     96 H96        25.7811  -28.1726  -43.6600 H         1 UNK         0.0595 
     97 H97        22.7763  -28.7522  -43.8844 H         1 UNK         0.0839 
     98 H98        24.0003  -29.1473  -45.0808 H         1 UNK         0.0839 
     99 H99        23.6330  -27.4677  -44.7349 H         1 UNK         0.0839 
    100 H100       25.3772  -28.9949  -40.7417 H         1 UNK         0.2998 
    101 H101       25.7298  -30.7109  -39.4130 H         1 UNK         0.0822 
    102 H102       26.9191  -32.7153  -40.1802 H         1 UNK         0.0787 
    103 H103       26.5217  -32.3795  -41.8563 H         1 UNK         0.0787 
    104 H104       27.6018  -31.3036  -40.9696 H         1 UNK         0.0787 
    105 H105       23.1469  -30.1801  -40.1872 H         1 UNK         0.3055 
    106 H106       21.1672  -30.7826  -39.4598 H         1 UNK         0.1106 
    107 H107       20.6873  -32.8180  -38.2238 H         1 UNK         0.0828 
    108 H108       22.1566  -33.5904  -38.7870 H         1 UNK         0.0828 
    109 H109       22.2445  -32.2018  -37.7011 H         1 UNK         0.0828 
    110 H110       22.4539  -31.8000  -42.2624 H         1 UNK         0.2931 
    111 H111       19.9476  -31.8526  -43.4514 H         1 UNK         0.0412 
    112 H112       21.8263  -30.8375  -46.2432 H         1 UNK         0.3472 
    113 H113       20.3371  -30.7354  -45.3393 H         1 UNK         0.3472 
    114 H114       19.9414  -34.3214  -42.6367 H         1 UNK         0.0970 
    115 H115       21.2763  -34.6086  -43.7028 H         1 UNK         0.0970 
    116 H116       17.5785  -34.4234  -43.1518 H         1 UNK         0.0612 
    117 H117       16.8295  -34.3296  -44.7253 H         1 UNK         0.0612 
@<TRIPOS>BOND
     1    1    2 1    
     2    1   62 1    
     3    1   63 1    
     4    1   64 1    
     5    2    3 2    
     6    2    4 am   BACKBONE|DICT|INTERRES
     7    4    5 1    
     8    4   65 1    
     9    5    6 1    
    10    5   25 1    
    11    5   66 1    
    12    6    7 1    
    13    6   67 1    
    14    6   68 1    
    15    7    8 1    
    16    8    9 1    
    17    8   69 1    
    18    8   70 1    
    19    9   10 ar   
    20    9   14 ar   
    21   10   11 ar   
    22   10   71 1    
    23   11   12 ar   
    24   11   61 1    
    25   12   13 ar   
    26   12   72 1    
    27   13   14 ar   
    28   13   15 1    
    29   14   73 1    
    30   15   16 1    
    31   15   74 1    
    32   15   75 1    
    33   16   17 1    
    34   17   18 1    
    35   17   76 1    
    36   17   77 1    
    37   18   19 1    
    38   18   27 1    
    39   18   78 1    
    40   19   20 am   BACKBONE|DICT|INTERRES
    41   19   79 1    
    42   20   21 2    
    43   20   22 1    
    44   22   23 1    
    45   22   24 1    
    46   22   80 1    
    47   23   81 1    
    48   23   82 1    
    49   23   83 1    
    50   24   25 am   BACKBONE|DICT|INTERRES
    51   24   84 1    
    52   25   26 2    
    53   27   28 2    
    54   27   29 am   BACKBONE|DICT|INTERRES
    55   29   30 1    
    56   29   85 1    
    57   30   31 1    
    58   30   32 1    
    59   30   86 1    
    60   31   87 1    
    61   31   88 1    
    62   31   89 1    
    63   32   33 2    
    64   32   34 am   BACKBONE|DICT|INTERRES
    65   34   35 1    
    66   34   90 1    
    67   35   36 1    
    68   35   37 1    
    69   35   91 1    
    70   36   92 1    
    71   36   93 1    
    72   36   94 1    
    73   37   38 2    
    74   37   39 am   BACKBONE|DICT|INTERRES
    75   39   40 1    
    76   39   95 1    
    77   40   41 1    
    78   40   42 1    
    79   40   96 1    
    80   41   97 1    
    81   41   98 1    
    82   41   99 1    
    83   42   43 2    
    84   42   44 am   BACKBONE|DICT|INTERRES
    85   44   45 1    
    86   44  100 1    
    87   45   46 1    
    88   45   47 1    
    89   45  101 1    
    90   46  102 1    
    91   46  103 1    
    92   46  104 1    
    93   47   48 2    
    94   47   49 am   BACKBONE|DICT|INTERRES
    95   49   50 1    
    96   49  105 1    
    97   50   51 1    
    98   50   52 1    
    99   50  106 1    
   100   51  107 1    
   101   51  108 1    
   102   51  109 1    
   103   52   53 2    
   104   52   54 am   BACKBONE|DICT|INTERRES
   105   54   55 1    
   106   54  110 1    
   107   55   56 1    
   108   55   59 1    
   109   55  111 1    
   110   56   57 am   BACKBONE|DICT|INTERRES
   111   56   58 2    
   112   57  112 1    
   113   57  113 1    
   114   59   60 1    
   115   59  114 1    
   116   59  115 1    
   117   60   61 1    
   118   61  116 1    
   119   61  117 1    
@<TRIPOS>SUBSTRUCTURE
     1 UNK         1 GROUP             0       ****    0 ROOT    
