@<TRIPOS>MOLECULE
3R8
117   119    1
SMALL
USER_CHARGES


@<TRIPOS>ATOM
      1 CA         16.0123  -28.4495  -44.6178 C.3       0 UNK        -0.2013 
      2 C          17.1924  -27.5236  -44.3687 C.2       0 UNK         0.4866 
      3 O          17.7381  -27.5121  -43.2677 O.2       0 UNK        -0.5176 
      4 N          17.5735  -26.7180  -45.3718 N.am      1 UNK        -0.4884 
      5 CA         18.7718  -25.8542  -45.4117 C.3       1 UNK         0.0853 
      6 C6         20.1020  -26.6628  -45.3308 C.3       10 UNK        -0.0849 
      7 S7         20.2004  -28.0816  -46.4748 S.3       10 UNK        -0.2776 
      8 C8         21.0533  -29.3239  -45.4445 C.3       10 UNK         0.0316 
      9 C9         20.1587  -29.9211  -44.3649 C.ar      10 UNK        -0.0863 
     10 C10        19.1951  -30.8740  -44.7056 C.ar      10 UNK        -0.1009 
     11 C11        18.4235  -31.4901  -43.7162 C.ar      10 UNK        -0.0712 
     12 C12        18.5957  -31.1215  -42.3786 C.ar      10 UNK        -0.0894 
     13 C13        19.5573  -30.1723  -42.0196 C.ar      10 UNK        -0.0745 
     14 C14        20.3455  -29.5870  -43.0182 C.ar      10 UNK        -0.0972 
     15 C15        19.7812  -29.8415  -40.5468 C.3       10 UNK         0.0209 
     16 S16        18.6663  -28.5303  -39.9383 S.3       10 UNK        -0.2568 
     17 C17        19.8445  -27.1760  -39.5991 C.3       10 UNK        -0.0983 
     18 CA         20.1945  -26.4037  -40.8932 C.3       3 UNK         0.0876 
     19 N          19.0467  -25.7153  -41.4899 N.am      3 UNK        -0.4424 
     20 C          18.5736  -24.4851  -41.2354 C.2       2 UNK         0.4918 
     21 O          18.9192  -23.8037  -40.2696 O.2       2 UNK        -0.4875 
     22 CA         17.5973  -23.8931  -42.2852 C.3       2 UNK         0.0481 
     23 CB         17.7628  -22.3668  -42.4370 C.3       2 UNK        -0.1831 
     24 N          17.6851  -24.5565  -43.5989 N.am      2 UNK        -0.4498 
     25 C          18.7900  -24.7275  -44.3467 C.2       1 UNK         0.5027 
     26 O          19.8415  -24.1174  -44.1393 O.2       1 UNK        -0.4969 
     27 C          21.4834  -25.5503  -40.8146 C.2       3 UNK         0.5005 
     28 O          22.2714  -25.7073  -39.8798 O.2       3 UNK        -0.5279 
     29 N          21.6909  -24.6704  -41.8084 N.am      4 UNK        -0.4463 
     30 CA         22.9086  -23.8722  -41.9554 C.3       4 UNK         0.0283 
     31 CB         22.6052  -22.6135  -42.7837 C.3       4 UNK        -0.1875 
     32 C          24.0371  -24.6904  -42.6004 C.2       4 UNK         0.4949 
     33 O          25.1793  -24.6215  -42.1457 O.2       4 UNK        -0.5039 
     34 N          23.6979  -25.4728  -43.6342 N.am      5 UNK        -0.4663 
     35 CA         24.6210  -26.3290  -44.3844 C.3       5 UNK         0.0242 
     36 CB         24.0940  -26.4973  -45.8220 C.3       5 UNK        -0.1982 
     37 C          24.8588  -27.6738  -43.6699 C.2       5 UNK         0.5017 
     38 O          24.5594  -28.7297  -44.2303 O.2       5 UNK        -0.5012 
     39 N          25.3962  -27.5930  -42.4442 N.am      6 UNK        -0.4439 
     40 CA         25.7084  -28.6906  -41.5188 C.3       6 UNK         0.0297 
     41 CB         26.7505  -29.6493  -42.1400 C.3       6 UNK        -0.2006 
     42 C          24.4562  -29.4306  -41.0013 C.2       6 UNK         0.4892 
     43 O          23.3287  -28.9894  -41.2331 O.2       6 UNK        -0.5089 
     44 N          24.6870  -30.5251  -40.2610 N.am      7 UNK        -0.4243 
     45 CA         23.6432  -31.3799  -39.6876 C.3       7 UNK         0.0196 
     46 CB         24.2556  -32.2906  -38.6109 C.3       7 UNK        -0.2007 
     47 C          22.9036  -32.2139  -40.7468 C.2       7 UNK         0.5020 
     48 O          21.6925  -32.3782  -40.6277 O.2       7 UNK        -0.5147 
     49 N          23.6455  -32.7002  -41.7553 N.am      8 UNK        -0.4734 
     50 CA         23.1888  -33.4233  -42.9504 C.3       8 UNK         0.0238 
     51 CB         22.5736  -32.4312  -43.9550 C.3       8 UNK        -0.1912 
     52 C          22.2702  -34.6263  -42.6484 C.2       8 UNK         0.5038 
     53 O          22.7867  -35.7138  -42.3866 O.2       8 UNK        -0.5046 
     54 N          20.9476  -34.4177  -42.7262 N.am      9 UNK        -0.4200 
     55 CA         19.8885  -35.4113  -42.4974 C.3       9 UNK         0.0839 
     56 C          19.9722  -36.0931  -41.1033 C.2       9 UNK         0.5513 
     57 N          19.8075  -37.4078  -41.0454 N.am      9 UNK        -0.7519 
     58 O          20.1286  -35.4391  -40.0751 O.2       9 UNK        -0.4960 
     59 C59        18.4796  -34.7936  -42.7030 C.3       10 UNK        -0.0876 
     60 S60        18.2084  -34.1704  -44.3989 S.3       10 UNK        -0.2414 
     61 C61        17.4112  -32.5582  -44.1001 C.3       10 UNK         0.0169 
     62 H62        15.6362  -28.3678  -45.6371 H         1 UNK         0.0903 
     63 H63        16.3122  -29.4832  -44.4485 H         1 UNK         0.0903 
     64 H64        15.1992  -28.2146  -43.9317 H         1 UNK         0.0903 
     65 H65        17.0587  -26.7573  -46.2411 H         1 UNK         0.3096 
     66 H66        18.7486  -25.3471  -46.3776 H         1 UNK         0.1121 
     67 H67        20.9496  -26.0129  -45.5541 H         1 UNK         0.0849 
     68 H68        20.2585  -27.0227  -44.3130 H         1 UNK         0.0849 
     69 H69        21.9454  -28.8821  -44.9996 H         1 UNK         0.0865 
     70 H70        21.4114  -30.1263  -46.0910 H         1 UNK         0.0865 
     71 H71        19.0639  -31.1561  -45.7413 H         1 UNK         0.1346 
     72 H72        17.9967  -31.5883  -41.6092 H         1 UNK         0.1412 
     73 H73        21.1307  -28.8969  -42.7477 H         1 UNK         0.1426 
     74 H74        20.8236  -29.5669  -40.3843 H         1 UNK         0.0716 
     75 H75        19.6167  -30.7363  -39.9448 H         1 UNK         0.0716 
     76 H76        20.7315  -27.6077  -39.1321 H         1 UNK         0.0695 
     77 H77        19.4090  -26.5008  -38.8610 H         1 UNK         0.0695 
     78 H78        20.4594  -27.1539  -41.6333 H         1 UNK         0.0983 
     79 H79        18.5962  -26.2448  -42.2357 H         1 UNK         0.3095 
     80 H80        16.5913  -24.0864  -41.9109 H         1 UNK         0.0454 
     81 H81        17.0750  -21.9648  -43.1806 H         1 UNK         0.0851 
     82 H82        18.7760  -22.0962  -42.7358 H         1 UNK         0.0851 
     83 H83        17.5555  -21.8548  -41.4967 H         1 UNK         0.0851 
     84 H84        16.8904  -25.1311  -43.8445 H         1 UNK         0.2976 
     85 H85        20.9827  -24.5559  -42.5273 H         1 UNK         0.3116 
     86 H86        23.2449  -23.5499  -40.9674 H         1 UNK         0.0646 
     87 H87        23.4914  -21.9837  -42.8729 H         1 UNK         0.0847 
     88 H88        21.8252  -22.0113  -42.3172 H         1 UNK         0.0847 
     89 H89        22.2770  -22.8583  -43.7947 H         1 UNK         0.0847 
     90 H90        22.7310  -25.4920  -43.9200 H         1 UNK         0.3040 
     91 H91        25.5908  -25.8301  -44.4524 H         1 UNK         0.1015 
     92 H92        23.9766  -25.5336  -46.3178 H         1 UNK         0.0786 
     93 H93        23.1319  -27.0066  -45.8468 H         1 UNK         0.0786 
     94 H94        24.7873  -27.0865  -46.4237 H         1 UNK         0.0786 
     95 H95        25.5386  -26.6567  -42.0787 H         1 UNK         0.3172 
     96 H96        26.1663  -28.2185  -40.6484 H         1 UNK         0.0595 
     97 H97        26.3156  -30.2673  -42.9266 H         1 UNK         0.0839 
     98 H98        27.1740  -30.3218  -41.3938 H         1 UNK         0.0839 
     99 H99        27.5848  -29.0985  -42.5745 H         1 UNK         0.0839 
    100 H100       25.6432  -30.8002  -40.0899 H         1 UNK         0.2998 
    101 H101       22.9060  -30.7340  -39.2050 H         1 UNK         0.0822 
    102 H102       25.0210  -32.9496  -39.0226 H         1 UNK         0.0787 
    103 H103       24.7086  -31.7077  -37.8087 H         1 UNK         0.0787 
    104 H104       23.4911  -32.9234  -38.1574 H         1 UNK         0.0787 
    105 H105       24.6393  -32.5259  -41.7154 H         1 UNK         0.3055 
    106 H106       24.0827  -33.8402  -43.4176 H         1 UNK         0.1106 
    107 H107       21.7198  -31.9176  -43.5209 H         1 UNK         0.0828 
    108 H108       22.2343  -32.9361  -44.8605 H         1 UNK         0.0828 
    109 H109       23.2953  -31.6711  -44.2555 H         1 UNK         0.0828 
    110 H110       20.6288  -33.4741  -42.8905 H         1 UNK         0.2931 
    111 H111       20.0284  -36.1836  -43.2565 H         1 UNK         0.0412 
    112 H112       19.6657  -37.9526  -41.8822 H         1 UNK         0.3472 
    113 H113       19.8389  -37.8672  -40.1483 H         1 UNK         0.3472 
    114 H114       17.7062  -35.5391  -42.5078 H         1 UNK         0.0970 
    115 H115       18.3123  -33.9938  -41.9801 H         1 UNK         0.0970 
    116 H116       16.8929  -32.2513  -45.0096 H         1 UNK         0.0612 
    117 H117       16.6423  -32.6626  -43.3330 H         1 UNK         0.0612 
@<TRIPOS>BOND
     1    1    2 1    
     2    1   62 1    
     3    1   63 1    
     4    1   64 1    
     5    2    3 2    
     6    2    4 am   BACKBONE|DICT|INTERRES
     7    4    5 1    
     8    4   65 1    
     9    5    6 1    
    10    5   25 1    
    11    5   66 1    
    12    6    7 1    
    13    6   67 1    
    14    6   68 1    
    15    7    8 1    
    16    8    9 1    
    17    8   69 1    
    18    8   70 1    
    19    9   10 ar   
    20    9   14 ar   
    21   10   11 ar   
    22   10   71 1    
    23   11   12 ar   
    24   11   61 1    
    25   12   13 ar   
    26   12   72 1    
    27   13   14 ar   
    28   13   15 1    
    29   14   73 1    
    30   15   16 1    
    31   15   74 1    
    32   15   75 1    
    33   16   17 1    
    34   17   18 1    
    35   17   76 1    
    36   17   77 1    
    37   18   19 1    
    38   18   27 1    
    39   18   78 1    
    40   19   20 am   BACKBONE|DICT|INTERRES
    41   19   79 1    
    42   20   21 2    
    43   20   22 1    
    44   22   23 1    
    45   22   24 1    
    46   22   80 1    
    47   23   81 1    
    48   23   82 1    
    49   23   83 1    
    50   24   25 am   BACKBONE|DICT|INTERRES
    51   24   84 1    
    52   25   26 2    
    53   27   28 2    
    54   27   29 am   BACKBONE|DICT|INTERRES
    55   29   30 1    
    56   29   85 1    
    57   30   31 1    
    58   30   32 1    
    59   30   86 1    
    60   31   87 1    
    61   31   88 1    
    62   31   89 1    
    63   32   33 2    
    64   32   34 am   BACKBONE|DICT|INTERRES
    65   34   35 1    
    66   34   90 1    
    67   35   36 1    
    68   35   37 1    
    69   35   91 1    
    70   36   92 1    
    71   36   93 1    
    72   36   94 1    
    73   37   38 2    
    74   37   39 am   BACKBONE|DICT|INTERRES
    75   39   40 1    
    76   39   95 1    
    77   40   41 1    
    78   40   42 1    
    79   40   96 1    
    80   41   97 1    
    81   41   98 1    
    82   41   99 1    
    83   42   43 2    
    84   42   44 am   BACKBONE|DICT|INTERRES
    85   44   45 1    
    86   44  100 1    
    87   45   46 1    
    88   45   47 1    
    89   45  101 1    
    90   46  102 1    
    91   46  103 1    
    92   46  104 1    
    93   47   48 2    
    94   47   49 am   BACKBONE|DICT|INTERRES
    95   49   50 1    
    96   49  105 1    
    97   50   51 1    
    98   50   52 1    
    99   50  106 1    
   100   51  107 1    
   101   51  108 1    
   102   51  109 1    
   103   52   53 2    
   104   52   54 am   BACKBONE|DICT|INTERRES
   105   54   55 1    
   106   54  110 1    
   107   55   56 1    
   108   55   59 1    
   109   55  111 1    
   110   56   57 am   BACKBONE|DICT|INTERRES
   111   56   58 2    
   112   57  112 1    
   113   57  113 1    
   114   59   60 1    
   115   59  114 1    
   116   59  115 1    
   117   60   61 1    
   118   61  116 1    
   119   61  117 1    
@<TRIPOS>SUBSTRUCTURE
     1 UNK         1 GROUP             0       ****    0 ROOT    
