@<TRIPOS>MOLECULE
3R8
117   119    1
SMALL
USER_CHARGES


@<TRIPOS>ATOM
      1 CA         18.9690  -24.9136  -38.3828 C.3       0 UNK        -0.2013 
      2 C          18.3616  -25.0331  -39.7726 C.2       0 UNK         0.4866 
      3 O          17.4332  -24.2928  -40.1005 O.2       0 UNK        -0.5176 
      4 N          18.8717  -25.9610  -40.5891 N.am      1 UNK        -0.4884 
      5 CA         18.4587  -26.1626  -41.9804 C.3       1 UNK         0.0853 
      6 C6         18.8573  -27.5657  -42.5009 C.3       10 UNK        -0.0849 
      7 S7         17.9115  -28.8955  -41.6868 S.3       10 UNK        -0.2776 
      8 C8         17.3984  -29.9216  -43.1067 C.3       10 UNK         0.0316 
      9 C9         18.5892  -30.5227  -43.8439 C.ar      10 UNK        -0.0863 
     10 C10        19.4015  -31.4642  -43.2090 C.ar      10 UNK        -0.1009 
     11 C11        20.5154  -32.0048  -43.8564 C.ar      10 UNK        -0.0712 
     12 C12        20.8094  -31.6042  -45.1631 C.ar      10 UNK        -0.0894 
     13 C13        20.0102  -30.6555  -45.8090 C.ar      10 UNK        -0.0745 
     14 C14        18.8930  -30.1296  -45.1505 C.ar      10 UNK        -0.0972 
     15 C15        20.3768  -30.1680  -47.2040 C.3       10 UNK         0.0209 
     16 S16        21.7012  -28.9150  -47.1526 S.3       10 UNK        -0.2568 
     17 C17        20.9259  -27.6276  -46.1185 C.3       10 UNK        -0.0983 
     18 CA         21.5318  -26.2114  -46.2917 C.3       3 UNK         0.0876 
     19 N          20.7207  -25.2202  -45.5981 N.am      3 UNK        -0.4424 
     20 C          19.5802  -24.6843  -46.0359 C.2       2 UNK         0.4918 
     21 O          19.1057  -24.8991  -47.1523 O.2       2 UNK        -0.4875 
     22 CA         18.8152  -23.8222  -45.0138 C.3       2 UNK         0.0481 
     23 CB         17.6201  -23.0797  -45.6395 C.3       2 UNK        -0.1831 
     24 N          18.3346  -24.6699  -43.9190 N.am      2 UNK        -0.4498 
     25 C          19.0779  -25.0782  -42.8810 C.2       1 UNK         0.5027 
     26 O          20.2298  -24.6873  -42.6728 O.2       1 UNK        -0.4969 
     27 C          22.9468  -26.1137  -45.7016 C.2       3 UNK         0.5005 
     28 O          23.0915  -25.7564  -44.5287 O.2       3 UNK        -0.5279 
     29 N          23.9611  -26.4740  -46.5000 N.am      4 UNK        -0.4463 
     30 CA         25.3801  -26.4760  -46.1204 C.3       4 UNK         0.0283 
     31 CB         26.2318  -26.8214  -47.3527 C.3       4 UNK        -0.1875 
     32 C          25.7248  -27.4178  -44.9501 C.2       4 UNK         0.4949 
     33 O          26.7345  -27.1992  -44.2808 O.2       4 UNK        -0.5039 
     34 N          24.8808  -28.4324  -44.7143 N.am      5 UNK        -0.4663 
     35 CA         24.9713  -29.3452  -43.5737 C.3       5 UNK         0.0242 
     36 CB         24.0215  -30.5300  -43.8058 C.3       5 UNK        -0.1982 
     37 C          24.6527  -28.6748  -42.2248 C.2       5 UNK         0.5017 
     38 O          25.1750  -29.1262  -41.2047 O.2       5 UNK        -0.5012 
     39 N          23.8040  -27.6329  -42.2417 N.am      6 UNK        -0.4439 
     40 CA         23.2815  -26.8347  -41.1213 C.3       6 UNK         0.0297 
     41 CB         24.4078  -26.0489  -40.4236 C.3       6 UNK        -0.2006 
     42 C          22.4314  -27.6126  -40.0962 C.2       6 UNK         0.4892 
     43 O          21.3276  -27.1720  -39.7741 O.2       6 UNK        -0.5089 
     44 N          22.9551  -28.7361  -39.5943 N.am      7 UNK        -0.4243 
     45 CA         22.2881  -29.6633  -38.6806 C.3       7 UNK         0.0196 
     46 CB         23.3360  -30.6433  -38.1267 C.3       7 UNK        -0.2007 
     47 C          21.1489  -30.4303  -39.3717 C.2       7 UNK         0.5020 
     48 O          21.1372  -30.5451  -40.5961 O.2       7 UNK        -0.5147 
     49 N          20.2296  -30.9736  -38.5640 N.am      8 UNK        -0.4734 
     50 CA         19.0335  -31.6866  -39.0275 C.3       8 UNK         0.0238 
     51 CB         18.0342  -31.7919  -37.8632 C.3       8 UNK        -0.1912 
     52 C          19.2967  -33.0772  -39.6377 C.2       8 UNK         0.5038 
     53 O          18.4110  -33.5845  -40.3255 O.2       8 UNK        -0.5046 
     54 N          20.4716  -33.6637  -39.3561 N.am      9 UNK        -0.4200 
     55 CA         20.9554  -34.9913  -39.7933 C.3       9 UNK         0.0839 
     56 C          20.0048  -36.2053  -39.5467 C.2       9 UNK         0.5513 
     57 N          19.0905  -36.1354  -38.5867 N.am      9 UNK        -0.7519 
     58 O          20.1237  -37.2430  -40.1939 O.2       9 UNK        -0.4960 
     59 C59        21.6570  -34.9875  -41.1878 C.3       10 UNK        -0.0876 
     60 S60        20.6197  -34.4975  -42.6121 S.3       10 UNK        -0.2414 
     61 C61        21.4420  -32.9501  -43.1057 C.3       10 UNK         0.0169 
     62 H62        19.4551  -23.9452  -38.2681 H         1 UNK         0.0903 
     63 H63        18.1915  -24.9982  -37.6241 H         1 UNK         0.0903 
     64 H64        19.7098  -25.6903  -38.1941 H         1 UNK         0.0903 
     65 H65        19.6825  -26.4999  -40.2873 H         1 UNK         0.3096 
     66 H66        17.3713  -26.0688  -42.0327 H         1 UNK         0.1121 
     67 H67        18.6937  -27.6332  -43.5780 H         1 UNK         0.0849 
     68 H68        19.9222  -27.7534  -42.3460 H         1 UNK         0.0849 
     69 H69        16.7609  -30.7296  -42.7446 H         1 UNK         0.0865 
     70 H70        16.7811  -29.3242  -43.7794 H         1 UNK         0.0865 
     71 H71        19.1861  -31.7537  -42.1912 H         1 UNK         0.1346 
     72 H72        21.6830  -31.9973  -45.6650 H         1 UNK         0.1412 
     73 H73        18.2758  -29.3935  -45.6471 H         1 UNK         0.1426 
     74 H74        19.5038  -29.7512  -47.7087 H         1 UNK         0.0716 
     75 H75        20.7083  -31.0105  -47.8127 H         1 UNK         0.0716 
     76 H76        19.8672  -27.5973  -46.3800 H         1 UNK         0.0695 
     77 H77        20.9679  -27.9430  -45.0736 H         1 UNK         0.0695 
     78 H78        21.5731  -25.9502  -47.3516 H         1 UNK         0.0983 
     79 H79        21.0572  -24.9867  -44.6677 H         1 UNK         0.3095 
     80 H80        19.5057  -23.0726  -44.6212 H         1 UNK         0.0454 
     81 H81        17.9472  -22.4345  -46.4559 H         1 UNK         0.0851 
     82 H82        16.8791  -23.7690  -46.0461 H         1 UNK         0.0851 
     83 H83        17.1210  -22.4450  -44.9073 H         1 UNK         0.0851 
     84 H84        17.4097  -25.0590  -44.0367 H         1 UNK         0.2976 
     85 H85        23.7467  -26.7905  -47.4359 H         1 UNK         0.3116 
     86 H86        25.6347  -25.4629  -45.8020 H         1 UNK         0.0646 
     87 H87        27.2953  -26.8028  -47.1101 H         1 UNK         0.0847 
     88 H88        26.0748  -26.1054  -48.1595 H         1 UNK         0.0847 
     89 H89        26.0034  -27.8170  -47.7355 H         1 UNK         0.0847 
     90 H90        24.0904  -28.5481  -45.3328 H         1 UNK         0.3040 
     91 H91        25.9942  -29.7249  -43.5203 H         1 UNK         0.1015 
     92 H92        22.9817  -30.2039  -43.8561 H         1 UNK         0.0786 
     93 H93        24.0955  -31.2531  -42.9923 H         1 UNK         0.0786 
     94 H94        24.2556  -31.0571  -44.7308 H         1 UNK         0.0786 
     95 H95        23.4823  -27.3188  -43.1510 H         1 UNK         0.3172 
     96 H96        22.6146  -26.1028  -41.5810 H         1 UNK         0.0595 
     97 H97        24.0037  -25.3967  -39.6483 H         1 UNK         0.0839 
     98 H98        25.1335  -26.7084  -39.9469 H         1 UNK         0.0839 
     99 H99        24.9441  -25.4170  -41.1317 H         1 UNK         0.0839 
    100 H100       23.8493  -29.0316  -39.9792 H         1 UNK         0.2998 
    101 H101       21.8674  -29.0837  -37.8562 H         1 UNK         0.0822 
    102 H102       22.8942  -31.3300  -37.4037 H         1 UNK         0.0787 
    103 H103       23.7816  -31.2448  -38.9206 H         1 UNK         0.0787 
    104 H104       24.1417  -30.1145  -37.6167 H         1 UNK         0.0787 
    105 H105       20.3222  -30.8468  -37.5658 H         1 UNK         0.3055 
    106 H106       18.5724  -31.0855  -39.8138 H         1 UNK         0.1106 
    107 H107       17.7527  -30.8065  -37.4916 H         1 UNK         0.0828 
    108 H108       17.1155  -32.2882  -38.1798 H         1 UNK         0.0828 
    109 H109       18.4424  -32.3637  -37.0291 H         1 UNK         0.0828 
    110 H110       21.1047  -33.1498  -38.7623 H         1 UNK         0.2931 
    111 H111       21.7612  -35.1950  -39.0870 H         1 UNK         0.0412 
    112 H112       18.9815  -35.2938  -38.0444 H         1 UNK         0.3472 
    113 H113       18.4880  -36.9262  -38.4203 H         1 UNK         0.3472 
    114 H114       22.0718  -35.9735  -41.4040 H         1 UNK         0.0970 
    115 H115       22.5285  -34.3338  -41.1379 H         1 UNK         0.0970 
    116 H116       21.8082  -32.4310  -42.2206 H         1 UNK         0.0612 
    117 H117       22.3207  -33.1952  -43.7038 H         1 UNK         0.0612 
@<TRIPOS>BOND
     1    1    2 1    
     2    1   62 1    
     3    1   63 1    
     4    1   64 1    
     5    2    3 2    
     6    2    4 am   BACKBONE|DICT|INTERRES
     7    4    5 1    
     8    4   65 1    
     9    5    6 1    
    10    5   25 1    
    11    5   66 1    
    12    6    7 1    
    13    6   67 1    
    14    6   68 1    
    15    7    8 1    
    16    8    9 1    
    17    8   69 1    
    18    8   70 1    
    19    9   10 ar   
    20    9   14 ar   
    21   10   11 ar   
    22   10   71 1    
    23   11   12 ar   
    24   11   61 1    
    25   12   13 ar   
    26   12   72 1    
    27   13   14 ar   
    28   13   15 1    
    29   14   73 1    
    30   15   16 1    
    31   15   74 1    
    32   15   75 1    
    33   16   17 1    
    34   17   18 1    
    35   17   76 1    
    36   17   77 1    
    37   18   19 1    
    38   18   27 1    
    39   18   78 1    
    40   19   20 am   BACKBONE|DICT|INTERRES
    41   19   79 1    
    42   20   21 2    
    43   20   22 1    
    44   22   23 1    
    45   22   24 1    
    46   22   80 1    
    47   23   81 1    
    48   23   82 1    
    49   23   83 1    
    50   24   25 am   BACKBONE|DICT|INTERRES
    51   24   84 1    
    52   25   26 2    
    53   27   28 2    
    54   27   29 am   BACKBONE|DICT|INTERRES
    55   29   30 1    
    56   29   85 1    
    57   30   31 1    
    58   30   32 1    
    59   30   86 1    
    60   31   87 1    
    61   31   88 1    
    62   31   89 1    
    63   32   33 2    
    64   32   34 am   BACKBONE|DICT|INTERRES
    65   34   35 1    
    66   34   90 1    
    67   35   36 1    
    68   35   37 1    
    69   35   91 1    
    70   36   92 1    
    71   36   93 1    
    72   36   94 1    
    73   37   38 2    
    74   37   39 am   BACKBONE|DICT|INTERRES
    75   39   40 1    
    76   39   95 1    
    77   40   41 1    
    78   40   42 1    
    79   40   96 1    
    80   41   97 1    
    81   41   98 1    
    82   41   99 1    
    83   42   43 2    
    84   42   44 am   BACKBONE|DICT|INTERRES
    85   44   45 1    
    86   44  100 1    
    87   45   46 1    
    88   45   47 1    
    89   45  101 1    
    90   46  102 1    
    91   46  103 1    
    92   46  104 1    
    93   47   48 2    
    94   47   49 am   BACKBONE|DICT|INTERRES
    95   49   50 1    
    96   49  105 1    
    97   50   51 1    
    98   50   52 1    
    99   50  106 1    
   100   51  107 1    
   101   51  108 1    
   102   51  109 1    
   103   52   53 2    
   104   52   54 am   BACKBONE|DICT|INTERRES
   105   54   55 1    
   106   54  110 1    
   107   55   56 1    
   108   55   59 1    
   109   55  111 1    
   110   56   57 am   BACKBONE|DICT|INTERRES
   111   56   58 2    
   112   57  112 1    
   113   57  113 1    
   114   59   60 1    
   115   59  114 1    
   116   59  115 1    
   117   60   61 1    
   118   61  116 1    
   119   61  117 1    
@<TRIPOS>SUBSTRUCTURE
     1 UNK         1 GROUP             0       ****    0 ROOT    
