@<TRIPOS>MOLECULE
3R8
117   119    1
SMALL
USER_CHARGES


@<TRIPOS>ATOM
      1 CA         12.2966  -24.3451  -45.9264 C.3       0 UNK        -0.2013 
      2 C          13.8076  -24.4791  -45.8097 C.2       0 UNK         0.4866 
      3 O          14.4625  -23.5857  -45.2715 O.2       0 UNK        -0.5176 
      4 N          14.3674  -25.5833  -46.3179 N.am      1 UNK        -0.4884 
      5 CA         15.7900  -25.9239  -46.2231 C.3       1 UNK         0.0853 
      6 C6         16.1887  -26.9914  -47.2758 C.3       10 UNK        -0.0849 
      7 S7         15.2149  -28.5396  -47.1744 S.3       10 UNK        -0.2776 
      8 C8         16.4858  -29.8310  -47.3686 C.3       10 UNK         0.0316 
      9 C9         17.5821  -29.7636  -46.3120 C.ar      10 UNK        -0.0863 
     10 C10        17.2938  -30.0048  -44.9654 C.ar      10 UNK        -0.1009 
     11 C11        18.3085  -29.9765  -44.0020 C.ar      10 UNK        -0.0712 
     12 C12        19.6248  -29.7169  -44.4016 C.ar      10 UNK        -0.0894 
     13 C13        19.9241  -29.4689  -45.7455 C.ar      10 UNK        -0.0745 
     14 C14        18.8978  -29.4886  -46.6925 C.ar      10 UNK        -0.0972 
     15 C15        21.3550  -29.2141  -46.1969 C.3       10 UNK         0.0209 
     16 S16        21.8300  -27.4657  -46.0140 S.3       10 UNK        -0.2568 
     17 C17        22.4091  -27.4245  -44.2859 C.3       10 UNK        -0.0983 
     18 CA         21.6448  -26.4118  -43.3976 C.3       3 UNK         0.0876 
     19 N          20.1849  -26.5945  -43.4387 N.am      3 UNK        -0.4424 
     20 C          19.3067  -25.7442  -42.8903 C.2       2 UNK         0.4918 
     21 O          19.6247  -24.6726  -42.3726 O.2       2 UNK        -0.4875 
     22 CA         17.8300  -26.1491  -42.9563 C.3       2 UNK         0.0481 
     23 CB         16.9808  -25.4086  -41.8985 C.3       2 UNK        -0.1831 
     24 N          17.3285  -25.8967  -44.3053 N.am      2 UNK        -0.4498 
     25 C          16.1579  -26.3403  -44.7809 C.2       1 UNK         0.5027 
     26 O          15.3778  -27.0416  -44.1299 O.2       1 UNK        -0.4969 
     27 C          22.1975  -26.4866  -41.9581 C.2       3 UNK         0.5005 
     28 O          23.0961  -25.7201  -41.6070 O.2       3 UNK        -0.5279 
     29 N          21.6335  -27.4134  -41.1662 N.am      4 UNK        -0.4463 
     30 CA         21.9918  -27.7851  -39.7949 C.3       4 UNK         0.0283 
     31 CB         21.7500  -26.6252  -38.8062 C.3       4 UNK        -0.1875 
     32 C          23.4100  -28.3717  -39.6948 C.2       4 UNK         0.4949 
     33 O          23.5544  -29.5939  -39.6210 O.2       4 UNK        -0.5039 
     34 N          24.4185  -27.4927  -39.7014 N.am      5 UNK        -0.4663 
     35 CA         25.8421  -27.8240  -39.6418 C.3       5 UNK         0.0242 
     36 CB         26.6393  -26.5333  -39.3936 C.3       5 UNK        -0.1982 
     37 C          26.3287  -28.5174  -40.9243 C.2       5 UNK         0.5017 
     38 O          25.7399  -28.3234  -41.9911 O.2       5 UNK        -0.5012 
     39 N          27.3945  -29.3206  -40.7894 N.am      6 UNK        -0.4439 
     40 CA         28.0616  -30.1513  -41.8080 C.3       6 UNK         0.0297 
     41 CB         28.6139  -29.3009  -42.9689 C.3       6 UNK        -0.2006 
     42 C          27.2058  -31.3206  -42.3317 C.2       6 UNK         0.4892 
     43 O          27.7114  -32.4380  -42.4383 O.2       6 UNK        -0.5089 
     44 N          25.9265  -31.0533  -42.6165 N.am      7 UNK        -0.4243 
     45 CA         24.9089  -32.0317  -42.9986 C.3       7 UNK         0.0196 
     46 CB         23.7040  -31.2772  -43.5851 C.3       7 UNK        -0.2007 
     47 C          24.4554  -32.9250  -41.8296 C.2       7 UNK         0.5020 
     48 O          23.9192  -34.0036  -42.0830 O.2       7 UNK        -0.5147 
     49 N          24.6512  -32.4518  -40.5866 N.am      8 UNK        -0.4734 
     50 CA         24.1844  -33.0428  -39.3228 C.3       8 UNK         0.0238 
     51 CB         24.8854  -34.3897  -39.0437 C.3       8 UNK        -0.1912 
     52 C          22.6464  -33.1326  -39.2739 C.2       8 UNK         0.5038 
     53 O          22.0902  -34.1604  -38.8818 O.2       8 UNK        -0.5046 
     54 N          22.0026  -32.0450  -39.7109 N.am      9 UNK        -0.4200 
     55 CA         20.5504  -31.9057  -39.8815 C.3       9 UNK         0.0839 
     56 C          19.8761  -31.0825  -38.7426 C.2       9 UNK         0.5513 
     57 N          20.6066  -30.6274  -37.7307 N.am      9 UNK        -0.7519 
     58 O          18.6691  -30.8612  -38.7621 O.2       9 UNK        -0.4960 
     59 C59        20.2493  -31.3562  -41.3036 C.3       10 UNK        -0.0876 
     60 S60        18.6000  -31.8189  -41.9370 S.3       10 UNK        -0.2414 
     61 C61        17.9695  -30.2186  -42.5351 C.3       10 UNK         0.0169 
     62 H62        12.0415  -23.4462  -46.4871 H         1 UNK         0.0903 
     63 H63        11.8495  -25.1997  -46.4340 H         1 UNK         0.0903 
     64 H64        11.8497  -24.2675  -44.9356 H         1 UNK         0.0903 
     65 H65        13.7836  -26.3082  -46.7118 H         1 UNK         0.3096 
     66 H66        16.3527  -25.0165  -46.4554 H         1 UNK         0.1121 
     67 H67        16.0481  -26.5805  -48.2767 H         1 UNK         0.0849 
     68 H68        17.2555  -27.2056  -47.2032 H         1 UNK         0.0849 
     69 H69        16.0035  -30.8080  -47.3145 H         1 UNK         0.0865 
     70 H70        16.9074  -29.7585  -48.3724 H         1 UNK         0.0865 
     71 H71        16.2736  -30.2095  -44.6699 H         1 UNK         0.1346 
     72 H72        20.4185  -29.7219  -43.6702 H         1 UNK         0.1412 
     73 H73        19.1290  -29.3047  -47.7332 H         1 UNK         0.1426 
     74 H74        21.4651  -29.4883  -47.2473 H         1 UNK         0.0716 
     75 H75        22.0460  -29.8586  -45.6536 H         1 UNK         0.0716 
     76 H76        23.4714  -27.1716  -44.3074 H         1 UNK         0.0695 
     77 H77        22.3589  -28.4265  -43.8589 H         1 UNK         0.0695 
     78 H78        21.8573  -25.4081  -43.7729 H         1 UNK         0.0983 
     79 H79        19.8439  -27.4072  -43.9333 H         1 UNK         0.3095 
     80 H80        17.7705  -27.2197  -42.7555 H         1 UNK         0.0454 
     81 H81        16.9209  -24.3396  -42.1063 H         1 UNK         0.0851 
     82 H82        17.4095  -25.5246  -40.9022 H         1 UNK         0.0851 
     83 H83        15.9635  -25.7958  -41.8516 H         1 UNK         0.0851 
     84 H84        17.9254  -25.3306  -44.8939 H         1 UNK         0.2976 
     85 H85        20.8927  -27.9609  -41.5758 H         1 UNK         0.3116 
     86 H86        21.3065  -28.5844  -39.5158 H         1 UNK         0.0646 
     87 H87        21.9980  -26.9260  -37.7874 H         1 UNK         0.0847 
     88 H88        20.7027  -26.3235  -38.8065 H         1 UNK         0.0847 
     89 H89        22.3459  -25.7426  -39.0382 H         1 UNK         0.0847 
     90 H90        24.1839  -26.5336  -39.9279 H         1 UNK         0.3040 
     91 H91        25.9924  -28.5030  -38.7994 H         1 UNK         0.1015 
     92 H92        26.3317  -26.0488  -38.4666 H         1 UNK         0.0786 
     93 H93        26.5073  -25.8172  -40.2062 H         1 UNK         0.0786 
     94 H94        27.7075  -26.7385  -39.3106 H         1 UNK         0.0786 
     95 H95        27.7885  -29.4089  -39.8620 H         1 UNK         0.3172 
     96 H96        28.9183  -30.5983  -41.3009 H         1 UNK         0.0595 
     97 H97        27.8197  -28.8340  -43.5521 H         1 UNK         0.0839 
     98 H98        29.1974  -29.9156  -43.6556 H         1 UNK         0.0839 
     99 H99        29.2705  -28.5109  -42.6044 H         1 UNK         0.0839 
    100 H100       25.6271  -30.0860  -42.5117 H         1 UNK         0.2998 
    101 H101       25.3266  -32.6805  -43.7715 H         1 UNK         0.0822 
    102 H102       23.2529  -30.6081  -42.8509 H         1 UNK         0.0787 
    103 H103       23.9977  -30.6796  -44.4482 H         1 UNK         0.0787 
    104 H104       22.9300  -31.9704  -43.9178 H         1 UNK         0.0787 
    105 H105       25.0653  -31.5333  -40.5064 H         1 UNK         0.3055 
    106 H106       24.4726  -32.3504  -38.5298 H         1 UNK         0.1106 
    107 H107       24.5959  -35.1569  -39.7623 H         1 UNK         0.0828 
    108 H108       25.9698  -34.2874  -39.0811 H         1 UNK         0.0828 
    109 H109       24.6293  -34.7635  -38.0516 H         1 UNK         0.0828 
    110 H110       22.5578  -31.2198  -39.9188 H         1 UNK         0.2931 
    111 H111       20.1072  -32.9010  -39.8173 H         1 UNK         0.0412 
    112 H112       21.5960  -30.8120  -37.6886 H         1 UNK         0.3472 
    113 H113       20.1566  -30.1086  -36.9930 H         1 UNK         0.3472 
    114 H114       20.3928  -30.2764  -41.3304 H         1 UNK         0.0970 
    115 H115       20.9656  -31.7655  -42.0182 H         1 UNK         0.0970 
    116 H116       18.3526  -29.4049  -41.9191 H         1 UNK         0.0612 
    117 H117       16.8874  -30.2097  -42.3949 H         1 UNK         0.0612 
@<TRIPOS>BOND
     1    1    2 1    
     2    1   62 1    
     3    1   63 1    
     4    1   64 1    
     5    2    3 2    
     6    2    4 am   BACKBONE|DICT|INTERRES
     7    4    5 1    
     8    4   65 1    
     9    5    6 1    
    10    5   25 1    
    11    5   66 1    
    12    6    7 1    
    13    6   67 1    
    14    6   68 1    
    15    7    8 1    
    16    8    9 1    
    17    8   69 1    
    18    8   70 1    
    19    9   10 ar   
    20    9   14 ar   
    21   10   11 ar   
    22   10   71 1    
    23   11   12 ar   
    24   11   61 1    
    25   12   13 ar   
    26   12   72 1    
    27   13   14 ar   
    28   13   15 1    
    29   14   73 1    
    30   15   16 1    
    31   15   74 1    
    32   15   75 1    
    33   16   17 1    
    34   17   18 1    
    35   17   76 1    
    36   17   77 1    
    37   18   19 1    
    38   18   27 1    
    39   18   78 1    
    40   19   20 am   BACKBONE|DICT|INTERRES
    41   19   79 1    
    42   20   21 2    
    43   20   22 1    
    44   22   23 1    
    45   22   24 1    
    46   22   80 1    
    47   23   81 1    
    48   23   82 1    
    49   23   83 1    
    50   24   25 am   BACKBONE|DICT|INTERRES
    51   24   84 1    
    52   25   26 2    
    53   27   28 2    
    54   27   29 am   BACKBONE|DICT|INTERRES
    55   29   30 1    
    56   29   85 1    
    57   30   31 1    
    58   30   32 1    
    59   30   86 1    
    60   31   87 1    
    61   31   88 1    
    62   31   89 1    
    63   32   33 2    
    64   32   34 am   BACKBONE|DICT|INTERRES
    65   34   35 1    
    66   34   90 1    
    67   35   36 1    
    68   35   37 1    
    69   35   91 1    
    70   36   92 1    
    71   36   93 1    
    72   36   94 1    
    73   37   38 2    
    74   37   39 am   BACKBONE|DICT|INTERRES
    75   39   40 1    
    76   39   95 1    
    77   40   41 1    
    78   40   42 1    
    79   40   96 1    
    80   41   97 1    
    81   41   98 1    
    82   41   99 1    
    83   42   43 2    
    84   42   44 am   BACKBONE|DICT|INTERRES
    85   44   45 1    
    86   44  100 1    
    87   45   46 1    
    88   45   47 1    
    89   45  101 1    
    90   46  102 1    
    91   46  103 1    
    92   46  104 1    
    93   47   48 2    
    94   47   49 am   BACKBONE|DICT|INTERRES
    95   49   50 1    
    96   49  105 1    
    97   50   51 1    
    98   50   52 1    
    99   50  106 1    
   100   51  107 1    
   101   51  108 1    
   102   51  109 1    
   103   52   53 2    
   104   52   54 am   BACKBONE|DICT|INTERRES
   105   54   55 1    
   106   54  110 1    
   107   55   56 1    
   108   55   59 1    
   109   55  111 1    
   110   56   57 am   BACKBONE|DICT|INTERRES
   111   56   58 2    
   112   57  112 1    
   113   57  113 1    
   114   59   60 1    
   115   59  114 1    
   116   59  115 1    
   117   60   61 1    
   118   61  116 1    
   119   61  117 1    
@<TRIPOS>SUBSTRUCTURE
     1 UNK         1 GROUP             0       ****    0 ROOT    
