@<TRIPOS>MOLECULE
3R8
117   119    1
SMALL
USER_CHARGES


@<TRIPOS>ATOM
      1 CA         17.4179  -27.0588  -38.6506 C.3       0 UNK        -0.2013 
      2 C          16.9692  -27.3620  -40.0725 C.2       0 UNK         0.4866 
      3 O          15.9343  -28.0000  -40.2650 O.2       0 UNK        -0.5176 
      4 N          17.7350  -26.9025  -41.0668 N.am      1 UNK        -0.4884 
      5 CA         17.4774  -27.0741  -42.4947 C.3       1 UNK         0.0853 
      6 C6         17.7549  -28.5244  -42.9894 C.3       10 UNK        -0.0849 
      7 S7         16.3587  -29.1933  -43.9596 S.3       10 UNK        -0.2776 
      8 C8         17.0190  -29.2889  -45.6619 C.3       10 UNK         0.0316 
      9 C9         18.3022  -30.1043  -45.8051 C.ar      10 UNK        -0.0863 
     10 C10        18.5323  -31.2529  -45.0381 C.ar      10 UNK        -0.1009 
     11 C11        19.7221  -31.9722  -45.1721 C.ar      10 UNK        -0.0712 
     12 C12        20.6838  -31.5465  -46.0925 C.ar      10 UNK        -0.0894 
     13 C13        20.4648  -30.4092  -46.8760 C.ar      10 UNK        -0.0745 
     14 C14        19.2666  -29.7012  -46.7343 C.ar      10 UNK        -0.0972 
     15 C15        21.5293  -29.9578  -47.8721 C.3       10 UNK         0.0209 
     16 S16        21.9291  -28.1793  -47.7660 S.3       10 UNK        -0.2568 
     17 C17        22.4823  -28.0145  -46.0349 C.3       10 UNK        -0.0983 
     18 CA         22.1715  -26.6110  -45.4534 C.3       3 UNK         0.0876 
     19 N          20.7406  -26.3020  -45.4866 N.am      3 UNK        -0.4424 
     20 C          20.2292  -25.0668  -45.5589 C.2       2 UNK         0.4918 
     21 O          20.9161  -24.0498  -45.6672 O.2       2 UNK        -0.4875 
     22 CA         18.6975  -24.9362  -45.4687 C.3       2 UNK         0.0481 
     23 CB         18.0718  -25.0564  -46.8675 C.3       2 UNK        -0.1831 
     24 N          18.0550  -25.8979  -44.5640 N.am      2 UNK        -0.4498 
     25 C          18.3083  -26.0241  -43.2533 C.2       1 UNK         0.5027 
     26 O          19.1545  -25.3597  -42.6467 O.2       1 UNK        -0.4969 
     27 C          22.6645  -26.4660  -44.0016 C.2       3 UNK         0.5005 
     28 O          22.8637  -27.4730  -43.3230 O.2       3 UNK        -0.5279 
     29 N          22.8153  -25.2182  -43.5343 N.am      4 UNK        -0.4463 
     30 CA         23.0840  -24.8370  -42.1393 C.3       4 UNK         0.0283 
     31 CB         23.2585  -23.3123  -42.0590 C.3       4 UNK        -0.1875 
     32 C          24.2738  -25.5455  -41.4620 C.2       4 UNK         0.4949 
     33 O          24.2300  -25.7693  -40.2527 O.2       4 UNK        -0.5039 
     34 N          25.3000  -25.9024  -42.2455 N.am      5 UNK        -0.4663 
     35 CA         26.4690  -26.6573  -41.7857 C.3       5 UNK         0.0242 
     36 CB         27.6081  -26.4800  -42.8031 C.3       5 UNK        -0.1982 
     37 C          26.1893  -28.1554  -41.5538 C.2       5 UNK         0.5017 
     38 O          26.9175  -28.7813  -40.7827 O.2       5 UNK        -0.5012 
     39 N          25.1699  -28.7059  -42.2273 N.am      6 UNK        -0.4439 
     40 CA         24.7879  -30.1205  -42.1745 C.3       6 UNK         0.0297 
     41 CB         24.5777  -30.6286  -43.6112 C.3       6 UNK        -0.2006 
     42 C          23.5120  -30.3638  -41.3517 C.2       6 UNK         0.4892 
     43 O          23.2884  -31.5056  -40.9544 O.2       6 UNK        -0.5089 
     44 N          22.7185  -29.3036  -41.1268 N.am      7 UNK        -0.4243 
     45 CA         21.3429  -29.2196  -40.6084 C.3       7 UNK         0.0196 
     46 CB         21.0577  -27.7511  -40.2554 C.3       7 UNK        -0.2007 
     47 C          20.9073  -30.1349  -39.4474 C.2       7 UNK         0.5020 
     48 O          19.7039  -30.3310  -39.2733 O.2       7 UNK        -0.5147 
     49 N          21.8535  -30.7194  -38.7025 N.am      8 UNK        -0.4734 
     50 CA         21.6206  -31.8157  -37.7542 C.3       8 UNK         0.0238 
     51 CB         22.9420  -32.1576  -37.0474 C.3       8 UNK        -0.1912 
     52 C          21.0107  -33.0783  -38.4032 C.2       8 UNK         0.5038 
     53 O          20.3836  -33.8677  -37.6956 O.2       8 UNK        -0.5046 
     54 N          21.1726  -33.2304  -39.7265 N.am      9 UNK        -0.4200 
     55 CA         20.4595  -34.2065  -40.5651 C.3       9 UNK         0.0839 
     56 C          18.9162  -34.0028  -40.6595 C.2       9 UNK         0.5513 
     57 N          18.3588  -32.8656  -40.2572 N.am      9 UNK        -0.7519 
     58 O          18.2103  -34.9054  -41.1020 O.2       9 UNK        -0.4960 
     59 C59        21.1077  -34.3320  -41.9707 C.3       10 UNK        -0.0876 
     60 S60        21.0834  -32.7772  -42.9322 S.3       10 UNK        -0.2414 
     61 C61        19.9774  -33.1969  -44.3084 C.3       10 UNK         0.0169 
     62 H62        17.7741  -27.9704  -38.1707 H         1 UNK         0.0903 
     63 H63        18.2212  -26.3228  -38.6248 H         1 UNK         0.0903 
     64 H64        16.5848  -26.6680  -38.0669 H         1 UNK         0.0903 
     65 H65        18.5435  -26.3202  -40.8803 H         1 UNK         0.3096 
     66 H66        16.4283  -26.8139  -42.6552 H         1 UNK         0.1121 
     67 H67        17.8894  -29.2013  -42.1437 H         1 UNK         0.0849 
     68 H68        18.6887  -28.6027  -43.5495 H         1 UNK         0.0849 
     69 H69        16.2569  -29.7354  -46.3019 H         1 UNK         0.0865 
     70 H70        17.1701  -28.2755  -46.0341 H         1 UNK         0.0865 
     71 H71        17.7921  -31.5827  -44.3221 H         1 UNK         0.1346 
     72 H72        21.6081  -32.0999  -46.1880 H         1 UNK         0.1412 
     73 H73        19.0935  -28.8257  -47.3454 H         1 UNK         0.1426 
     74 H74        21.1795  -30.1787  -48.8812 H         1 UNK         0.0716 
     75 H75        22.4516  -30.5243  -47.7344 H         1 UNK         0.0716 
     76 H76        22.0127  -28.7885  -45.4260 H         1 UNK         0.0695 
     77 H77        23.5554  -28.2120  -46.0049 H         1 UNK         0.0695 
     78 H78        22.7126  -25.8807  -46.0596 H         1 UNK         0.0983 
     79 H79        20.1144  -27.0846  -45.3783 H         1 UNK         0.3095 
     80 H80        18.4791  -23.9375  -45.0852 H         1 UNK         0.0454 
     81 H81        18.5099  -24.3301  -47.5538 H         1 UNK         0.0851 
     82 H82        18.2294  -26.0456  -47.2992 H         1 UNK         0.0851 
     83 H83        16.9988  -24.8661  -46.8426 H         1 UNK         0.0851 
     84 H84        17.3260  -26.4698  -44.9644 H         1 UNK         0.2976 
     85 H85        22.5762  -24.4613  -44.1634 H         1 UNK         0.3116 
     86 H86        22.1920  -25.0989  -41.5678 H         1 UNK         0.0646 
     87 H87        23.4323  -22.9916  -41.0307 H         1 UNK         0.0847 
     88 H88        22.3679  -22.7911  -42.4108 H         1 UNK         0.0847 
     89 H89        24.1063  -22.9712  -42.6544 H         1 UNK         0.0847 
     90 H90        25.2561  -25.6720  -43.2278 H         1 UNK         0.3040 
     91 H91        26.7965  -26.2382  -40.8313 H         1 UNK         0.1015 
     92 H92        27.8739  -25.4294  -42.9228 H         1 UNK         0.0786 
     93 H93        27.3393  -26.8738  -43.7842 H         1 UNK         0.0786 
     94 H94        28.5077  -27.0042  -42.4772 H         1 UNK         0.0786 
     95 H95        24.5741  -28.1055  -42.7916 H         1 UNK         0.3172 
     96 H96        25.5863  -30.7115  -41.7214 H         1 UNK         0.0595 
     97 H97        25.4792  -30.5095  -44.2121 H         1 UNK         0.0839 
     98 H98        23.7661  -30.0989  -44.1114 H         1 UNK         0.0839 
     99 H99        24.3214  -31.6892  -43.6162 H         1 UNK         0.0839 
    100 H100       23.0203  -28.4513  -41.5842 H         1 UNK         0.2998 
    101 H101       20.6967  -29.4902  -41.4459 H         1 UNK         0.0822 
    102 H102       21.0283  -27.1325  -41.1521 H         1 UNK         0.0787 
    103 H103       20.0964  -27.6398  -39.7558 H         1 UNK         0.0787 
    104 H104       21.8172  -27.3437  -39.5869 H         1 UNK         0.0787 
    105 H105       22.8137  -30.5532  -38.9713 H         1 UNK         0.3055 
    106 H106       20.9067  -31.4624  -37.0070 H         1 UNK         0.1106 
    107 H107       23.7002  -32.4968  -37.7546 H         1 UNK         0.0828 
    108 H108       23.3413  -31.2960  -36.5122 H         1 UNK         0.0828 
    109 H109       22.7989  -32.9538  -36.3155 H         1 UNK         0.0828 
    110 H110       21.7443  -32.5540  -40.2245 H         1 UNK         0.2931 
    111 H111       20.5920  -35.1733  -40.0758 H         1 UNK         0.0412 
    112 H112       17.3595  -32.7593  -40.3243 H         1 UNK         0.3472 
    113 H113       18.9220  -32.1010  -39.9022 H         1 UNK         0.3472 
    114 H114       20.6318  -35.1310  -42.5422 H         1 UNK         0.0970 
    115 H115       22.1498  -34.6361  -41.8622 H         1 UNK         0.0970 
    116 H116       20.4254  -33.9904  -44.9083 H         1 UNK         0.0612 
    117 H117       19.0395  -33.5908  -43.9131 H         1 UNK         0.0612 
@<TRIPOS>BOND
     1    1    2 1    
     2    1   62 1    
     3    1   63 1    
     4    1   64 1    
     5    2    3 2    
     6    2    4 am   BACKBONE|DICT|INTERRES
     7    4    5 1    
     8    4   65 1    
     9    5    6 1    
    10    5   25 1    
    11    5   66 1    
    12    6    7 1    
    13    6   67 1    
    14    6   68 1    
    15    7    8 1    
    16    8    9 1    
    17    8   69 1    
    18    8   70 1    
    19    9   10 ar   
    20    9   14 ar   
    21   10   11 ar   
    22   10   71 1    
    23   11   12 ar   
    24   11   61 1    
    25   12   13 ar   
    26   12   72 1    
    27   13   14 ar   
    28   13   15 1    
    29   14   73 1    
    30   15   16 1    
    31   15   74 1    
    32   15   75 1    
    33   16   17 1    
    34   17   18 1    
    35   17   76 1    
    36   17   77 1    
    37   18   19 1    
    38   18   27 1    
    39   18   78 1    
    40   19   20 am   BACKBONE|DICT|INTERRES
    41   19   79 1    
    42   20   21 2    
    43   20   22 1    
    44   22   23 1    
    45   22   24 1    
    46   22   80 1    
    47   23   81 1    
    48   23   82 1    
    49   23   83 1    
    50   24   25 am   BACKBONE|DICT|INTERRES
    51   24   84 1    
    52   25   26 2    
    53   27   28 2    
    54   27   29 am   BACKBONE|DICT|INTERRES
    55   29   30 1    
    56   29   85 1    
    57   30   31 1    
    58   30   32 1    
    59   30   86 1    
    60   31   87 1    
    61   31   88 1    
    62   31   89 1    
    63   32   33 2    
    64   32   34 am   BACKBONE|DICT|INTERRES
    65   34   35 1    
    66   34   90 1    
    67   35   36 1    
    68   35   37 1    
    69   35   91 1    
    70   36   92 1    
    71   36   93 1    
    72   36   94 1    
    73   37   38 2    
    74   37   39 am   BACKBONE|DICT|INTERRES
    75   39   40 1    
    76   39   95 1    
    77   40   41 1    
    78   40   42 1    
    79   40   96 1    
    80   41   97 1    
    81   41   98 1    
    82   41   99 1    
    83   42   43 2    
    84   42   44 am   BACKBONE|DICT|INTERRES
    85   44   45 1    
    86   44  100 1    
    87   45   46 1    
    88   45   47 1    
    89   45  101 1    
    90   46  102 1    
    91   46  103 1    
    92   46  104 1    
    93   47   48 2    
    94   47   49 am   BACKBONE|DICT|INTERRES
    95   49   50 1    
    96   49  105 1    
    97   50   51 1    
    98   50   52 1    
    99   50  106 1    
   100   51  107 1    
   101   51  108 1    
   102   51  109 1    
   103   52   53 2    
   104   52   54 am   BACKBONE|DICT|INTERRES
   105   54   55 1    
   106   54  110 1    
   107   55   56 1    
   108   55   59 1    
   109   55  111 1    
   110   56   57 am   BACKBONE|DICT|INTERRES
   111   56   58 2    
   112   57  112 1    
   113   57  113 1    
   114   59   60 1    
   115   59  114 1    
   116   59  115 1    
   117   60   61 1    
   118   61  116 1    
   119   61  117 1    
@<TRIPOS>SUBSTRUCTURE
     1 UNK         1 GROUP             0       ****    0 ROOT    
