@<TRIPOS>MOLECULE
3R8
117   119    1
SMALL
USER_CHARGES


@<TRIPOS>ATOM
      1 CA         14.8216  -24.6693  -43.7330 C.3       0 UNK        -0.2013 
      2 C          16.0387  -25.5616  -43.9218 C.2       0 UNK         0.4866 
      3 O          15.9674  -26.5503  -44.6531 O.2       0 UNK        -0.5176 
      4 N          17.1621  -25.2182  -43.2787 N.am      1 UNK        -0.4884 
      5 CA         18.4315  -25.9558  -43.3190 C.3       1 UNK         0.0853 
      6 C6         19.2939  -25.6646  -42.0627 C.3       10 UNK        -0.0849 
      7 S7         18.6147  -26.4311  -40.5531 S.3       10 UNK        -0.2776 
      8 C8         19.6509  -27.9282  -40.4105 C.3       10 UNK         0.0316 
      9 C9         19.2525  -28.9816  -41.4355 C.ar      10 UNK        -0.0863 
     10 C10        18.2594  -29.9176  -41.1356 C.ar      10 UNK        -0.1009 
     11 C11        17.8596  -30.8614  -42.0872 C.ar      10 UNK        -0.0712 
     12 C12        18.4482  -30.8501  -43.3566 C.ar      10 UNK        -0.0894 
     13 C13        19.4495  -29.9244  -43.6683 C.ar      10 UNK        -0.0745 
     14 C14        19.8574  -29.0063  -42.6945 C.ar      10 UNK        -0.0972 
     15 C15        20.0377  -29.8740  -45.0742 C.3       10 UNK         0.0209 
     16 S16        21.8555  -29.7770  -45.0705 S.3       10 UNK        -0.2568 
     17 C17        22.2117  -29.2893  -46.7952 C.3       10 UNK        -0.0983 
     18 CA         22.4156  -27.7644  -47.0375 C.3       3 UNK         0.0876 
     19 N          21.2340  -26.9443  -46.7615 N.am      3 UNK        -0.4424 
     20 C          20.1492  -26.8748  -47.5385 C.2       2 UNK         0.4918 
     21 O          19.9852  -27.5760  -48.5384 O.2       2 UNK        -0.4875 
     22 CA         19.0723  -25.8454  -47.1331 C.3       2 UNK         0.0481 
     23 CB         17.8710  -25.8366  -48.0967 C.3       2 UNK        -0.1831 
     24 N          18.5733  -26.0407  -45.7697 N.am      2 UNK        -0.4498 
     25 C          19.2007  -25.7011  -44.6373 C.2       1 UNK         0.5027 
     26 O          20.3290  -25.2037  -44.6213 O.2       1 UNK        -0.4969 
     27 C          23.6311  -27.1664  -46.3069 C.2       3 UNK         0.5005 
     28 O          24.6368  -26.8496  -46.9445 O.2       3 UNK        -0.5279 
     29 N          23.4886  -26.9706  -44.9929 N.am      4 UNK        -0.4463 
     30 CA         24.4301  -26.3468  -44.0711 C.3       4 UNK         0.0283 
     31 CB         25.6260  -27.2779  -43.7971 C.3       4 UNK        -0.1875 
     32 C          23.6539  -26.0625  -42.7814 C.2       4 UNK         0.4949 
     33 O          22.6584  -26.7405  -42.5210 O.2       4 UNK        -0.5039 
     34 N          24.1209  -25.0840  -41.9939 N.am      5 UNK        -0.4663 
     35 CA         23.4615  -24.5971  -40.7715 C.3       5 UNK         0.0242 
     36 CB         24.2450  -23.3952  -40.2194 C.3       5 UNK        -0.1982 
     37 C          23.2613  -25.6587  -39.6726 C.2       5 UNK         0.5017 
     38 O          22.3226  -25.5412  -38.8845 O.2       5 UNK        -0.5012 
     39 N          24.1265  -26.6764  -39.6557 N.am      6 UNK        -0.4439 
     40 CA         23.9922  -27.8920  -38.8662 C.3       6 UNK         0.0297 
     41 CB         24.7870  -27.7666  -37.5554 C.3       6 UNK        -0.2006 
     42 C          24.5139  -29.0372  -39.7369 C.2       6 UNK         0.4892 
     43 O          25.6081  -28.9152  -40.2936 O.2       6 UNK        -0.5089 
     44 N          23.7220  -30.1076  -39.8546 N.am      7 UNK        -0.4243 
     45 CA         24.0263  -31.2674  -40.6986 C.3       7 UNK         0.0196 
     46 CB         23.5521  -30.9831  -42.1372 C.3       7 UNK        -0.2007 
     47 C          23.4095  -32.5771  -40.1814 C.2       7 UNK         0.5020 
     48 O          23.6424  -33.6189  -40.7957 O.2       7 UNK        -0.5147 
     49 N          22.5900  -32.5164  -39.1158 N.am      8 UNK        -0.4734 
     50 CA         21.7877  -33.6215  -38.5551 C.3       8 UNK         0.0238 
     51 CB         22.7029  -34.6591  -37.8701 C.3       8 UNK        -0.1912 
     52 C          20.8218  -34.2719  -39.5734 C.2       8 UNK         0.5038 
     53 O          20.4592  -35.4395  -39.4179 O.2       8 UNK        -0.5046 
     54 N          20.4502  -33.5031  -40.6058 N.am      9 UNK        -0.4200 
     55 CA         19.6987  -33.9208  -41.7982 C.3       9 UNK         0.0839 
     56 C          20.4334  -34.9632  -42.6962 C.2       9 UNK         0.5513 
     57 N          21.7477  -35.1252  -42.5878 N.am      9 UNK        -0.7519 
     58 O          19.8103  -35.6173  -43.5288 O.2       9 UNK        -0.4960 
     59 C59        18.2192  -34.3034  -41.5055 C.3       10 UNK        -0.0876 
     60 S60        17.3132  -33.0764  -40.4983 S.3       10 UNK        -0.2414 
     61 C61        16.7665  -31.8662  -41.7464 C.3       10 UNK         0.0169 
     62 H62        15.0268  -23.8349  -43.0626 H         1 UNK         0.0903 
     63 H63        14.5019  -24.2634  -44.6924 H         1 UNK         0.0903 
     64 H64        13.9966  -25.2452  -43.3146 H         1 UNK         0.0903 
     65 H65        17.1642  -24.3880  -42.7030 H         1 UNK         0.3096 
     66 H66        18.1894  -27.0197  -43.3195 H         1 UNK         0.1121 
     67 H67        20.3117  -26.0261  -42.1891 H         1 UNK         0.0849 
     68 H68        19.3881  -24.5894  -41.9015 H         1 UNK         0.0849 
     69 H69        20.7053  -27.6658  -40.5174 H         1 UNK         0.0865 
     70 H70        19.5436  -28.3345  -39.4037 H         1 UNK         0.0865 
     71 H71        17.7873  -29.9078  -40.1625 H         1 UNK         0.1346 
     72 H72        18.1216  -31.5603  -44.1039 H         1 UNK         0.1412 
     73 H73        20.6247  -28.2830  -42.9311 H         1 UNK         0.1426 
     74 H74        19.6249  -29.0038  -45.5833 H         1 UNK         0.0716 
     75 H75        19.7372  -30.7475  -45.6546 H         1 UNK         0.0716 
     76 H76        23.1076  -29.8283  -47.1082 H         1 UNK         0.0695 
     77 H77        21.4147  -29.6650  -47.4383 H         1 UNK         0.0695 
     78 H78        22.6329  -27.6454  -48.1017 H         1 UNK         0.0983 
     79 H79        21.2893  -26.3113  -45.9689 H         1 UNK         0.3095 
     80 H80        19.5407  -24.8606  -47.1876 H         1 UNK         0.0454 
     81 H81        18.1906  -25.6422  -49.1214 H         1 UNK         0.0851 
     82 H82        17.3448  -26.7920  -48.0938 H         1 UNK         0.0851 
     83 H83        17.1546  -25.0591  -47.8312 H         1 UNK         0.0851 
     84 H84        17.6384  -26.4283  -45.6751 H         1 UNK         0.2976 
     85 H85        22.6414  -27.2855  -44.5318 H         1 UNK         0.3116 
     86 H86        24.7761  -25.4037  -44.4988 H         1 UNK         0.0646 
     87 H87        26.1856  -27.4917  -44.7075 H         1 UNK         0.0847 
     88 H88        25.3051  -28.2289  -43.3712 H         1 UNK         0.0847 
     89 H89        26.3228  -26.8251  -43.0908 H         1 UNK         0.0847 
     90 H90        24.9544  -24.5899  -42.2809 H         1 UNK         0.3040 
     91 H91        22.4649  -24.2535  -41.0585 H         1 UNK         0.1015 
     92 H92        24.2964  -22.5850  -40.9471 H         1 UNK         0.0786 
     93 H93        25.2648  -23.6694  -39.9464 H         1 UNK         0.0786 
     94 H94        23.7654  -22.9935  -39.3253 H         1 UNK         0.0786 
     95 H95        24.8477  -26.7115  -40.3649 H         1 UNK         0.3172 
     96 H96        22.9395  -28.0690  -38.6339 H         1 UNK         0.0595 
     97 H97        24.4139  -26.9446  -36.9441 H         1 UNK         0.0839 
     98 H98        25.8473  -27.5904  -37.7415 H         1 UNK         0.0839 
     99 H99        24.7054  -28.6774  -36.9610 H         1 UNK         0.0839 
    100 H100       22.8218  -30.0942  -39.3998 H         1 UNK         0.2998 
    101 H101       25.1068  -31.4276  -40.7118 H         1 UNK         0.0822 
    102 H102       24.0340  -30.0975  -42.5500 H         1 UNK         0.0787 
    103 H103       23.7840  -31.8136  -42.8053 H         1 UNK         0.0787 
    104 H104       22.4740  -30.8218  -42.1796 H         1 UNK         0.0787 
    105 H105       22.4842  -31.6338  -38.6395 H         1 UNK         0.3055 
    106 H106       21.1509  -33.1839  -37.7843 H         1 UNK         0.1106 
    107 H107       23.3219  -35.1919  -38.5926 H         1 UNK         0.0828 
    108 H108       23.3651  -34.1871  -37.1445 H         1 UNK         0.0828 
    109 H109       22.1172  -35.4057  -37.3323 H         1 UNK         0.0828 
    110 H110       20.7987  -32.5574  -40.6312 H         1 UNK         0.2931 
    111 H111       19.6772  -33.0305  -42.4219 H         1 UNK         0.0412 
    112 H112       22.2095  -35.7948  -43.1821 H         1 UNK         0.3472 
    113 H113       22.2905  -34.5906  -41.9174 H         1 UNK         0.3472 
    114 H114       18.1813  -35.2583  -40.9789 H         1 UNK         0.0970 
    115 H115       17.6725  -34.4576  -42.4374 H         1 UNK         0.0970 
    116 H116       15.9056  -31.3257  -41.3506 H         1 UNK         0.0612 
    117 H117       16.4144  -32.3867  -42.6382 H         1 UNK         0.0612 
@<TRIPOS>BOND
     1    1    2 1    
     2    1   62 1    
     3    1   63 1    
     4    1   64 1    
     5    2    3 2    
     6    2    4 am   BACKBONE|DICT|INTERRES
     7    4    5 1    
     8    4   65 1    
     9    5    6 1    
    10    5   25 1    
    11    5   66 1    
    12    6    7 1    
    13    6   67 1    
    14    6   68 1    
    15    7    8 1    
    16    8    9 1    
    17    8   69 1    
    18    8   70 1    
    19    9   10 ar   
    20    9   14 ar   
    21   10   11 ar   
    22   10   71 1    
    23   11   12 ar   
    24   11   61 1    
    25   12   13 ar   
    26   12   72 1    
    27   13   14 ar   
    28   13   15 1    
    29   14   73 1    
    30   15   16 1    
    31   15   74 1    
    32   15   75 1    
    33   16   17 1    
    34   17   18 1    
    35   17   76 1    
    36   17   77 1    
    37   18   19 1    
    38   18   27 1    
    39   18   78 1    
    40   19   20 am   BACKBONE|DICT|INTERRES
    41   19   79 1    
    42   20   21 2    
    43   20   22 1    
    44   22   23 1    
    45   22   24 1    
    46   22   80 1    
    47   23   81 1    
    48   23   82 1    
    49   23   83 1    
    50   24   25 am   BACKBONE|DICT|INTERRES
    51   24   84 1    
    52   25   26 2    
    53   27   28 2    
    54   27   29 am   BACKBONE|DICT|INTERRES
    55   29   30 1    
    56   29   85 1    
    57   30   31 1    
    58   30   32 1    
    59   30   86 1    
    60   31   87 1    
    61   31   88 1    
    62   31   89 1    
    63   32   33 2    
    64   32   34 am   BACKBONE|DICT|INTERRES
    65   34   35 1    
    66   34   90 1    
    67   35   36 1    
    68   35   37 1    
    69   35   91 1    
    70   36   92 1    
    71   36   93 1    
    72   36   94 1    
    73   37   38 2    
    74   37   39 am   BACKBONE|DICT|INTERRES
    75   39   40 1    
    76   39   95 1    
    77   40   41 1    
    78   40   42 1    
    79   40   96 1    
    80   41   97 1    
    81   41   98 1    
    82   41   99 1    
    83   42   43 2    
    84   42   44 am   BACKBONE|DICT|INTERRES
    85   44   45 1    
    86   44  100 1    
    87   45   46 1    
    88   45   47 1    
    89   45  101 1    
    90   46  102 1    
    91   46  103 1    
    92   46  104 1    
    93   47   48 2    
    94   47   49 am   BACKBONE|DICT|INTERRES
    95   49   50 1    
    96   49  105 1    
    97   50   51 1    
    98   50   52 1    
    99   50  106 1    
   100   51  107 1    
   101   51  108 1    
   102   51  109 1    
   103   52   53 2    
   104   52   54 am   BACKBONE|DICT|INTERRES
   105   54   55 1    
   106   54  110 1    
   107   55   56 1    
   108   55   59 1    
   109   55  111 1    
   110   56   57 am   BACKBONE|DICT|INTERRES
   111   56   58 2    
   112   57  112 1    
   113   57  113 1    
   114   59   60 1    
   115   59  114 1    
   116   59  115 1    
   117   60   61 1    
   118   61  116 1    
   119   61  117 1    
@<TRIPOS>SUBSTRUCTURE
     1 UNK         1 GROUP             0       ****    0 ROOT    
