@<TRIPOS>MOLECULE
3R8
117   119    1
SMALL
USER_CHARGES


@<TRIPOS>ATOM
      1 CA         13.4716  -22.0344  -43.7431 C.3       0 UNK        -0.2013 
      2 C          14.5337  -23.0146  -44.2184 C.2       0 UNK         0.4866 
      3 O          15.2627  -22.7160  -45.1650 O.2       0 UNK        -0.5176 
      4 N          14.6225  -24.1858  -43.5752 N.am      1 UNK        -0.4884 
      5 CA         15.6299  -25.2142  -43.8523 C.3       1 UNK         0.0853 
      6 C6         15.2136  -26.5755  -43.2414 C.3       10 UNK        -0.0849 
      7 S7         16.0706  -27.9882  -44.0138 S.3       10 UNK        -0.2776 
      8 C8         17.2761  -28.4193  -42.7203 C.3       10 UNK         0.0316 
      9 C9         18.0679  -29.6552  -43.1133 C.ar      10 UNK        -0.0863 
     10 C10        17.6214  -30.9228  -42.7313 C.ar      10 UNK        -0.1009 
     11 C11        18.3312  -32.0663  -43.1043 C.ar      10 UNK        -0.0712 
     12 C12        19.4962  -31.9319  -43.8649 C.ar      10 UNK        -0.0894 
     13 C13        19.9600  -30.6715  -44.2576 C.ar      10 UNK        -0.0745 
     14 C14        19.2391  -29.5337  -43.8676 C.ar      10 UNK        -0.0972 
     15 C15        21.2320  -30.6080  -45.1076 C.3       10 UNK         0.0209 
     16 S16        21.5664  -29.0136  -45.9347 S.3       10 UNK        -0.2568 
     17 C17        22.5571  -28.1769  -44.6594 C.3       10 UNK        -0.0983 
     18 CA         22.6329  -26.6402  -44.8679 C.3       3 UNK         0.0876 
     19 N          21.5527  -25.9300  -44.1901 N.am      3 UNK        -0.4424 
     20 C          20.3496  -25.6385  -44.6853 C.2       2 UNK         0.4918 
     21 O          19.9434  -25.9902  -45.7950 O.2       2 UNK        -0.4875 
     22 CA         19.4577  -24.7723  -43.7899 C.3       2 UNK         0.0481 
     23 CB         19.7811  -23.2775  -43.9760 C.3       2 UNK        -0.1831 
     24 N          18.0618  -25.0366  -44.1208 N.am      2 UNK        -0.4498 
     25 C          17.0132  -24.7657  -43.3372 C.2       1 UNK         0.5027 
     26 O          17.1032  -24.2200  -42.2338 O.2       1 UNK        -0.4969 
     27 C          23.9366  -26.0779  -44.2794 C.2       3 UNK         0.5005 
     28 O          23.9370  -25.6251  -43.1303 O.2       3 UNK        -0.5279 
     29 N          25.0357  -26.1560  -45.0430 N.am      4 UNK        -0.4463 
     30 CA         26.3715  -25.7026  -44.6270 C.3       4 UNK         0.0283 
     31 CB         27.3329  -25.7734  -45.8243 C.3       4 UNK        -0.1875 
     32 C          26.9468  -26.4830  -43.4292 C.2       4 UNK         0.4949 
     33 O          27.6967  -25.9133  -42.6371 O.2       4 UNK        -0.5039 
     34 N          26.5596  -27.7590  -43.3069 N.am      5 UNK        -0.4663 
     35 CA         26.8911  -28.6431  -42.1858 C.3       5 UNK         0.0242 
     36 CB         27.1027  -30.0647  -42.7382 C.3       5 UNK        -0.1982 
     37 C          25.8116  -28.6392  -41.0831 C.2       5 UNK         0.5017 
     38 O          25.9040  -29.4558  -40.1652 O.2       5 UNK        -0.5012 
     39 N          24.8075  -27.7531  -41.2000 N.am      6 UNK        -0.4439 
     40 CA         23.5667  -27.6826  -40.4171 C.3       6 UNK         0.0297 
     41 CB         23.8576  -27.4933  -38.9115 C.3       6 UNK        -0.2006 
     42 C          22.6323  -28.8774  -40.6939 C.2       6 UNK         0.4892 
     43 O          22.9380  -29.7374  -41.5247 O.2       6 UNK        -0.5089 
     44 N          21.4895  -28.9137  -39.9967 N.am      7 UNK        -0.4243 
     45 CA         20.4698  -29.9644  -40.0935 C.3       7 UNK         0.0196 
     46 CB         19.1289  -29.4053  -39.5827 C.3       7 UNK        -0.2007 
     47 C          20.8895  -31.2608  -39.3682 C.2       7 UNK         0.5020 
     48 O          20.1605  -31.7564  -38.5079 O.2       7 UNK        -0.5147 
     49 N          22.0758  -31.7761  -39.7124 N.am      8 UNK        -0.4734 
     50 CA         22.6291  -33.0326  -39.2027 C.3       8 UNK         0.0238 
     51 CB         24.1492  -33.0430  -39.4327 C.3       8 UNK        -0.1912 
     52 C          21.9719  -34.2613  -39.8529 C.2       8 UNK         0.5038 
     53 O          21.8579  -35.2999  -39.2012 O.2       8 UNK        -0.5046 
     54 N          21.5497  -34.1075  -41.1161 N.am      9 UNK        -0.4200 
     55 CA         20.8161  -35.0950  -41.9265 C.3       9 UNK         0.0839 
     56 C          21.6143  -36.3875  -42.2782 C.2       9 UNK         0.5513 
     57 N          22.9381  -36.3927  -42.1780 N.am      9 UNK        -0.7519 
     58 O          21.0322  -37.3918  -42.6806 O.2       9 UNK        -0.4960 
     59 C59        19.3912  -35.3971  -41.3767 C.3       10 UNK        -0.0876 
     60 S60        18.3985  -33.8995  -41.0407 S.3       10 UNK        -0.2414 
     61 C61        17.8211  -33.4431  -42.7044 C.3       10 UNK         0.0169 
     62 H62        12.7829  -21.8041  -44.5555 H         1 UNK         0.0903 
     63 H63        12.8920  -22.4321  -42.9101 H         1 UNK         0.0903 
     64 H64        13.9382  -21.1049  -43.4179 H         1 UNK         0.0903 
     65 H65        14.0208  -24.3619  -42.7828 H         1 UNK         0.3096 
     66 H66        15.6836  -25.3255  -44.9383 H         1 UNK         0.1121 
     67 H67        14.1473  -26.7399  -43.4059 H         1 UNK         0.0849 
     68 H68        15.3471  -26.5871  -42.1575 H         1 UNK         0.0849 
     69 H69        16.7545  -28.5945  -41.7778 H         1 UNK         0.0865 
     70 H70        17.9526  -27.5811  -42.5479 H         1 UNK         0.0865 
     71 H71        16.7148  -31.0215  -42.1498 H         1 UNK         0.1346 
     72 H72        20.0393  -32.8153  -44.1688 H         1 UNK         0.1412 
     73 H73        19.5704  -28.5479  -44.1594 H         1 UNK         0.1426 
     74 H74        21.1657  -31.3674  -45.8882 H         1 UNK         0.0716 
     75 H75        22.0875  -30.8815  -44.4878 H         1 UNK         0.0716 
     76 H76        23.5453  -28.6405  -44.6893 H         1 UNK         0.0695 
     77 H77        22.1484  -28.4093  -43.6754 H         1 UNK         0.0695 
     78 H78        22.6159  -26.3954  -45.9326 H         1 UNK         0.0983 
     79 H79        21.8397  -25.5418  -43.2993 H         1 UNK         0.3095 
     80 H80        19.6335  -25.0573  -42.7502 H         1 UNK         0.0454 
     81 H81        19.1837  -22.6527  -43.3122 H         1 UNK         0.0851 
     82 H82        19.5931  -22.9514  -44.9997 H         1 UNK         0.0851 
     83 H83        20.8286  -23.0703  -43.7541 H         1 UNK         0.0851 
     84 H84        17.9307  -25.5220  -45.0007 H         1 UNK         0.2976 
     85 H85        24.9597  -26.5461  -45.9726 H         1 UNK         0.3116 
     86 H86        26.2855  -24.6573  -44.3221 H         1 UNK         0.0646 
     87 H87        28.3265  -25.4176  -45.5477 H         1 UNK         0.0847 
     88 H88        26.9879  -25.1505  -46.6498 H         1 UNK         0.0847 
     89 H89        27.4450  -26.7931  -46.1949 H         1 UNK         0.0847 
     90 H90        25.9482  -28.1404  -44.0141 H         1 UNK         0.3040 
     91 H91        27.8239  -28.3158  -41.7211 H         1 UNK         0.1015 
     92 H92        27.8724  -30.0807  -43.5101 H         1 UNK         0.0786 
     93 H93        26.1855  -30.4705  -43.1675 H         1 UNK         0.0786 
     94 H94        27.4239  -30.7490  -41.9517 H         1 UNK         0.0786 
     95 H95        24.8362  -27.1150  -41.9872 H         1 UNK         0.3172 
     96 H96        23.0448  -26.7925  -40.7709 H         1 UNK         0.0595 
     97 H97        24.2245  -28.4097  -38.4477 H         1 UNK         0.0839 
     98 H98        22.9620  -27.1931  -38.3673 H         1 UNK         0.0839 
     99 H99        24.6030  -26.7151  -38.7472 H         1 UNK         0.0839 
    100 H100       21.3173  -28.1893  -39.3149 H         1 UNK         0.2998 
    101 H101       20.3381  -30.2226  -41.1467 H         1 UNK         0.0822 
    102 H102       18.8392  -28.5081  -40.1291 H         1 UNK         0.0787 
    103 H103       18.3290  -30.1355  -39.7144 H         1 UNK         0.0787 
    104 H104       19.1727  -29.1539  -38.5224 H         1 UNK         0.0787 
    105 H105       22.6166  -31.2700  -40.4099 H         1 UNK         0.3055 
    106 H106       22.4411  -33.0871  -38.1279 H         1 UNK         0.1106 
    107 H107       24.5968  -33.9592  -39.0450 H         1 UNK         0.0828 
    108 H108       24.4005  -32.9781  -40.4922 H         1 UNK         0.0828 
    109 H109       24.6320  -32.2071  -38.9256 H         1 UNK         0.0828 
    110 H110       21.6983  -33.2102  -41.5521 H         1 UNK         0.2931 
    111 H111       20.6792  -34.6100  -42.8917 H         1 UNK         0.0412 
    112 H112       23.4298  -35.5741  -41.8578 H         1 UNK         0.3472 
    113 H113       23.4486  -37.2284  -42.4175 H         1 UNK         0.3472 
    114 H114       18.8349  -36.0324  -42.0682 H         1 UNK         0.0970 
    115 H115       19.4635  -35.9651  -40.4478 H         1 UNK         0.0970 
    116 H116       18.1327  -34.1877  -43.4383 H         1 UNK         0.0612 
    117 H117       16.7302  -33.4507  -42.7115 H         1 UNK         0.0612 
@<TRIPOS>BOND
     1    1    2 1    
     2    1   62 1    
     3    1   63 1    
     4    1   64 1    
     5    2    3 2    
     6    2    4 am   BACKBONE|DICT|INTERRES
     7    4    5 1    
     8    4   65 1    
     9    5    6 1    
    10    5   25 1    
    11    5   66 1    
    12    6    7 1    
    13    6   67 1    
    14    6   68 1    
    15    7    8 1    
    16    8    9 1    
    17    8   69 1    
    18    8   70 1    
    19    9   10 ar   
    20    9   14 ar   
    21   10   11 ar   
    22   10   71 1    
    23   11   12 ar   
    24   11   61 1    
    25   12   13 ar   
    26   12   72 1    
    27   13   14 ar   
    28   13   15 1    
    29   14   73 1    
    30   15   16 1    
    31   15   74 1    
    32   15   75 1    
    33   16   17 1    
    34   17   18 1    
    35   17   76 1    
    36   17   77 1    
    37   18   19 1    
    38   18   27 1    
    39   18   78 1    
    40   19   20 am   BACKBONE|DICT|INTERRES
    41   19   79 1    
    42   20   21 2    
    43   20   22 1    
    44   22   23 1    
    45   22   24 1    
    46   22   80 1    
    47   23   81 1    
    48   23   82 1    
    49   23   83 1    
    50   24   25 am   BACKBONE|DICT|INTERRES
    51   24   84 1    
    52   25   26 2    
    53   27   28 2    
    54   27   29 am   BACKBONE|DICT|INTERRES
    55   29   30 1    
    56   29   85 1    
    57   30   31 1    
    58   30   32 1    
    59   30   86 1    
    60   31   87 1    
    61   31   88 1    
    62   31   89 1    
    63   32   33 2    
    64   32   34 am   BACKBONE|DICT|INTERRES
    65   34   35 1    
    66   34   90 1    
    67   35   36 1    
    68   35   37 1    
    69   35   91 1    
    70   36   92 1    
    71   36   93 1    
    72   36   94 1    
    73   37   38 2    
    74   37   39 am   BACKBONE|DICT|INTERRES
    75   39   40 1    
    76   39   95 1    
    77   40   41 1    
    78   40   42 1    
    79   40   96 1    
    80   41   97 1    
    81   41   98 1    
    82   41   99 1    
    83   42   43 2    
    84   42   44 am   BACKBONE|DICT|INTERRES
    85   44   45 1    
    86   44  100 1    
    87   45   46 1    
    88   45   47 1    
    89   45  101 1    
    90   46  102 1    
    91   46  103 1    
    92   46  104 1    
    93   47   48 2    
    94   47   49 am   BACKBONE|DICT|INTERRES
    95   49   50 1    
    96   49  105 1    
    97   50   51 1    
    98   50   52 1    
    99   50  106 1    
   100   51  107 1    
   101   51  108 1    
   102   51  109 1    
   103   52   53 2    
   104   52   54 am   BACKBONE|DICT|INTERRES
   105   54   55 1    
   106   54  110 1    
   107   55   56 1    
   108   55   59 1    
   109   55  111 1    
   110   56   57 am   BACKBONE|DICT|INTERRES
   111   56   58 2    
   112   57  112 1    
   113   57  113 1    
   114   59   60 1    
   115   59  114 1    
   116   59  115 1    
   117   60   61 1    
   118   61  116 1    
   119   61  117 1    
@<TRIPOS>SUBSTRUCTURE
     1 UNK         1 GROUP             0       ****    0 ROOT    
