@<TRIPOS>MOLECULE
3R8
117   119    1
SMALL
USER_CHARGES


@<TRIPOS>ATOM
      1 CA         15.6433  -22.1294  -42.4621 C.3       0 UNK        -0.2013 
      2 C          16.0363  -23.2114  -43.4570 C.2       0 UNK         0.4866 
      3 O          15.8233  -23.0448  -44.6586 O.2       0 UNK        -0.5176 
      4 N          16.5989  -24.3225  -42.9654 N.am      1 UNK        -0.4884 
      5 CA         17.0920  -25.4408  -43.7761 C.3       1 UNK         0.0853 
      6 C6         17.3854  -26.6879  -42.9042 C.3       10 UNK        -0.0849 
      7 S7         15.8870  -27.6928  -42.6454 S.3       10 UNK        -0.2776 
      8 C8         15.9757  -28.8609  -44.0472 C.3       10 UNK         0.0316 
      9 C9         17.1997  -29.7632  -43.9644 C.ar      10 UNK        -0.0863 
     10 C10        17.2449  -30.7870  -43.0138 C.ar      10 UNK        -0.1009 
     11 C11        18.3783  -31.5946  -42.8984 C.ar      10 UNK        -0.0712 
     12 C12        19.4633  -31.3838  -43.7522 C.ar      10 UNK        -0.0894 
     13 C13        19.4370  -30.3585  -44.7031 C.ar      10 UNK        -0.0745 
     14 C14        18.2936  -29.5610  -44.8153 C.ar      10 UNK        -0.0972 
     15 C15        20.6520  -30.1052  -45.5883 C.3       10 UNK         0.0209 
     16 S16        22.1452  -29.8439  -44.5784 S.3       10 UNK        -0.2568 
     17 C17        22.8781  -28.3195  -45.2716 C.3       10 UNK        -0.0983 
     18 CA         22.3607  -26.9713  -44.6873 C.3       3 UNK         0.0876 
     19 N          21.0834  -26.5718  -45.2770 N.am      3 UNK        -0.4424 
     20 C          20.9522  -25.7159  -46.2980 C.2       2 UNK         0.4918 
     21 O          21.9031  -25.1842  -46.8719 O.2       2 UNK        -0.4875 
     22 CA         19.5241  -25.3838  -46.7715 C.3       2 UNK         0.0481 
     23 CB         19.2052  -26.1575  -48.0613 C.3       2 UNK        -0.1831 
     24 N          18.4598  -25.6340  -45.7923 N.am      2 UNK        -0.4498 
     25 C          18.3387  -25.0456  -44.5931 C.2       1 UNK         0.5027 
     26 O          19.1787  -24.2805  -44.1129 O.2       1 UNK        -0.4969 
     27 C          22.3021  -26.8898  -43.1468 C.2       3 UNK         0.5005 
     28 O          22.9991  -27.6506  -42.4764 O.2       3 UNK        -0.5279 
     29 N          21.4902  -25.9693  -42.5964 N.am      4 UNK        -0.4463 
     30 CA         21.1993  -25.8246  -41.1586 C.3       4 UNK         0.0283 
     31 CB         20.2987  -24.5975  -40.9402 C.3       4 UNK        -0.1875 
     32 C          22.4233  -25.7379  -40.2242 C.2       4 UNK         0.4949 
     33 O          22.3388  -26.1855  -39.0808 O.2       4 UNK        -0.5039 
     34 N          23.5349  -25.1806  -40.7231 N.am      5 UNK        -0.4663 
     35 CA         24.8136  -25.1001  -40.0114 C.3       5 UNK         0.0242 
     36 CB         25.6963  -24.0411  -40.6922 C.3       5 UNK        -0.1982 
     37 C          25.5623  -26.4452  -39.9248 C.2       5 UNK         0.5017 
     38 O          26.3990  -26.6008  -39.0344 O.2       5 UNK        -0.5012 
     39 N          25.2722  -27.3745  -40.8452 N.am      6 UNK        -0.4439 
     40 CA         25.8759  -28.7053  -40.9216 C.3       6 UNK         0.0297 
     41 CB         26.2166  -29.0296  -42.3865 C.3       6 UNK        -0.2006 
     42 C          24.9408  -29.7765  -40.3427 C.2       6 UNK         0.4892 
     43 O          25.4151  -30.6378  -39.6017 O.2       6 UNK        -0.5089 
     44 N          23.6449  -29.6976  -40.6904 N.am      7 UNK        -0.4243 
     45 CA         22.5602  -30.6189  -40.3288 C.3       7 UNK         0.0196 
     46 CB         22.2338  -30.5138  -38.8247 C.3       7 UNK        -0.2007 
     47 C          22.8607  -32.0597  -40.7834 C.2       7 UNK         0.5020 
     48 O          23.0001  -32.9627  -39.9556 O.2       7 UNK        -0.5147 
     49 N          22.9732  -32.2371  -42.1081 N.am      8 UNK        -0.4734 
     50 CA         23.4207  -33.4631  -42.7882 C.3       8 UNK         0.0238 
     51 CB         23.4765  -33.2005  -44.3025 C.3       8 UNK        -0.1912 
     52 C          22.6150  -34.7465  -42.4989 C.2       8 UNK         0.5038 
     53 O          23.1114  -35.8356  -42.7911 O.2       8 UNK        -0.5046 
     54 N          21.4095  -34.6101  -41.9333 N.am      9 UNK        -0.4200 
     55 CA         20.5753  -35.7214  -41.4470 C.3       9 UNK         0.0839 
     56 C          21.1661  -36.4609  -40.2105 C.2       9 UNK         0.5513 
     57 N          22.0884  -35.8669  -39.4601 N.am      9 UNK        -0.7519 
     58 O          20.7767  -37.5912  -39.9293 O.2       9 UNK        -0.4960 
     59 C59        19.1136  -35.2845  -41.1548 C.3       10 UNK        -0.0876 
     60 S60        18.3527  -34.3355  -42.5155 S.3       10 UNK        -0.2414 
     61 C61        18.4624  -32.6591  -41.8192 C.3       10 UNK         0.0169 
     62 H62        15.8792  -22.4125  -41.4363 H         1 UNK         0.0903 
     63 H63        16.1715  -21.2034  -42.6878 H         1 UNK         0.0903 
     64 H64        14.5728  -21.9349  -42.5224 H         1 UNK         0.0903 
     65 H65        16.7498  -24.4008  -41.9702 H         1 UNK         0.3096 
     66 H66        16.3071  -25.6853  -44.4961 H         1 UNK         0.1121 
     67 H67        18.1632  -27.3193  -43.3324 H         1 UNK         0.0849 
     68 H68        17.7751  -26.3994  -41.9272 H         1 UNK         0.0849 
     69 H69        15.0750  -29.4766  -44.0506 H         1 UNK         0.0865 
     70 H70        15.9642  -28.3051  -44.9858 H         1 UNK         0.0865 
     71 H71        16.4060  -30.9355  -42.3472 H         1 UNK         0.1346 
     72 H72        20.3425  -32.0060  -43.6601 H         1 UNK         0.1412 
     73 H73        18.2624  -28.7704  -45.5517 H         1 UNK         0.1426 
     74 H74        20.8090  -30.9650  -46.2408 H         1 UNK         0.0716 
     75 H75        20.4857  -29.2467  -46.2401 H         1 UNK         0.0716 
     76 H76        23.9523  -28.3874  -45.0927 H         1 UNK         0.0695 
     77 H77        22.7709  -28.3307  -46.3574 H         1 UNK         0.0695 
     78 H78        23.1088  -26.2195  -44.9486 H         1 UNK         0.0983 
     79 H79        20.2568  -26.9739  -44.8621 H         1 UNK         0.3095 
     80 H80        19.5050  -24.3168  -47.0026 H         1 UNK         0.0454 
     81 H81        19.1795  -27.2347  -47.8919 H         1 UNK         0.0851 
     82 H82        18.2437  -25.8584  -48.4788 H         1 UNK         0.0851 
     83 H83        19.9582  -25.9680  -48.8279 H         1 UNK         0.0851 
     84 H84        17.7191  -26.2463  -46.1021 H         1 UNK         0.2976 
     85 H85        20.9782  -25.3516  -43.2154 H         1 UNK         0.3116 
     86 H86        20.6390  -26.7135  -40.8619 H         1 UNK         0.0646 
     87 H87        20.0629  -24.4662  -39.8830 H         1 UNK         0.0847 
     88 H88        19.3512  -24.6933  -41.4666 H         1 UNK         0.0847 
     89 H89        20.7785  -23.6800  -41.2830 H         1 UNK         0.0847 
     90 H90        23.5118  -24.8304  -41.6698 H         1 UNK         0.3040 
     91 H91        24.6171  -24.7736  -38.9874 H         1 UNK         0.1015 
     92 H92        25.2142  -23.0632  -40.6937 H         1 UNK         0.0786 
     93 H93        25.9231  -24.3072  -41.7254 H         1 UNK         0.0786 
     94 H94        26.6471  -23.9301  -40.1686 H         1 UNK         0.0786 
     95 H95        24.5072  -27.1960  -41.4913 H         1 UNK         0.3172 
     96 H96        26.8069  -28.7269  -40.3512 H         1 UNK         0.0595 
     97 H97        26.6830  -30.0123  -42.4690 H         1 UNK         0.0839 
     98 H98        26.9161  -28.3032  -42.8000 H         1 UNK         0.0839 
     99 H99        25.3291  -29.0375  -43.0205 H         1 UNK         0.0839 
    100 H100       23.3808  -28.9547  -41.3376 H         1 UNK         0.2998 
    101 H101       21.6777  -30.2906  -40.8810 H         1 UNK         0.0822 
    102 H102       21.9847  -29.4895  -38.5463 H         1 UNK         0.0787 
    103 H103       21.3780  -31.1391  -38.5678 H         1 UNK         0.0787 
    104 H104       23.0698  -30.8357  -38.2028 H         1 UNK         0.0787 
    105 H105       22.8422  -31.4285  -42.7029 H         1 UNK         0.3055 
    106 H106       24.4375  -33.6596  -42.4415 H         1 UNK         0.1106 
    107 H107       23.8598  -34.0700  -44.8385 H         1 UNK         0.0828 
    108 H108       22.4897  -32.9779  -44.7097 H         1 UNK         0.0828 
    109 H109       24.1349  -32.3643  -44.5386 H         1 UNK         0.0828 
    110 H110       21.0901  -33.6804  -41.7154 H         1 UNK         0.2931 
    111 H111       20.5354  -36.4561  -42.2538 H         1 UNK         0.0412 
    112 H112       22.4653  -36.3541  -38.6626 H         1 UNK         0.3472 
    113 H113       22.4054  -34.9272  -39.6740 H         1 UNK         0.3472 
    114 H114       19.0617  -34.7025  -40.2323 H         1 UNK         0.0970 
    115 H115       18.4921  -36.1650  -40.9805 H         1 UNK         0.0970 
    116 H116       19.4052  -32.5364  -41.2844 H         1 UNK         0.0612 
    117 H117       17.6710  -32.5290  -41.0794 H         1 UNK         0.0612 
@<TRIPOS>BOND
     1    1    2 1    
     2    1   62 1    
     3    1   63 1    
     4    1   64 1    
     5    2    3 2    
     6    2    4 am   BACKBONE|DICT|INTERRES
     7    4    5 1    
     8    4   65 1    
     9    5    6 1    
    10    5   25 1    
    11    5   66 1    
    12    6    7 1    
    13    6   67 1    
    14    6   68 1    
    15    7    8 1    
    16    8    9 1    
    17    8   69 1    
    18    8   70 1    
    19    9   10 ar   
    20    9   14 ar   
    21   10   11 ar   
    22   10   71 1    
    23   11   12 ar   
    24   11   61 1    
    25   12   13 ar   
    26   12   72 1    
    27   13   14 ar   
    28   13   15 1    
    29   14   73 1    
    30   15   16 1    
    31   15   74 1    
    32   15   75 1    
    33   16   17 1    
    34   17   18 1    
    35   17   76 1    
    36   17   77 1    
    37   18   19 1    
    38   18   27 1    
    39   18   78 1    
    40   19   20 am   BACKBONE|DICT|INTERRES
    41   19   79 1    
    42   20   21 2    
    43   20   22 1    
    44   22   23 1    
    45   22   24 1    
    46   22   80 1    
    47   23   81 1    
    48   23   82 1    
    49   23   83 1    
    50   24   25 am   BACKBONE|DICT|INTERRES
    51   24   84 1    
    52   25   26 2    
    53   27   28 2    
    54   27   29 am   BACKBONE|DICT|INTERRES
    55   29   30 1    
    56   29   85 1    
    57   30   31 1    
    58   30   32 1    
    59   30   86 1    
    60   31   87 1    
    61   31   88 1    
    62   31   89 1    
    63   32   33 2    
    64   32   34 am   BACKBONE|DICT|INTERRES
    65   34   35 1    
    66   34   90 1    
    67   35   36 1    
    68   35   37 1    
    69   35   91 1    
    70   36   92 1    
    71   36   93 1    
    72   36   94 1    
    73   37   38 2    
    74   37   39 am   BACKBONE|DICT|INTERRES
    75   39   40 1    
    76   39   95 1    
    77   40   41 1    
    78   40   42 1    
    79   40   96 1    
    80   41   97 1    
    81   41   98 1    
    82   41   99 1    
    83   42   43 2    
    84   42   44 am   BACKBONE|DICT|INTERRES
    85   44   45 1    
    86   44  100 1    
    87   45   46 1    
    88   45   47 1    
    89   45  101 1    
    90   46  102 1    
    91   46  103 1    
    92   46  104 1    
    93   47   48 2    
    94   47   49 am   BACKBONE|DICT|INTERRES
    95   49   50 1    
    96   49  105 1    
    97   50   51 1    
    98   50   52 1    
    99   50  106 1    
   100   51  107 1    
   101   51  108 1    
   102   51  109 1    
   103   52   53 2    
   104   52   54 am   BACKBONE|DICT|INTERRES
   105   54   55 1    
   106   54  110 1    
   107   55   56 1    
   108   55   59 1    
   109   55  111 1    
   110   56   57 am   BACKBONE|DICT|INTERRES
   111   56   58 2    
   112   57  112 1    
   113   57  113 1    
   114   59   60 1    
   115   59  114 1    
   116   59  115 1    
   117   60   61 1    
   118   61  116 1    
   119   61  117 1    
@<TRIPOS>SUBSTRUCTURE
     1 UNK         1 GROUP             0       ****    0 ROOT    
