@<TRIPOS>MOLECULE
3R8
117   119    1
SMALL
USER_CHARGES


@<TRIPOS>ATOM
      1 CA         11.7573  -26.0946  -42.7811 C.3       0 UNK        -0.2013 
      2 C          13.1023  -25.9771  -43.4828 C.2       0 UNK         0.4866 
      3 O          13.7051  -24.9033  -43.4747 O.2       0 UNK        -0.5176 
      4 N          13.5734  -27.0699  -44.0968 N.am      1 UNK        -0.4884 
      5 CA         14.8809  -27.1579  -44.7549 C.3       1 UNK         0.0853 
      6 C6         14.9362  -28.3723  -45.7138 C.3       10 UNK        -0.0849 
      7 S7         16.1627  -28.1597  -47.0480 S.3       10 UNK        -0.2776 
      8 C8         17.1001  -29.7181  -46.9535 C.3       10 UNK         0.0316 
      9 C9         18.2702  -29.6233  -45.9854 C.ar      10 UNK        -0.0863 
     10 C10        18.1134  -29.9662  -44.6393 C.ar      10 UNK        -0.1009 
     11 C11        19.2003  -29.9072  -43.7617 C.ar      10 UNK        -0.0712 
     12 C12        20.4529  -29.5080  -44.2384 C.ar      10 UNK        -0.0894 
     13 C13        20.6221  -29.1678  -45.5832 C.ar      10 UNK        -0.0745 
     14 C14        19.5262  -29.2215  -46.4492 C.ar      10 UNK        -0.0972 
     15 C15        21.9906  -28.7752  -46.1182 C.3       10 UNK         0.0209 
     16 S16        22.1888  -26.9696  -46.2246 S.3       10 UNK        -0.2568 
     17 C17        22.7888  -26.5461  -44.5569 C.3       10 UNK        -0.0983 
     18 CA         21.9089  -25.4762  -43.8599 C.3       3 UNK         0.0876 
     19 N          20.6493  -26.0302  -43.3708 N.am      3 UNK        -0.4424 
     20 C          19.4415  -25.8197  -43.8973 C.2       2 UNK         0.4918 
     21 O          19.2303  -25.1911  -44.9382 O.2       2 UNK        -0.4875 
     22 CA         18.2628  -26.3649  -43.0837 C.3       2 UNK         0.0481 
     23 CB         17.9568  -25.4504  -41.8812 C.3       2 UNK        -0.1831 
     24 N          17.0931  -26.4679  -43.9493 N.am      2 UNK        -0.4498 
     25 C          16.0060  -27.2042  -43.7006 C.2       1 UNK         0.5027 
     26 O          15.8664  -27.9071  -42.6954 O.2       1 UNK        -0.4969 
     27 C          22.6477  -24.8916  -42.6440 C.2       3 UNK         0.5005 
     28 O          22.3988  -25.3173  -41.5114 O.2       3 UNK        -0.5279 
     29 N          23.5629  -23.9460  -42.9006 N.am      4 UNK        -0.4463 
     30 CA         24.4838  -23.4008  -41.8960 C.3       4 UNK         0.0283 
     31 CB         25.0564  -22.0644  -42.3959 C.3       4 UNK        -0.1875 
     32 C          25.6221  -24.3806  -41.5530 C.2       4 UNK         0.4949 
     33 O          26.1250  -24.3577  -40.4292 O.2       4 UNK        -0.5039 
     34 N          26.0022  -25.2207  -42.5250 N.am      5 UNK        -0.4663 
     35 CA         26.9455  -26.3270  -42.3622 C.3       5 UNK         0.0242 
     36 CB         27.4769  -26.7236  -43.7504 C.3       5 UNK        -0.1982 
     37 C          26.2796  -27.5335  -41.6768 C.2       5 UNK         0.5017 
     38 O          25.0503  -27.6390  -41.6698 O.2       5 UNK        -0.5012 
     39 N          27.1096  -28.4378  -41.1399 N.am      6 UNK        -0.4439 
     40 CA         26.6850  -29.6992  -40.5260 C.3       6 UNK         0.0297 
     41 CB         27.9006  -30.3802  -39.8759 C.3       6 UNK        -0.2006 
     42 C          26.0173  -30.6441  -41.5418 C.2       6 UNK         0.4892 
     43 O          26.4268  -30.6846  -42.7050 O.2       6 UNK        -0.5089 
     44 N          25.0209  -31.3986  -41.0716 N.am      7 UNK        -0.4243 
     45 CA         24.2310  -32.3455  -41.8515 C.3       7 UNK         0.0196 
     46 CB         23.0837  -31.5982  -42.5614 C.3       7 UNK        -0.2007 
     47 C          23.6911  -33.4322  -40.9150 C.2       7 UNK         0.5020 
     48 O          23.7608  -33.2866  -39.6918 O.2       7 UNK        -0.5147 
     49 N          23.1201  -34.4881  -41.5072 N.am      8 UNK        -0.4734 
     50 CA         22.5054  -35.6254  -40.8075 C.3       8 UNK         0.0238 
     51 CB         22.3210  -36.7783  -41.8100 C.3       8 UNK        -0.1912 
     52 C          21.1725  -35.3014  -40.0982 C.2       8 UNK         0.5038 
     53 O          20.6185  -36.1816  -39.4380 O.2       8 UNK        -0.5046 
     54 N          20.6776  -34.0669  -40.2538 N.am      9 UNK        -0.4200 
     55 CA         19.4398  -33.5392  -39.6591 C.3       9 UNK         0.0839 
     56 C          19.4222  -33.4959  -38.1029 C.2       9 UNK         0.5513 
     57 N          20.5650  -33.5149  -37.4264 N.am      9 UNK        -0.7519 
     58 O          18.3517  -33.4392  -37.5035 O.2       9 UNK        -0.4960 
     59 C59        19.0875  -32.1385  -40.2277 C.3       10 UNK        -0.0876 
     60 S60        19.0951  -32.0670  -42.0506 S.3       10 UNK        -0.2414 
     61 C61        19.0186  -30.2683  -42.2972 C.3       10 UNK         0.0169 
     62 H62        11.8683  -25.8756  -41.7195 H         1 UNK         0.0903 
     63 H63        11.0498  -25.3818  -43.2041 H         1 UNK         0.0903 
     64 H64        11.3315  -27.0931  -42.8784 H         1 UNK         0.0903 
     65 H65        13.0522  -27.9334  -44.0383 H         1 UNK         0.3096 
     66 H66        14.9996  -26.2464  -45.3462 H         1 UNK         0.1121 
     67 H67        13.9717  -28.4977  -46.2090 H         1 UNK         0.0849 
     68 H68        15.1049  -29.3016  -45.1668 H         1 UNK         0.0849 
     69 H69        16.4409  -30.5437  -46.6807 H         1 UNK         0.0865 
     70 H70        17.4715  -29.9573  -47.9512 H         1 UNK         0.0865 
     71 H71        17.1476  -30.2821  -44.2699 H         1 UNK         0.1346 
     72 H72        21.2968  -29.4656  -43.5644 H         1 UNK         0.1412 
     73 H73        19.6554  -28.9584  -47.4904 H         1 UNK         0.1426 
     74 H74        22.1189  -29.1952  -47.1169 H         1 UNK         0.0716 
     75 H75        22.7867  -29.2075  -45.5099 H         1 UNK         0.0716 
     76 H76        22.8643  -27.4422  -43.9380 H         1 UNK         0.0695 
     77 H77        23.8120  -26.1884  -44.6850 H         1 UNK         0.0695 
     78 H78        21.7120  -24.6541  -44.5521 H         1 UNK         0.0983 
     79 H79        20.7269  -26.4716  -42.4641 H         1 UNK         0.3095 
     80 H80        18.5269  -27.3599  -42.7233 H         1 UNK         0.0454 
     81 H81        17.1497  -25.8515  -41.2682 H         1 UNK         0.0851 
     82 H82        18.8273  -25.3443  -41.2326 H         1 UNK         0.0851 
     83 H83        17.6654  -24.4499  -42.2030 H         1 UNK         0.0851 
     84 H84        17.1791  -25.9593  -44.8212 H         1 UNK         0.2976 
     85 H85        23.6883  -23.6280  -43.8518 H         1 UNK         0.3116 
     86 H86        23.9242  -23.2074  -40.9780 H         1 UNK         0.0646 
     87 H87        25.7252  -21.6265  -41.6536 H         1 UNK         0.0847 
     88 H88        24.2653  -21.3383  -42.5838 H         1 UNK         0.0847 
     89 H89        25.6285  -22.1858  -43.3165 H         1 UNK         0.0847 
     90 H90        25.5082  -25.1813  -43.4027 H         1 UNK         0.3040 
     91 H91        27.7803  -25.9903  -41.7429 H         1 UNK         0.1015 
     92 H92        27.9603  -25.8816  -44.2464 H         1 UNK         0.0786 
     93 H93        26.6779  -27.0836  -44.4004 H         1 UNK         0.0786 
     94 H94        28.2174  -27.5211  -43.6764 H         1 UNK         0.0786 
     95 H95        28.1051  -28.2938  -41.2275 H         1 UNK         0.3172 
     96 H96        25.9615  -29.4598  -39.7435 H         1 UNK         0.0595 
     97 H97        28.3569  -29.7430  -39.1181 H         1 UNK         0.0839 
     98 H98        28.6657  -30.6292  -40.6126 H         1 UNK         0.0839 
     99 H99        27.6108  -31.3091  -39.3827 H         1 UNK         0.0839 
    100 H100       24.7907  -31.3810  -40.0853 H         1 UNK         0.2998 
    101 H101       24.8717  -32.8282  -42.5929 H         1 UNK         0.0822 
    102 H102       23.4688  -30.8269  -43.2289 H         1 UNK         0.0787 
    103 H103       22.4793  -32.2727  -43.1691 H         1 UNK         0.0787 
    104 H104       22.4159  -31.1154  -41.8466 H         1 UNK         0.0787 
    105 H105       23.0926  -34.5186  -42.5171 H         1 UNK         0.3055 
    106 H106       23.1976  -35.9569  -40.0300 H         1 UNK         0.1106 
    107 H107       23.2698  -37.0685  -42.2619 H         1 UNK         0.0828 
    108 H108       21.9169  -37.6653  -41.3199 H         1 UNK         0.0828 
    109 H109       21.6332  -36.5090  -42.6125 H         1 UNK         0.0828 
    110 H110       21.1970  -33.4213  -40.8277 H         1 UNK         0.2931 
    111 H111       18.6427  -34.2238  -39.9553 H         1 UNK         0.0412 
    112 H112       21.4470  -33.5548  -37.9143 H         1 UNK         0.3472 
    113 H113       20.5449  -33.4878  -36.4189 H         1 UNK         0.3472 
    114 H114       19.7931  -31.3953  -39.8506 H         1 UNK         0.0970 
    115 H115       18.1003  -31.8255  -39.8815 H         1 UNK         0.0970 
    116 H116       18.0588  -29.8931  -41.9376 H         1 UNK         0.0612 
    117 H117       19.7877  -29.7829  -41.6941 H         1 UNK         0.0612 
@<TRIPOS>BOND
     1    1    2 1    
     2    1   62 1    
     3    1   63 1    
     4    1   64 1    
     5    2    3 2    
     6    2    4 am   BACKBONE|DICT|INTERRES
     7    4    5 1    
     8    4   65 1    
     9    5    6 1    
    10    5   25 1    
    11    5   66 1    
    12    6    7 1    
    13    6   67 1    
    14    6   68 1    
    15    7    8 1    
    16    8    9 1    
    17    8   69 1    
    18    8   70 1    
    19    9   10 ar   
    20    9   14 ar   
    21   10   11 ar   
    22   10   71 1    
    23   11   12 ar   
    24   11   61 1    
    25   12   13 ar   
    26   12   72 1    
    27   13   14 ar   
    28   13   15 1    
    29   14   73 1    
    30   15   16 1    
    31   15   74 1    
    32   15   75 1    
    33   16   17 1    
    34   17   18 1    
    35   17   76 1    
    36   17   77 1    
    37   18   19 1    
    38   18   27 1    
    39   18   78 1    
    40   19   20 am   BACKBONE|DICT|INTERRES
    41   19   79 1    
    42   20   21 2    
    43   20   22 1    
    44   22   23 1    
    45   22   24 1    
    46   22   80 1    
    47   23   81 1    
    48   23   82 1    
    49   23   83 1    
    50   24   25 am   BACKBONE|DICT|INTERRES
    51   24   84 1    
    52   25   26 2    
    53   27   28 2    
    54   27   29 am   BACKBONE|DICT|INTERRES
    55   29   30 1    
    56   29   85 1    
    57   30   31 1    
    58   30   32 1    
    59   30   86 1    
    60   31   87 1    
    61   31   88 1    
    62   31   89 1    
    63   32   33 2    
    64   32   34 am   BACKBONE|DICT|INTERRES
    65   34   35 1    
    66   34   90 1    
    67   35   36 1    
    68   35   37 1    
    69   35   91 1    
    70   36   92 1    
    71   36   93 1    
    72   36   94 1    
    73   37   38 2    
    74   37   39 am   BACKBONE|DICT|INTERRES
    75   39   40 1    
    76   39   95 1    
    77   40   41 1    
    78   40   42 1    
    79   40   96 1    
    80   41   97 1    
    81   41   98 1    
    82   41   99 1    
    83   42   43 2    
    84   42   44 am   BACKBONE|DICT|INTERRES
    85   44   45 1    
    86   44  100 1    
    87   45   46 1    
    88   45   47 1    
    89   45  101 1    
    90   46  102 1    
    91   46  103 1    
    92   46  104 1    
    93   47   48 2    
    94   47   49 am   BACKBONE|DICT|INTERRES
    95   49   50 1    
    96   49  105 1    
    97   50   51 1    
    98   50   52 1    
    99   50  106 1    
   100   51  107 1    
   101   51  108 1    
   102   51  109 1    
   103   52   53 2    
   104   52   54 am   BACKBONE|DICT|INTERRES
   105   54   55 1    
   106   54  110 1    
   107   55   56 1    
   108   55   59 1    
   109   55  111 1    
   110   56   57 am   BACKBONE|DICT|INTERRES
   111   56   58 2    
   112   57  112 1    
   113   57  113 1    
   114   59   60 1    
   115   59  114 1    
   116   59  115 1    
   117   60   61 1    
   118   61  116 1    
   119   61  117 1    
@<TRIPOS>SUBSTRUCTURE
     1 UNK         1 GROUP             0       ****    0 ROOT    
