@<TRIPOS>MOLECULE
3R8
117   119    1
SMALL
USER_CHARGES


@<TRIPOS>ATOM
      1 CA         16.0788  -22.0768  -41.3545 C.3       0 UNK        -0.2013 
      2 C          16.1815  -22.6638  -42.7540 C.2       0 UNK         0.4866 
      3 O          16.1143  -21.9232  -43.7352 O.2       0 UNK        -0.5176 
      4 N          16.3421  -23.9900  -42.8540 N.am      1 UNK        -0.4884 
      5 CA         16.4912  -24.7302  -44.1148 C.3       1 UNK         0.0853 
      6 C6         16.1962  -26.2398  -43.9340 C.3       10 UNK        -0.0849 
      7 S7         17.1348  -27.0280  -42.5755 S.3       10 UNK        -0.2776 
      8 C8         16.5479  -28.7537  -42.6611 C.3       10 UNK         0.0316 
      9 C9         17.5326  -29.6641  -43.3858 C.ar      10 UNK        -0.0863 
     10 C10        18.1155  -30.7535  -42.7270 C.ar      10 UNK        -0.1009 
     11 C11        19.0051  -31.5987  -43.4015 C.ar      10 UNK        -0.0712 
     12 C12        19.3300  -31.3310  -44.7356 C.ar      10 UNK        -0.0894 
     13 C13        18.7616  -30.2419  -45.4012 C.ar      10 UNK        -0.0745 
     14 C14        17.8459  -29.4327  -44.7271 C.ar      10 UNK        -0.0972 
     15 C15        19.1358  -29.9334  -46.8459 C.3       10 UNK         0.0209 
     16 S16        19.6886  -28.2083  -47.0714 S.3       10 UNK        -0.2568 
     17 C17        21.1441  -28.1693  -45.9779 C.3       10 UNK        -0.0983 
     18 CA         21.7790  -26.7601  -45.8903 C.3       3 UNK         0.0876 
     19 N          20.8764  -25.7799  -45.2721 N.am      3 UNK        -0.4424 
     20 C          21.0429  -24.4543  -45.3544 C.2       2 UNK         0.4918 
     21 O          21.8812  -23.9263  -46.0884 O.2       2 UNK        -0.4875 
     22 CA         20.1707  -23.5652  -44.4417 C.3       2 UNK         0.0481 
     23 CB         19.9689  -22.1493  -45.0234 C.3       2 UNK        -0.1831 
     24 N          18.8787  -24.1324  -44.0308 N.am      2 UNK        -0.4498 
     25 C          17.8430  -24.4642  -44.8187 C.2       1 UNK         0.5027 
     26 O          17.9010  -24.5133  -46.0479 O.2       1 UNK        -0.4969 
     27 C          23.1129  -26.8319  -45.1163 C.2       3 UNK         0.5005 
     28 O          23.1689  -26.4731  -43.9350 O.2       3 UNK        -0.5279 
     29 N          24.1600  -27.3403  -45.7813 N.am      4 UNK        -0.4463 
     30 CA         25.4568  -27.6433  -45.1723 C.3       4 UNK         0.0283 
     31 CB         26.4533  -28.0692  -46.2636 C.3       4 UNK        -0.1875 
     32 C          25.3043  -28.7359  -44.1001 C.2       4 UNK         0.4949 
     33 O          24.9202  -29.8578  -44.4345 O.2       4 UNK        -0.5039 
     34 N          25.5685  -28.3621  -42.8404 N.am      5 UNK        -0.4663 
     35 CA         25.3777  -29.1610  -41.6226 C.3       5 UNK         0.0242 
     36 CB         26.3273  -30.3795  -41.6009 C.3       5 UNK        -0.1982 
     37 C          23.9048  -29.5441  -41.3637 C.2       5 UNK         0.5017 
     38 O          23.6474  -30.6274  -40.8372 O.2       5 UNK        -0.5012 
     39 N          22.9673  -28.6470  -41.7155 N.am      6 UNK        -0.4439 
     40 CA         21.5217  -28.7878  -41.4982 C.3       6 UNK         0.0297 
     41 CB         20.8102  -27.4814  -41.8775 C.3       6 UNK        -0.2006 
     42 C          21.1576  -29.1674  -40.0528 C.2       6 UNK         0.4892 
     43 O          21.6269  -28.5177  -39.1164 O.2       6 UNK        -0.5089 
     44 N          20.3455  -30.2246  -39.9203 N.am      7 UNK        -0.4243 
     45 CA         19.8805  -30.8649  -38.6805 C.3       7 UNK         0.0196 
     46 CB         19.1207  -29.8706  -37.7779 C.3       7 UNK        -0.2007 
     47 C          20.9658  -31.6390  -37.9012 C.2       7 UNK         0.5020 
     48 O          20.6288  -32.3002  -36.9190 O.2       7 UNK        -0.5147 
     49 N          22.2222  -31.6049  -38.3638 N.am      8 UNK        -0.4734 
     50 CA         23.3365  -32.4281  -37.8807 C.3       8 UNK         0.0238 
     51 CB         24.5184  -31.5051  -37.5315 C.3       8 UNK        -0.1912 
     52 C          23.7336  -33.4838  -38.9330 C.2       8 UNK         0.5038 
     53 O          24.8066  -34.0792  -38.8221 O.2       8 UNK        -0.5046 
     54 N          22.8699  -33.6699  -39.9400 N.am      9 UNK        -0.4200 
     55 CA         23.0147  -34.5501  -41.1038 C.3       9 UNK         0.0839 
     56 C          23.2797  -36.0334  -40.7286 C.2       9 UNK         0.5513 
     57 N          24.1548  -36.7117  -41.4581 N.am      9 UNK        -0.7519 
     58 O          22.6623  -36.5837  -39.8188 O.2       9 UNK        -0.4960 
     59 C59        21.7720  -34.4439  -42.0277 C.3       10 UNK        -0.0876 
     60 S60        21.3910  -32.7309  -42.5405 S.3       10 UNK        -0.2414 
     61 C61        19.5829  -32.8292  -42.7152 C.3       10 UNK         0.0169 
     62 H62        16.1514  -22.8439  -40.5837 H         1 UNK         0.0903 
     63 H63        16.8787  -21.3550  -41.1911 H         1 UNK         0.0903 
     64 H64        15.1257  -21.5629  -41.2324 H         1 UNK         0.0903 
     65 H65        16.3849  -24.5572  -42.0178 H         1 UNK         0.3096 
     66 H66        15.7316  -24.3430  -44.7985 H         1 UNK         0.1121 
     67 H67        16.3618  -26.7693  -44.8713 H         1 UNK         0.0849 
     68 H68        15.1346  -26.3667  -43.7150 H         1 UNK         0.0849 
     69 H69        16.3854  -29.1071  -41.6418 H         1 UNK         0.0865 
     70 H70        15.5762  -28.8006  -43.1548 H         1 UNK         0.0865 
     71 H71        17.8565  -30.9568  -41.6969 H         1 UNK         0.1346 
     72 H72        20.0259  -31.9769  -45.2537 H         1 UNK         0.1412 
     73 H73        17.3978  -28.6053  -45.2536 H         1 UNK         0.1426 
     74 H74        18.2684  -30.1131  -47.4822 H         1 UNK         0.0716 
     75 H75        19.9226  -30.6034  -47.1963 H         1 UNK         0.0716 
     76 H76        20.8597  -28.5225  -44.9854 H         1 UNK         0.0695 
     77 H77        21.8592  -28.8977  -46.3656 H         1 UNK         0.0695 
     78 H78        22.0042  -26.4209  -46.9041 H         1 UNK         0.0983 
     79 H79        20.1666  -26.1416  -44.6544 H         1 UNK         0.3095 
     80 H80        20.7427  -23.4541  -43.5196 H         1 UNK         0.0454 
     81 H81        20.9236  -21.6450  -45.1772 H         1 UNK         0.0851 
     82 H82        19.3807  -21.5236  -44.3520 H         1 UNK         0.0851 
     83 H83        19.4580  -22.1788  -45.9863 H         1 UNK         0.0851 
     84 H84        18.7136  -24.1592  -43.0342 H         1 UNK         0.2976 
     85 H85        24.0322  -27.6417  -46.7368 H         1 UNK         0.3116 
     86 H86        25.8340  -26.7299  -44.7070 H         1 UNK         0.0646 
     87 H87        26.1204  -28.9642  -46.7909 H         1 UNK         0.0847 
     88 H88        27.4299  -28.2919  -45.8316 H         1 UNK         0.0847 
     89 H89        26.5990  -27.2791  -47.0004 H         1 UNK         0.0847 
     90 H90        25.8524  -27.4034  -42.6870 H         1 UNK         0.3040 
     91 H91        25.6611  -28.5163  -40.7890 H         1 UNK         0.1015 
     92 H92        26.0573  -31.1173  -42.3571 H         1 UNK         0.0786 
     93 H93        26.2948  -30.8839  -40.6343 H         1 UNK         0.0786 
     94 H94        27.3612  -30.0817  -41.7746 H         1 UNK         0.0786 
     95 H95        23.2657  -27.8024  -42.1898 H         1 UNK         0.3172 
     96 H96        21.1704  -29.5746  -42.1692 H         1 UNK         0.0595 
     97 H97        21.2559  -26.6177  -41.3828 H         1 UNK         0.0839 
     98 H98        19.7605  -27.5138  -41.5883 H         1 UNK         0.0839 
     99 H99        20.8392  -27.3110  -42.9500 H         1 UNK         0.0839 
    100 H100       20.0591  -30.6870  -40.7723 H         1 UNK         0.2998 
    101 H101       19.1609  -31.6198  -39.0013 H         1 UNK         0.0822 
    102 H102       18.6389  -30.3886  -36.9477 H         1 UNK         0.0787 
    103 H103       19.7845  -29.1217  -37.3455 H         1 UNK         0.0787 
    104 H104       18.3391  -29.3493  -38.3306 H         1 UNK         0.0787 
    105 H105       22.4317  -31.0399  -39.1818 H         1 UNK         0.3055 
    106 H106       23.0493  -32.9739  -36.9795 H         1 UNK         0.1106 
    107 H107       24.2318  -30.7592  -36.7902 H         1 UNK         0.0828 
    108 H108       25.3507  -32.0724  -37.1130 H         1 UNK         0.0828 
    109 H109       24.8914  -30.9779  -38.4099 H         1 UNK         0.0828 
    110 H110       22.0356  -33.1053  -39.9355 H         1 UNK         0.2931 
    111 H111       23.8800  -34.1800  -41.6576 H         1 UNK         0.0412 
    112 H112       24.6562  -36.2706  -42.2139 H         1 UNK         0.3472 
    113 H113       24.3275  -37.6814  -41.2417 H         1 UNK         0.3472 
    114 H114       20.8984  -34.8683  -41.5283 H         1 UNK         0.0970 
    115 H115       21.9209  -35.0367  -42.9323 H         1 UNK         0.0970 
    116 H116       19.1363  -32.9731  -41.7301 H         1 UNK         0.0612 
    117 H117       19.3267  -33.7109  -43.3047 H         1 UNK         0.0612 
@<TRIPOS>BOND
     1    1    2 1    
     2    1   62 1    
     3    1   63 1    
     4    1   64 1    
     5    2    3 2    
     6    2    4 am   BACKBONE|DICT|INTERRES
     7    4    5 1    
     8    4   65 1    
     9    5    6 1    
    10    5   25 1    
    11    5   66 1    
    12    6    7 1    
    13    6   67 1    
    14    6   68 1    
    15    7    8 1    
    16    8    9 1    
    17    8   69 1    
    18    8   70 1    
    19    9   10 ar   
    20    9   14 ar   
    21   10   11 ar   
    22   10   71 1    
    23   11   12 ar   
    24   11   61 1    
    25   12   13 ar   
    26   12   72 1    
    27   13   14 ar   
    28   13   15 1    
    29   14   73 1    
    30   15   16 1    
    31   15   74 1    
    32   15   75 1    
    33   16   17 1    
    34   17   18 1    
    35   17   76 1    
    36   17   77 1    
    37   18   19 1    
    38   18   27 1    
    39   18   78 1    
    40   19   20 am   BACKBONE|DICT|INTERRES
    41   19   79 1    
    42   20   21 2    
    43   20   22 1    
    44   22   23 1    
    45   22   24 1    
    46   22   80 1    
    47   23   81 1    
    48   23   82 1    
    49   23   83 1    
    50   24   25 am   BACKBONE|DICT|INTERRES
    51   24   84 1    
    52   25   26 2    
    53   27   28 2    
    54   27   29 am   BACKBONE|DICT|INTERRES
    55   29   30 1    
    56   29   85 1    
    57   30   31 1    
    58   30   32 1    
    59   30   86 1    
    60   31   87 1    
    61   31   88 1    
    62   31   89 1    
    63   32   33 2    
    64   32   34 am   BACKBONE|DICT|INTERRES
    65   34   35 1    
    66   34   90 1    
    67   35   36 1    
    68   35   37 1    
    69   35   91 1    
    70   36   92 1    
    71   36   93 1    
    72   36   94 1    
    73   37   38 2    
    74   37   39 am   BACKBONE|DICT|INTERRES
    75   39   40 1    
    76   39   95 1    
    77   40   41 1    
    78   40   42 1    
    79   40   96 1    
    80   41   97 1    
    81   41   98 1    
    82   41   99 1    
    83   42   43 2    
    84   42   44 am   BACKBONE|DICT|INTERRES
    85   44   45 1    
    86   44  100 1    
    87   45   46 1    
    88   45   47 1    
    89   45  101 1    
    90   46  102 1    
    91   46  103 1    
    92   46  104 1    
    93   47   48 2    
    94   47   49 am   BACKBONE|DICT|INTERRES
    95   49   50 1    
    96   49  105 1    
    97   50   51 1    
    98   50   52 1    
    99   50  106 1    
   100   51  107 1    
   101   51  108 1    
   102   51  109 1    
   103   52   53 2    
   104   52   54 am   BACKBONE|DICT|INTERRES
   105   54   55 1    
   106   54  110 1    
   107   55   56 1    
   108   55   59 1    
   109   55  111 1    
   110   56   57 am   BACKBONE|DICT|INTERRES
   111   56   58 2    
   112   57  112 1    
   113   57  113 1    
   114   59   60 1    
   115   59  114 1    
   116   59  115 1    
   117   60   61 1    
   118   61  116 1    
   119   61  117 1    
@<TRIPOS>SUBSTRUCTURE
     1 UNK         1 GROUP             0       ****    0 ROOT    
