@<TRIPOS>MOLECULE
3R8
117   119    1
SMALL
USER_CHARGES


@<TRIPOS>ATOM
      1 CA         19.7785  -31.7156  -48.8270 C.3       0 UNK        -0.2013 
      2 C          19.2781  -30.4370  -48.1717 C.2       0 UNK         0.4866 
      3 O          19.2266  -29.3970  -48.8283 O.2       0 UNK        -0.5176 
      4 N          18.9153  -30.5127  -46.8828 N.am      1 UNK        -0.4884 
      5 CA         18.3844  -29.4135  -46.0581 C.3       1 UNK         0.0853 
      6 C6         16.9609  -28.9578  -46.4745 C.3       10 UNK        -0.0849 
      7 S7         15.7611  -30.2974  -46.1603 S.3       10 UNK        -0.2776 
      8 C8         14.8154  -29.6576  -44.7360 C.3       10 UNK         0.0316 
      9 C9         15.6847  -29.2412  -43.5513 C.ar      10 UNK        -0.0863 
     10 C10        16.4758  -30.1768  -42.8754 C.ar      10 UNK        -0.1009 
     11 C11        17.2360  -29.7931  -41.7647 C.ar      10 UNK        -0.0712 
     12 C12        17.1798  -28.4705  -41.3160 C.ar      10 UNK        -0.0894 
     13 C13        16.3912  -27.5234  -41.9787 C.ar      10 UNK        -0.0745 
     14 C14        15.6548  -27.9175  -43.1001 C.ar      10 UNK        -0.0972 
     15 C15        16.2608  -26.0901  -41.4651 C.3       10 UNK         0.0209 
     16 S16        17.8068  -25.3653  -40.8213 S.3       10 UNK        -0.2568 
     17 C17        18.8330  -25.2626  -42.3245 C.3       10 UNK        -0.0983 
     18 CA         20.1393  -26.0891  -42.2086 C.3       3 UNK         0.0876 
     19 N          20.6062  -26.5025  -43.5333 N.am      3 UNK        -0.4424 
     20 C          21.6058  -27.3521  -43.7952 C.2       2 UNK         0.4918 
     21 O          22.3345  -27.8474  -42.9348 O.2       2 UNK        -0.4875 
     22 CA         21.7616  -27.7431  -45.2780 C.3       2 UNK         0.0481 
     23 CB         23.1024  -28.4378  -45.5693 C.3       2 UNK        -0.1831 
     24 N          20.6692  -28.6267  -45.6881 N.am      2 UNK        -0.4498 
     25 C          19.3932  -28.2597  -45.8822 C.2       1 UNK         0.5027 
     26 O          19.0154  -27.0856  -45.8770 O.2       1 UNK        -0.4969 
     27 C          21.2103  -25.3446  -41.3821 C.2       3 UNK         0.5005 
     28 O          21.1951  -25.4418  -40.1540 O.2       3 UNK        -0.5279 
     29 N          22.1277  -24.6372  -42.0614 N.am      4 UNK        -0.4463 
     30 CA         23.2619  -23.9071  -41.4867 C.3       4 UNK         0.0283 
     31 CB         24.0563  -23.2356  -42.6201 C.3       4 UNK        -0.1875 
     32 C          24.1624  -24.8235  -40.6389 C.2       4 UNK         0.4949 
     33 O          24.9332  -25.6062  -41.1953 O.2       4 UNK        -0.5039 
     34 N          23.9885  -24.7379  -39.3118 N.am      5 UNK        -0.4663 
     35 CA         24.5888  -25.5836  -38.2703 C.3       5 UNK         0.0242 
     36 CB         26.1219  -25.4017  -38.2306 C.3       5 UNK        -0.1982 
     37 C          24.1729  -27.0703  -38.3455 C.2       5 UNK         0.5017 
     38 O          24.8574  -27.9070  -37.7548 O.2       5 UNK        -0.5012 
     39 N          23.0639  -27.3669  -39.0470 N.am      6 UNK        -0.4439 
     40 CA         22.5047  -28.6946  -39.3385 C.3       6 UNK         0.0297 
     41 CB         21.8107  -29.2705  -38.0881 C.3       6 UNK        -0.2006 
     42 C          23.5561  -29.6511  -39.9343 C.2       6 UNK         0.4892 
     43 O          23.8888  -30.6712  -39.3252 O.2       6 UNK        -0.5089 
     44 N          24.1022  -29.2696  -41.0955 N.am      7 UNK        -0.4243 
     45 CA         25.2326  -29.9196  -41.7599 C.3       7 UNK         0.0196 
     46 CB         25.8752  -28.9173  -42.7346 C.3       7 UNK        -0.2007 
     47 C          24.8331  -31.2423  -42.4392 C.2       7 UNK         0.5020 
     48 O          24.7959  -31.3235  -43.6677 O.2       7 UNK        -0.5147 
     49 N          24.5380  -32.2527  -41.6099 N.am      8 UNK        -0.4734 
     50 CA         24.1715  -33.6326  -41.9602 C.3       8 UNK         0.0238 
     51 CB         25.3457  -34.3514  -42.6597 C.3       8 UNK        -0.1912 
     52 C          22.8491  -33.7500  -42.7450 C.2       8 UNK         0.5038 
     53 O          22.6709  -34.7063  -43.5025 O.2       8 UNK        -0.5046 
     54 N          21.9430  -32.7853  -42.5449 N.am      9 UNK        -0.4200 
     55 CA         20.5873  -32.7771  -43.1050 C.3       9 UNK         0.0839 
     56 C          19.6579  -33.8584  -42.4829 C.2       9 UNK         0.5513 
     57 N          18.5951  -34.2340  -43.1820 N.am      9 UNK        -0.7519 
     58 O          19.8701  -34.3376  -41.3705 O.2       9 UNK        -0.4960 
     59 C59        19.9653  -31.3573  -43.0592 C.3       10 UNK        -0.0876 
     60 S60        19.8639  -30.6180  -41.3926 S.3       10 UNK        -0.2414 
     61 C61        18.0913  -30.8067  -41.0167 C.3       10 UNK         0.0169 
     62 H62        19.1485  -31.9708  -49.6787 H         1 UNK         0.0903 
     63 H63        20.7980  -31.5785  -49.1867 H         1 UNK         0.0903 
     64 H64        19.7730  -32.5593  -48.1372 H         1 UNK         0.0903 
     65 H65        18.9600  -31.4113  -46.4235 H         1 UNK         0.3096 
     66 H66        18.2914  -29.8134  -45.0496 H         1 UNK         0.1121 
     67 H67        16.6471  -28.0684  -45.9254 H         1 UNK         0.0849 
     68 H68        16.9297  -28.6847  -47.5301 H         1 UNK         0.0849 
     69 H69        14.2010  -28.8227  -45.0770 H         1 UNK         0.0865 
     70 H70        14.1172  -30.4279  -44.4057 H         1 UNK         0.0865 
     71 H71        16.4923  -31.2043  -43.2129 H         1 UNK         0.1346 
     72 H72        17.7456  -28.1845  -40.4400 H         1 UNK         0.1412 
     73 H73        15.0303  -27.1942  -43.6073 H         1 UNK         0.1426 
     74 H74        15.8755  -25.4352  -42.2484 H         1 UNK         0.0716 
     75 H75        15.5185  -26.0809  -40.6661 H         1 UNK         0.0716 
     76 H76        19.0407  -24.2137  -42.5452 H         1 UNK         0.0695 
     77 H77        18.2358  -25.6234  -43.1640 H         1 UNK         0.0695 
     78 H78        19.9169  -27.0152  -41.6728 H         1 UNK         0.0983 
     79 H79        20.0247  -26.2277  -44.3179 H         1 UNK         0.3095 
     80 H80        21.7204  -26.8306  -45.8765 H         1 UNK         0.0454 
     81 H81        23.1949  -28.6978  -46.6238 H         1 UNK         0.0851 
     82 H82        23.2245  -29.3523  -44.9867 H         1 UNK         0.0851 
     83 H83        23.9369  -27.7792  -45.3278 H         1 UNK         0.0851 
     84 H84        20.8890  -29.6101  -45.7416 H         1 UNK         0.2976 
     85 H85        22.0667  -24.6465  -43.0689 H         1 UNK         0.3116 
     86 H86        22.8597  -23.1190  -40.8467 H         1 UNK         0.0646 
     87 H87        23.4423  -22.5213  -43.1688 H         1 UNK         0.0847 
     88 H88        24.9118  -22.6874  -42.2232 H         1 UNK         0.0847 
     89 H89        24.4418  -23.9657  -43.3332 H         1 UNK         0.0847 
     90 H90        23.2845  -24.0911  -38.9805 H         1 UNK         0.3040 
     91 H91        24.1924  -25.2183  -37.3216 H         1 UNK         0.1015 
     92 H92        26.6037  -25.8277  -39.1112 H         1 UNK         0.0786 
     93 H93        26.5529  -25.8930  -37.3574 H         1 UNK         0.0786 
     94 H94        26.3960  -24.3483  -38.1739 H         1 UNK         0.0786 
     95 H95        22.5553  -26.5880  -39.4602 H         1 UNK         0.3172 
     96 H96        21.7421  -28.5472  -40.1047 H         1 UNK         0.0595 
     97 H97        22.5161  -29.4353  -37.2728 H         1 UNK         0.0839 
     98 H98        21.3403  -30.2288  -38.3124 H         1 UNK         0.0839 
     99 H99        21.0288  -28.6028  -37.7268 H         1 UNK         0.0839 
    100 H100       23.6973  -28.4740  -41.5800 H         1 UNK         0.2998 
    101 H101       25.9821  -30.1600  -41.0026 H         1 UNK         0.0822 
    102 H102       26.7266  -29.3616  -43.2518 H         1 UNK         0.0787 
    103 H103       25.1669  -28.5846  -43.4917 H         1 UNK         0.0787 
    104 H104       26.2381  -28.0333  -42.2094 H         1 UNK         0.0787 
    105 H105       24.5118  -32.0245  -40.6186 H         1 UNK         0.3055 
    106 H106       23.9931  -34.1459  -41.0138 H         1 UNK         0.1106 
    107 H107       26.2638  -34.2720  -42.0777 H         1 UNK         0.0828 
    108 H108       25.1365  -35.4144  -42.7854 H         1 UNK         0.0828 
    109 H109       25.5393  -33.9403  -43.6509 H         1 UNK         0.0828 
    110 H110       22.1550  -32.0512  -41.8861 H         1 UNK         0.2931 
    111 H111       20.6923  -33.0372  -44.1605 H         1 UNK         0.0412 
    112 H112       18.4100  -33.8643  -44.1007 H         1 UNK         0.3472 
    113 H113       17.9765  -34.9275  -42.7909 H         1 UNK         0.3472 
    114 H114       20.5680  -30.6846  -43.6694 H         1 UNK         0.0970 
    115 H115       18.9782  -31.3678  -43.5187 H         1 UNK         0.0970 
    116 H116       17.7727  -31.8258  -41.2401 H         1 UNK         0.0612 
    117 H117       17.9486  -30.6739  -39.9433 H         1 UNK         0.0612 
@<TRIPOS>BOND
     1    1    2 1    
     2    1   62 1    
     3    1   63 1    
     4    1   64 1    
     5    2    3 2    
     6    2    4 am   BACKBONE|DICT|INTERRES
     7    4    5 1    
     8    4   65 1    
     9    5    6 1    
    10    5   25 1    
    11    5   66 1    
    12    6    7 1    
    13    6   67 1    
    14    6   68 1    
    15    7    8 1    
    16    8    9 1    
    17    8   69 1    
    18    8   70 1    
    19    9   10 ar   
    20    9   14 ar   
    21   10   11 ar   
    22   10   71 1    
    23   11   12 ar   
    24   11   61 1    
    25   12   13 ar   
    26   12   72 1    
    27   13   14 ar   
    28   13   15 1    
    29   14   73 1    
    30   15   16 1    
    31   15   74 1    
    32   15   75 1    
    33   16   17 1    
    34   17   18 1    
    35   17   76 1    
    36   17   77 1    
    37   18   19 1    
    38   18   27 1    
    39   18   78 1    
    40   19   20 am   BACKBONE|DICT|INTERRES
    41   19   79 1    
    42   20   21 2    
    43   20   22 1    
    44   22   23 1    
    45   22   24 1    
    46   22   80 1    
    47   23   81 1    
    48   23   82 1    
    49   23   83 1    
    50   24   25 am   BACKBONE|DICT|INTERRES
    51   24   84 1    
    52   25   26 2    
    53   27   28 2    
    54   27   29 am   BACKBONE|DICT|INTERRES
    55   29   30 1    
    56   29   85 1    
    57   30   31 1    
    58   30   32 1    
    59   30   86 1    
    60   31   87 1    
    61   31   88 1    
    62   31   89 1    
    63   32   33 2    
    64   32   34 am   BACKBONE|DICT|INTERRES
    65   34   35 1    
    66   34   90 1    
    67   35   36 1    
    68   35   37 1    
    69   35   91 1    
    70   36   92 1    
    71   36   93 1    
    72   36   94 1    
    73   37   38 2    
    74   37   39 am   BACKBONE|DICT|INTERRES
    75   39   40 1    
    76   39   95 1    
    77   40   41 1    
    78   40   42 1    
    79   40   96 1    
    80   41   97 1    
    81   41   98 1    
    82   41   99 1    
    83   42   43 2    
    84   42   44 am   BACKBONE|DICT|INTERRES
    85   44   45 1    
    86   44  100 1    
    87   45   46 1    
    88   45   47 1    
    89   45  101 1    
    90   46  102 1    
    91   46  103 1    
    92   46  104 1    
    93   47   48 2    
    94   47   49 am   BACKBONE|DICT|INTERRES
    95   49   50 1    
    96   49  105 1    
    97   50   51 1    
    98   50   52 1    
    99   50  106 1    
   100   51  107 1    
   101   51  108 1    
   102   51  109 1    
   103   52   53 2    
   104   52   54 am   BACKBONE|DICT|INTERRES
   105   54   55 1    
   106   54  110 1    
   107   55   56 1    
   108   55   59 1    
   109   55  111 1    
   110   56   57 am   BACKBONE|DICT|INTERRES
   111   56   58 2    
   112   57  112 1    
   113   57  113 1    
   114   59   60 1    
   115   59  114 1    
   116   59  115 1    
   117   60   61 1    
   118   61  116 1    
   119   61  117 1    
@<TRIPOS>SUBSTRUCTURE
     1 UNK         1 GROUP             0       ****    0 ROOT    
