@<TRIPOS>MOLECULE
3R8
117   119    1
SMALL
USER_CHARGES


@<TRIPOS>ATOM
      1 CA         18.8055  -29.0988  -42.1301 C.3       0 UNK        -0.2013 
      2 C          18.0363  -27.9069  -42.6677 C.2       0 UNK         0.4866 
      3 O          17.7406  -26.9703  -41.9247 O.2       0 UNK        -0.5176 
      4 N          17.7097  -27.9375  -43.9643 N.am      1 UNK        -0.4884 
      5 CA         16.9632  -26.9093  -44.6971 C.3       1 UNK         0.0853 
      6 C6         16.3336  -27.4667  -46.0065 C.3       10 UNK        -0.0849 
      7 S7         15.3800  -29.0135  -45.7726 S.3       10 UNK        -0.2776 
      8 C8         16.3144  -30.2245  -46.7747 C.3       10 UNK         0.0316 
      9 C9         17.5783  -30.7073  -46.0723 C.ar      10 UNK        -0.0863 
     10 C10        17.5852  -31.9107  -45.3624 C.ar      10 UNK        -0.1009 
     11 C11        18.7445  -32.3444  -44.7109 C.ar      10 UNK        -0.0712 
     12 C12        19.8918  -31.5431  -44.7423 C.ar      10 UNK        -0.0894 
     13 C13        19.9071  -30.3383  -45.4534 C.ar      10 UNK        -0.0745 
     14 C14        18.7509  -29.9546  -46.1472 C.ar      10 UNK        -0.0972 
     15 C15        21.1812  -29.4850  -45.4343 C.3       10 UNK         0.0209 
     16 S16        20.9995  -27.8322  -46.1914 S.3       10 UNK        -0.2568 
     17 C17        22.4719  -26.9297  -45.6065 C.3       10 UNK        -0.0983 
     18 CA         22.2372  -26.0896  -44.3166 C.3       3 UNK         0.0876 
     19 N          20.9359  -25.4069  -44.3320 N.am      3 UNK        -0.4424 
     20 C          20.6122  -24.2642  -43.7175 C.2       2 UNK         0.4918 
     21 O          21.4179  -23.5973  -43.0699 O.2       2 UNK        -0.4875 
     22 CA         19.1353  -23.8237  -43.7587 C.3       2 UNK         0.0481 
     23 CB         18.9013  -22.7227  -44.8113 C.3       2 UNK        -0.1831 
     24 N          18.1830  -24.9409  -43.8824 N.am      2 UNK        -0.4498 
     25 C          17.8688  -25.6821  -44.9555 C.2       1 UNK         0.5027 
     26 O          18.3254  -25.4776  -46.0802 O.2       1 UNK        -0.4969 
     27 C          22.4935  -26.8978  -43.0209 C.2       3 UNK         0.5005 
     28 O          23.3782  -27.7555  -43.0100 O.2       3 UNK        -0.5279 
     29 N          21.7647  -26.6005  -41.9336 N.am      4 UNK        -0.4463 
     30 CA         21.8671  -27.2513  -40.6203 C.3       4 UNK         0.0283 
     31 CB         20.8128  -26.6559  -39.6747 C.3       4 UNK        -0.1875 
     32 C          23.2646  -27.1928  -39.9727 C.2       4 UNK         0.4949 
     33 O          23.5886  -28.0562  -39.1589 O.2       4 UNK        -0.5039 
     34 N          24.0754  -26.1970  -40.3548 N.am      5 UNK        -0.4663 
     35 CA         25.4809  -26.0773  -39.9609 C.3       5 UNK         0.0242 
     36 CB         25.9604  -24.6457  -40.2512 C.3       5 UNK        -0.1982 
     37 C          26.4012  -27.1020  -40.6538 C.2       5 UNK         0.5017 
     38 O          27.4691  -27.3968  -40.1157 O.2       5 UNK        -0.5012 
     39 N          25.9915  -27.6098  -41.8252 N.am      6 UNK        -0.4439 
     40 CA         26.7298  -28.5953  -42.6160 C.3       6 UNK         0.0297 
     41 CB         26.6623  -28.2141  -44.1047 C.3       6 UNK        -0.2006 
     42 C          26.1781  -30.0111  -42.3966 C.2       6 UNK         0.4892 
     43 O          26.9670  -30.9422  -42.2302 O.2       6 UNK        -0.5089 
     44 N          24.8469  -30.1508  -42.3937 N.am      7 UNK        -0.4243 
     45 CA         24.1368  -31.4081  -42.1863 C.3       7 UNK         0.0196 
     46 CB         23.7923  -32.0404  -43.5472 C.3       7 UNK        -0.2007 
     47 C          22.8873  -31.1046  -41.3585 C.2       7 UNK         0.5020 
     48 O          21.9065  -30.6053  -41.9075 O.2       7 UNK        -0.5147 
     49 N          22.9579  -31.3849  -40.0499 N.am      8 UNK        -0.4734 
     50 CA         21.9291  -31.0580  -39.0530 C.3       8 UNK         0.0238 
     51 CB         22.4492  -31.4147  -37.6512 C.3       8 UNK        -0.1912 
     52 C          20.5543  -31.7024  -39.2972 C.2       8 UNK         0.5038 
     53 O          19.5456  -31.1170  -38.9019 O.2       8 UNK        -0.5046 
     54 N          20.5385  -32.8744  -39.9483 N.am      9 UNK        -0.4200 
     55 CA         19.3278  -33.6054  -40.3574 C.3       9 UNK         0.0839 
     56 C          18.5050  -34.2120  -39.1772 C.2       9 UNK         0.5513 
     57 N          19.0916  -34.4001  -38.0007 N.am      9 UNK        -0.7519 
     58 O          17.3314  -34.5421  -39.3257 O.2       9 UNK        -0.4960 
     59 C59        18.4779  -32.7733  -41.3627 C.3       10 UNK        -0.0876 
     60 S60        17.6168  -33.7927  -42.6035 S.3       10 UNK        -0.2414 
     61 C61        18.7684  -33.6981  -44.0106 C.3       10 UNK         0.0169 
     62 H62        19.8710  -28.9704  -42.3132 H         1 UNK         0.0903 
     63 H63        18.6504  -29.2151  -41.0577 H         1 UNK         0.0903 
     64 H64        18.4805  -30.0137  -42.6223 H         1 UNK         0.0903 
     65 H65        17.9748  -28.7436  -44.5162 H         1 UNK         0.3096 
     66 H66        16.1402  -26.5753  -44.0607 H         1 UNK         0.1121 
     67 H67        17.0884  -27.6233  -46.7763 H         1 UNK         0.0849 
     68 H68        15.6529  -26.7233  -46.4252 H         1 UNK         0.0849 
     69 H69        15.6629  -31.0742  -46.9847 H         1 UNK         0.0865 
     70 H70        16.5609  -29.7930  -47.7461 H         1 UNK         0.0865 
     71 H71        16.6912  -32.5183  -45.3219 H         1 UNK         0.1346 
     72 H72        20.7813  -31.8608  -44.2152 H         1 UNK         0.1412 
     73 H73        18.7415  -29.0520  -46.7372 H         1 UNK         0.1426 
     74 H74        21.5003  -29.3626  -44.3984 H         1 UNK         0.0716 
     75 H75        21.9801  -30.0205  -45.9487 H         1 UNK         0.0716 
     76 H76        23.3170  -27.6151  -45.5202 H         1 UNK         0.0695 
     77 H77        22.7482  -26.2483  -46.4124 H         1 UNK         0.0695 
     78 H78        23.0079  -25.3158  -44.3075 H         1 UNK         0.0983 
     79 H79        20.2184  -25.8707  -44.8751 H         1 UNK         0.3095 
     80 H80        18.9240  -23.3828  -42.7834 H         1 UNK         0.0454 
     81 H81        19.1727  -23.0478  -45.8158 H         1 UNK         0.0851 
     82 H82        17.8594  -22.4037  -44.8295 H         1 UNK         0.0851 
     83 H83        19.5056  -21.8425  -44.5881 H         1 UNK         0.0851 
     84 H84        17.8315  -25.2950  -42.9961 H         1 UNK         0.2976 
     85 H85        21.0869  -25.8570  -42.0148 H         1 UNK         0.3116 
     86 H86        21.6283  -28.3035  -40.7675 H         1 UNK         0.0646 
     87 H87        20.9720  -25.5893  -39.5119 H         1 UNK         0.0847 
     88 H88        20.8445  -27.1432  -38.6990 H         1 UNK         0.0847 
     89 H89        19.8045  -26.7907  -40.0658 H         1 UNK         0.0847 
     90 H90        23.7208  -25.5141  -41.0085 H         1 UNK         0.3040 
     91 H91        25.5528  -26.2517  -38.8848 H         1 UNK         0.1015 
     92 H92        25.3654  -23.9100  -39.7096 H         1 UNK         0.0786 
     93 H93        25.9047  -24.4079  -41.3144 H         1 UNK         0.0786 
     94 H94        26.9979  -24.5114  -39.9415 H         1 UNK         0.0786 
     95 H95        25.0630  -27.3737  -42.1628 H         1 UNK         0.3172 
     96 H96        27.7819  -28.5966  -42.3230 H         1 UNK         0.0595 
     97 H97        27.0930  -27.2283  -44.2803 H         1 UNK         0.0839 
     98 H98        25.6379  -28.2026  -44.4783 H         1 UNK         0.0839 
     99 H99        27.2221  -28.9251  -44.7137 H         1 UNK         0.0839 
    100 H100       24.2574  -29.3327  -42.5425 H         1 UNK         0.2998 
    101 H101       24.7601  -32.1098  -41.6277 H         1 UNK         0.0822 
    102 H102       24.6947  -32.3237  -44.0890 H         1 UNK         0.0787 
    103 H103       23.1911  -32.9415  -43.4200 H         1 UNK         0.0787 
    104 H104       23.2284  -31.3538  -44.1786 H         1 UNK         0.0787 
    105 H105       23.8156  -31.7794  -39.6904 H         1 UNK         0.3055 
    106 H106       21.7716  -29.9793  -39.0878 H         1 UNK         0.1106 
    107 H107       21.7106  -31.1709  -36.8860 H         1 UNK         0.0828 
    108 H108       22.6753  -32.4777  -37.5602 H         1 UNK         0.0828 
    109 H109       23.3536  -30.8546  -37.4119 H         1 UNK         0.0828 
    110 H110       21.4206  -33.2849  -40.2166 H         1 UNK         0.2931 
    111 H111       19.7160  -34.4712  -40.8950 H         1 UNK         0.0412 
    112 H112       18.5607  -34.7994  -37.2423 H         1 UNK         0.3472 
    113 H113       20.0560  -34.1440  -37.8628 H         1 UNK         0.3472 
    114 H114       19.1223  -32.0769  -41.8992 H         1 UNK         0.0970 
    115 H115       17.7489  -32.1515  -40.8399 H         1 UNK         0.0970 
    116 H116       18.4964  -34.4688  -44.7330 H         1 UNK         0.0612 
    117 H117       19.7742  -33.9445  -43.6663 H         1 UNK         0.0612 
@<TRIPOS>BOND
     1    1    2 1    
     2    1   62 1    
     3    1   63 1    
     4    1   64 1    
     5    2    3 2    
     6    2    4 am   BACKBONE|DICT|INTERRES
     7    4    5 1    
     8    4   65 1    
     9    5    6 1    
    10    5   25 1    
    11    5   66 1    
    12    6    7 1    
    13    6   67 1    
    14    6   68 1    
    15    7    8 1    
    16    8    9 1    
    17    8   69 1    
    18    8   70 1    
    19    9   10 ar   
    20    9   14 ar   
    21   10   11 ar   
    22   10   71 1    
    23   11   12 ar   
    24   11   61 1    
    25   12   13 ar   
    26   12   72 1    
    27   13   14 ar   
    28   13   15 1    
    29   14   73 1    
    30   15   16 1    
    31   15   74 1    
    32   15   75 1    
    33   16   17 1    
    34   17   18 1    
    35   17   76 1    
    36   17   77 1    
    37   18   19 1    
    38   18   27 1    
    39   18   78 1    
    40   19   20 am   BACKBONE|DICT|INTERRES
    41   19   79 1    
    42   20   21 2    
    43   20   22 1    
    44   22   23 1    
    45   22   24 1    
    46   22   80 1    
    47   23   81 1    
    48   23   82 1    
    49   23   83 1    
    50   24   25 am   BACKBONE|DICT|INTERRES
    51   24   84 1    
    52   25   26 2    
    53   27   28 2    
    54   27   29 am   BACKBONE|DICT|INTERRES
    55   29   30 1    
    56   29   85 1    
    57   30   31 1    
    58   30   32 1    
    59   30   86 1    
    60   31   87 1    
    61   31   88 1    
    62   31   89 1    
    63   32   33 2    
    64   32   34 am   BACKBONE|DICT|INTERRES
    65   34   35 1    
    66   34   90 1    
    67   35   36 1    
    68   35   37 1    
    69   35   91 1    
    70   36   92 1    
    71   36   93 1    
    72   36   94 1    
    73   37   38 2    
    74   37   39 am   BACKBONE|DICT|INTERRES
    75   39   40 1    
    76   39   95 1    
    77   40   41 1    
    78   40   42 1    
    79   40   96 1    
    80   41   97 1    
    81   41   98 1    
    82   41   99 1    
    83   42   43 2    
    84   42   44 am   BACKBONE|DICT|INTERRES
    85   44   45 1    
    86   44  100 1    
    87   45   46 1    
    88   45   47 1    
    89   45  101 1    
    90   46  102 1    
    91   46  103 1    
    92   46  104 1    
    93   47   48 2    
    94   47   49 am   BACKBONE|DICT|INTERRES
    95   49   50 1    
    96   49  105 1    
    97   50   51 1    
    98   50   52 1    
    99   50  106 1    
   100   51  107 1    
   101   51  108 1    
   102   51  109 1    
   103   52   53 2    
   104   52   54 am   BACKBONE|DICT|INTERRES
   105   54   55 1    
   106   54  110 1    
   107   55   56 1    
   108   55   59 1    
   109   55  111 1    
   110   56   57 am   BACKBONE|DICT|INTERRES
   111   56   58 2    
   112   57  112 1    
   113   57  113 1    
   114   59   60 1    
   115   59  114 1    
   116   59  115 1    
   117   60   61 1    
   118   61  116 1    
   119   61  117 1    
@<TRIPOS>SUBSTRUCTURE
     1 UNK         1 GROUP             0       ****    0 ROOT    
