@<TRIPOS>MOLECULE
3R8
117   119    1
SMALL
USER_CHARGES


@<TRIPOS>ATOM
      1 CA         17.0790  -22.3983  -42.1136 C.3       0 UNK        -0.2013 
      2 C          17.3313  -23.0723  -43.4539 C.2       0 UNK         0.4866 
      3 O          17.3805  -22.3959  -44.4812 O.2       0 UNK        -0.5176 
      4 N          17.4970  -24.4016  -43.4528 N.am      1 UNK        -0.4884 
      5 CA         17.7051  -25.2218  -44.6556 C.3       1 UNK         0.0853 
      6 C6         17.4413  -26.7275  -44.3882 C.3       10 UNK        -0.0849 
      7 S7         15.8460  -27.1035  -43.5906 S.3       10 UNK        -0.2776 
      8 C8         15.4200  -28.7007  -44.3638 C.3       10 UNK         0.0316 
      9 C9         16.4812  -29.7707  -44.1260 C.ar      10 UNK        -0.0863 
     10 C10        16.5580  -30.4310  -42.8948 C.ar      10 UNK        -0.1009 
     11 C11        17.5176  -31.4269  -42.6815 C.ar      10 UNK        -0.0712 
     12 C12        18.4023  -31.7594  -43.7111 C.ar      10 UNK        -0.0894 
     13 C13        18.3422  -31.1041  -44.9419 C.ar      10 UNK        -0.0745 
     14 C14        17.3736  -30.1166  -45.1470 C.ar      10 UNK        -0.0972 
     15 C15        19.3180  -31.4786  -46.0494 C.3       10 UNK         0.0209 
     16 S16        21.0224  -30.9510  -45.6770 S.3       10 UNK        -0.2568 
     17 C17        20.8654  -29.1378  -45.7683 C.3       10 UNK        -0.0983 
     18 CA         21.8174  -28.3275  -44.8508 C.3       3 UNK         0.0876 
     19 N          21.5737  -26.8994  -45.0752 N.am      3 UNK        -0.4424 
     20 C          22.1810  -25.8619  -44.4900 C.2       2 UNK         0.4918 
     21 O          23.1497  -25.9705  -43.7412 O.2       2 UNK        -0.4875 
     22 CA         21.5295  -24.4801  -44.6951 C.3       2 UNK         0.0481 
     23 CB         21.9327  -23.8559  -46.0446 C.3       2 UNK        -0.1831 
     24 N          20.0683  -24.5036  -44.4943 N.am      2 UNK        -0.4498 
     25 C          19.1226  -25.0812  -45.2553 C.2       1 UNK         0.5027 
     26 O          19.3588  -25.5995  -46.3474 O.2       1 UNK        -0.4969 
     27 C          21.6856  -28.6989  -43.3526 C.2       3 UNK         0.5005 
     28 O          22.5548  -29.3794  -42.8031 O.2       3 UNK        -0.5279 
     29 N          20.6323  -28.1801  -42.7041 N.am      4 UNK        -0.4463 
     30 CA         20.3758  -28.3392  -41.2721 C.3       4 UNK         0.0283 
     31 CB         18.9228  -27.9506  -40.9588 C.3       4 UNK        -0.1875 
     32 C          21.3515  -27.5445  -40.3895 C.2       4 UNK         0.4949 
     33 O          21.7210  -28.0295  -39.3217 O.2       4 UNK        -0.5039 
     34 N          21.7786  -26.3594  -40.8517 N.am      5 UNK        -0.4663 
     35 CA         22.7696  -25.5172  -40.1686 C.3       5 UNK         0.0242 
     36 CB         22.7642  -24.1041  -40.7731 C.3       5 UNK        -0.1982 
     37 C          24.1803  -26.1292  -40.2117 C.2       5 UNK         0.5017 
     38 O          24.9136  -26.0381  -39.2274 O.2       5 UNK        -0.5012 
     39 N          24.5070  -26.7882  -41.3321 N.am      6 UNK        -0.4439 
     40 CA         25.7019  -27.6155  -41.5173 C.3       6 UNK         0.0297 
     41 CB         25.8994  -27.8657  -43.0221 C.3       6 UNK        -0.2006 
     42 C          25.6504  -28.9550  -40.7525 C.2       6 UNK         0.4892 
     43 O          26.6741  -29.6364  -40.6850 O.2       6 UNK        -0.5089 
     44 N          24.4758  -29.3072  -40.2052 N.am      7 UNK        -0.4243 
     45 CA         24.1526  -30.5342  -39.4707 C.3       7 UNK         0.0196 
     46 CB         24.9430  -30.6130  -38.1471 C.3       7 UNK        -0.2007 
     47 C          24.2873  -31.7999  -40.3367 C.2       7 UNK         0.5020 
     48 O          24.7271  -32.8401  -39.8451 O.2       7 UNK        -0.5147 
     49 N          23.8887  -31.6980  -41.6120 N.am      8 UNK        -0.4734 
     50 CA         23.9264  -32.7950  -42.5844 C.3       8 UNK         0.0238 
     51 CB         24.1908  -32.2090  -43.9812 C.3       8 UNK        -0.1912 
     52 C          22.6658  -33.6845  -42.5550 C.2       8 UNK         0.5038 
     53 O          22.5534  -34.5872  -43.3861 O.2       8 UNK        -0.5046 
     54 N          21.7507  -33.4287  -41.6090 N.am      9 UNK        -0.4200 
     55 CA         20.5513  -34.2291  -41.3175 C.3       9 UNK         0.0839 
     56 C          20.8761  -35.7112  -40.9819 C.2       9 UNK         0.5513 
     57 N          20.0601  -36.6467  -41.4481 N.am      9 UNK        -0.7519 
     58 O          21.8274  -36.0124  -40.2640 O.2       9 UNK        -0.4960 
     59 C59        19.7153  -33.6017  -40.1699 C.3       10 UNK        -0.0876 
     60 S60        19.1819  -31.8912  -40.5141 S.3       10 UNK        -0.2414 
     61 C61        17.5883  -32.1664  -41.3535 C.3       10 UNK         0.0169 
     62 H62        17.8638  -21.6717  -41.9050 H         1 UNK         0.0903 
     63 H63        16.1246  -21.8728  -42.1325 H         1 UNK         0.0903 
     64 H64        17.0539  -23.1159  -41.2937 H         1 UNK         0.0903 
     65 H65        17.3999  -24.9139  -42.5871 H         1 UNK         0.3096 
     66 H66        17.0023  -24.8835  -45.4206 H         1 UNK         0.1121 
     67 H67        17.4873  -27.2722  -45.3329 H         1 UNK         0.0849 
     68 H68        18.2188  -27.1549  -43.7561 H         1 UNK         0.0849 
     69 H69        14.4652  -29.0428  -43.9617 H         1 UNK         0.0865 
     70 H70        15.2582  -28.5500  -45.4324 H         1 UNK         0.0865 
     71 H71        15.8674  -30.1686  -42.1048 H         1 UNK         0.1346 
     72 H72        19.1503  -32.5228  -43.5530 H         1 UNK         0.1412 
     73 H73        17.3159  -29.6158  -46.1038 H         1 UNK         0.1426 
     74 H74        19.3075  -32.5613  -46.1832 H         1 UNK         0.0716 
     75 H75        19.0098  -31.0496  -47.0041 H         1 UNK         0.0716 
     76 H76        21.0366  -28.8565  -46.8087 H         1 UNK         0.0695 
     77 H77        19.8330  -28.8582  -45.5571 H         1 UNK         0.0695 
     78 H78        22.8477  -28.5364  -45.1458 H         1 UNK         0.0983 
     79 H79        20.8007  -26.6701  -45.6935 H         1 UNK         0.3095 
     80 H80        21.9190  -23.8278  -43.9126 H         1 UNK         0.0454 
     81 H81        21.6389  -24.4729  -46.8938 H         1 UNK         0.0851 
     82 H82        21.4838  -22.8713  -46.1748 H         1 UNK         0.0851 
     83 H83        23.0145  -23.7284  -46.1017 H         1 UNK         0.0851 
     84 H84        19.7511  -24.1103  -43.6189 H         1 UNK         0.2976 
     85 H85        19.9658  -27.6417  -43.2321 H         1 UNK         0.3116 
     86 H86        20.5069  -29.3941  -41.0282 H         1 UNK         0.0646 
     87 H87        18.6988  -28.1097  -39.9031 H         1 UNK         0.0847 
     88 H88        18.2195  -28.5576  -41.5282 H         1 UNK         0.0847 
     89 H89        18.7219  -26.9021  -41.1801 H         1 UNK         0.0847 
     90 H90        21.4537  -26.0442  -41.7523 H         1 UNK         0.3040 
     91 H91        22.4778  -25.4378  -39.1186 H         1 UNK         0.1015 
     92 H92        21.7689  -23.6603  -40.7435 H         1 UNK         0.0786 
     93 H93        23.1062  -24.1014  -41.8077 H         1 UNK         0.0786 
     94 H94        23.4286  -23.4438  -40.2141 H         1 UNK         0.0786 
     95 H95        23.8722  -26.7283  -42.1240 H         1 UNK         0.3172 
     96 H96        26.5642  -27.0586  -41.1454 H         1 UNK         0.0595 
     97 H97        26.8106  -28.4355  -43.2088 H         1 UNK         0.0839 
     98 H98        25.9844  -26.9290  -43.5734 H         1 UNK         0.0839 
     99 H99        25.0695  -28.4305  -43.4484 H         1 UNK         0.0839 
    100 H100       23.6989  -28.6724  -40.3338 H         1 UNK         0.2998 
    101 H101       23.0948  -30.4603  -39.2138 H         1 UNK         0.0822 
    102 H102       24.8140  -29.7067  -37.5552 H         1 UNK         0.0787 
    103 H103       24.6000  -31.4492  -37.5366 H         1 UNK         0.0787 
    104 H104       26.0105  -30.7534  -38.3190 H         1 UNK         0.0787 
    105 H105       23.5076  -30.8137  -41.9462 H         1 UNK         0.3055 
    106 H106       24.7645  -33.4534  -42.3446 H         1 UNK         0.1106 
    107 H107       24.2123  -32.9876  -44.7447 H         1 UNK         0.0828 
    108 H108       23.4236  -31.4917  -44.2647 H         1 UNK         0.0828 
    109 H109       25.1516  -31.6954  -44.0164 H         1 UNK         0.0828 
    110 H110       21.9285  -32.6588  -40.9834 H         1 UNK         0.2931 
    111 H111       19.9441  -34.2215  -42.2237 H         1 UNK         0.0412 
    112 H112       20.2445  -37.6129  -41.2257 H         1 UNK         0.3472 
    113 H113       19.2710  -36.4097  -42.0295 H         1 UNK         0.3472 
    114 H114       20.2972  -33.5883  -39.2462 H         1 UNK         0.0970 
    115 H115       18.8348  -34.2095  -39.9519 H         1 UNK         0.0970 
    116 H116       16.7845  -31.8504  -40.6870 H         1 UNK         0.0612 
    117 H117       17.4317  -33.2290  -41.5424 H         1 UNK         0.0612 
@<TRIPOS>BOND
     1    1    2 1    
     2    1   62 1    
     3    1   63 1    
     4    1   64 1    
     5    2    3 2    
     6    2    4 am   BACKBONE|DICT|INTERRES
     7    4    5 1    
     8    4   65 1    
     9    5    6 1    
    10    5   25 1    
    11    5   66 1    
    12    6    7 1    
    13    6   67 1    
    14    6   68 1    
    15    7    8 1    
    16    8    9 1    
    17    8   69 1    
    18    8   70 1    
    19    9   10 ar   
    20    9   14 ar   
    21   10   11 ar   
    22   10   71 1    
    23   11   12 ar   
    24   11   61 1    
    25   12   13 ar   
    26   12   72 1    
    27   13   14 ar   
    28   13   15 1    
    29   14   73 1    
    30   15   16 1    
    31   15   74 1    
    32   15   75 1    
    33   16   17 1    
    34   17   18 1    
    35   17   76 1    
    36   17   77 1    
    37   18   19 1    
    38   18   27 1    
    39   18   78 1    
    40   19   20 am   BACKBONE|DICT|INTERRES
    41   19   79 1    
    42   20   21 2    
    43   20   22 1    
    44   22   23 1    
    45   22   24 1    
    46   22   80 1    
    47   23   81 1    
    48   23   82 1    
    49   23   83 1    
    50   24   25 am   BACKBONE|DICT|INTERRES
    51   24   84 1    
    52   25   26 2    
    53   27   28 2    
    54   27   29 am   BACKBONE|DICT|INTERRES
    55   29   30 1    
    56   29   85 1    
    57   30   31 1    
    58   30   32 1    
    59   30   86 1    
    60   31   87 1    
    61   31   88 1    
    62   31   89 1    
    63   32   33 2    
    64   32   34 am   BACKBONE|DICT|INTERRES
    65   34   35 1    
    66   34   90 1    
    67   35   36 1    
    68   35   37 1    
    69   35   91 1    
    70   36   92 1    
    71   36   93 1    
    72   36   94 1    
    73   37   38 2    
    74   37   39 am   BACKBONE|DICT|INTERRES
    75   39   40 1    
    76   39   95 1    
    77   40   41 1    
    78   40   42 1    
    79   40   96 1    
    80   41   97 1    
    81   41   98 1    
    82   41   99 1    
    83   42   43 2    
    84   42   44 am   BACKBONE|DICT|INTERRES
    85   44   45 1    
    86   44  100 1    
    87   45   46 1    
    88   45   47 1    
    89   45  101 1    
    90   46  102 1    
    91   46  103 1    
    92   46  104 1    
    93   47   48 2    
    94   47   49 am   BACKBONE|DICT|INTERRES
    95   49   50 1    
    96   49  105 1    
    97   50   51 1    
    98   50   52 1    
    99   50  106 1    
   100   51  107 1    
   101   51  108 1    
   102   51  109 1    
   103   52   53 2    
   104   52   54 am   BACKBONE|DICT|INTERRES
   105   54   55 1    
   106   54  110 1    
   107   55   56 1    
   108   55   59 1    
   109   55  111 1    
   110   56   57 am   BACKBONE|DICT|INTERRES
   111   56   58 2    
   112   57  112 1    
   113   57  113 1    
   114   59   60 1    
   115   59  114 1    
   116   59  115 1    
   117   60   61 1    
   118   61  116 1    
   119   61  117 1    
@<TRIPOS>SUBSTRUCTURE
     1 UNK         1 GROUP             0       ****    0 ROOT    
