@<TRIPOS>MOLECULE
3R8
117   119    1
SMALL
USER_CHARGES


@<TRIPOS>ATOM
      1 CA         15.0109  -24.2718  -41.4026 C.3       0 UNK        -0.2013 
      2 C          15.6232  -24.3691  -42.7920 C.2       0 UNK         0.4866 
      3 O          15.6318  -23.3814  -43.5280 O.2       0 UNK        -0.5176 
      4 N          16.1260  -25.5538  -43.1599 N.am      1 UNK        -0.4884 
      5 CA         16.7965  -25.8181  -44.4378 C.3       1 UNK         0.0853 
      6 C6         16.9386  -27.3352  -44.7095 C.3       10 UNK        -0.0849 
      7 S7         15.3330  -28.1967  -44.8040 S.3       10 UNK        -0.2776 
      8 C8         15.7472  -29.6088  -45.8821 C.3       10 UNK         0.0316 
      9 C9         16.9023  -30.4258  -45.3196 C.ar      10 UNK        -0.0863 
     10 C10        16.7101  -31.2288  -44.1924 C.ar      10 UNK        -0.1009 
     11 C11        17.7741  -31.9474  -43.6402 C.ar      10 UNK        -0.0712 
     12 C12        19.0411  -31.8540  -44.2297 C.ar      10 UNK        -0.0894 
     13 C13        19.2473  -31.0606  -45.3623 C.ar      10 UNK        -0.0745 
     14 C14        18.1682  -30.3588  -45.9094 C.ar      10 UNK        -0.0972 
     15 C15        20.6289  -30.9929  -46.0061 C.3       10 UNK         0.0209 
     16 S16        21.1947  -29.2897  -46.3304 S.3       10 UNK        -0.2568 
     17 C17        21.5346  -28.6787  -44.6472 C.3       10 UNK        -0.0983 
     18 CA         22.0124  -27.2062  -44.6597 C.3       3 UNK         0.0876 
     19 N          21.0106  -26.3136  -45.2518 N.am      3 UNK        -0.4424 
     20 C          21.1864  -25.0161  -45.5392 C.2       2 UNK         0.4918 
     21 O          22.2644  -24.4313  -45.4320 O.2       2 UNK        -0.4875 
     22 CA         19.9489  -24.2229  -46.0074 C.3       2 UNK         0.0481 
     23 CB         20.0344  -23.9474  -47.5174 C.3       2 UNK        -0.1831 
     24 N          18.6527  -24.8488  -45.7078 N.am      2 UNK        -0.4498 
     25 C          18.1864  -25.1508  -44.4862 C.2       1 UNK         0.5027 
     26 O          18.8329  -24.9907  -43.4463 O.2       1 UNK        -0.4969 
     27 C          22.4504  -26.7521  -43.2487 C.2       3 UNK         0.5005 
     28 O          23.6099  -26.9623  -42.8956 O.2       3 UNK        -0.5279 
     29 N          21.5410  -26.1022  -42.5012 N.am      4 UNK        -0.4463 
     30 CA         21.7292  -25.4189  -41.2147 C.3       4 UNK         0.0283 
     31 CB         22.6455  -24.1883  -41.3755 C.3       4 UNK        -0.1875 
     32 C          22.1851  -26.3197  -40.0518 C.2       4 UNK         0.4949 
     33 O          21.3941  -26.5811  -39.1456 O.2       4 UNK        -0.5039 
     34 N          23.4473  -26.7546  -40.0804 N.am      5 UNK        -0.4663 
     35 CA         24.1146  -27.5536  -39.0568 C.3       5 UNK         0.0242 
     36 CB         24.5958  -26.6446  -37.9113 C.3       5 UNK        -0.1982 
     37 C          25.2925  -28.2891  -39.7051 C.2       5 UNK         0.5017 
     38 O          25.8069  -27.8293  -40.7273 O.2       5 UNK        -0.5012 
     39 N          25.6927  -29.4218  -39.1106 N.am      6 UNK        -0.4439 
     40 CA         26.7513  -30.3554  -39.5353 C.3       6 UNK         0.0297 
     41 CB         28.1324  -29.6733  -39.6046 C.3       6 UNK        -0.2006 
     42 C          26.4317  -31.1166  -40.8364 C.2       6 UNK         0.4892 
     43 O          26.5211  -32.3442  -40.8506 O.2       6 UNK        -0.5089 
     44 N          26.0346  -30.3883  -41.8873 N.am      7 UNK        -0.4243 
     45 CA         25.4781  -30.9357  -43.1275 C.3       7 UNK         0.0196 
     46 CB         25.6200  -29.8909  -44.2463 C.3       7 UNK        -0.2007 
     47 C          24.0043  -31.3528  -42.9694 C.2       7 UNK         0.5020 
     48 O          23.5162  -32.1599  -43.7604 O.2       7 UNK        -0.5147 
     49 N          23.3191  -30.7854  -41.9667 N.am      8 UNK        -0.4734 
     50 CA         21.9388  -31.1011  -41.6002 C.3       8 UNK         0.0238 
     51 CB         21.4006  -29.9845  -40.6908 C.3       8 UNK        -0.1912 
     52 C          21.8119  -32.4792  -40.9229 C.2       8 UNK         0.5038 
     53 O          22.8123  -33.0639  -40.5013 O.2       8 UNK        -0.5046 
     54 N          20.5671  -32.9579  -40.8227 N.am      9 UNK        -0.4200 
     55 CA         20.1939  -34.2865  -40.3046 C.3       9 UNK         0.0839 
     56 C          20.4524  -34.5114  -38.7857 C.2       9 UNK         0.5513 
     57 N          20.6994  -33.4775  -37.9905 N.am      9 UNK        -0.7519 
     58 O          20.4243  -35.6486  -38.3224 O.2       9 UNK        -0.4960 
     59 C59        18.7254  -34.6517  -40.6612 C.3       10 UNK        -0.0876 
     60 S60        18.3304  -34.4155  -42.4293 S.3       10 UNK        -0.2414 
     61 C61        17.5514  -32.7658  -42.3735 C.3       10 UNK         0.0169 
     62 H62        15.0562  -25.2212  -40.8693 H         1 UNK         0.0903 
     63 H63        15.5404  -23.5253  -40.8112 H         1 UNK         0.0903 
     64 H64        13.9655  -23.9724  -41.4731 H         1 UNK         0.0903 
     65 H65        16.0969  -26.3309  -42.5156 H         1 UNK         0.3096 
     66 H66        16.1855  -25.3794  -45.2304 H         1 UNK         0.1121 
     67 H67        17.4646  -27.4997  -45.6519 H         1 UNK         0.0849 
     68 H68        17.5414  -27.8157  -43.9355 H         1 UNK         0.0849 
     69 H69        15.9807  -29.2422  -46.8831 H         1 UNK         0.0865 
     70 H70        14.8684  -30.2464  -45.9889 H         1 UNK         0.0865 
     71 H71        15.7322  -31.2720  -43.7320 H         1 UNK         0.1346 
     72 H72        19.8684  -32.4097  -43.8116 H         1 UNK         0.1412 
     73 H73        18.3213  -29.7458  -46.7872 H         1 UNK         0.1426 
     74 H74        20.5946  -31.5334  -46.9528 H         1 UNK         0.0716 
     75 H75        21.3739  -31.4993  -45.3906 H         1 UNK         0.0716 
     76 H76        22.2983  -29.3214  -44.2092 H         1 UNK         0.0695 
     77 H77        20.6373  -28.7942  -44.0359 H         1 UNK         0.0695 
     78 H78        22.9027  -27.1474  -45.2900 H         1 UNK         0.0983 
     79 H79        20.1035  -26.7192  -45.4204 H         1 UNK         0.3095 
     80 H80        19.9715  -23.2640  -45.4858 H         1 UNK         0.0454 
     81 H81        19.9885  -24.8687  -48.0994 H         1 UNK         0.0851 
     82 H82        20.9708  -23.4489  -47.7721 H         1 UNK         0.0851 
     83 H83        19.2257  -23.2968  -47.8507 H         1 UNK         0.0851 
     84 H84        18.0614  -25.0336  -46.5061 H         1 UNK         0.2976 
     85 H85        20.6177  -25.9732  -42.9027 H         1 UNK         0.3116 
     86 H86        20.7413  -25.0437  -40.9419 H         1 UNK         0.0646 
     87 H87        22.7551  -23.6564  -40.4295 H         1 UNK         0.0847 
     88 H88        22.2322  -23.4834  -42.0972 H         1 UNK         0.0847 
     89 H89        23.6460  -24.4587  -41.7141 H         1 UNK         0.0847 
     90 H90        23.9860  -26.6144  -40.9334 H         1 UNK         0.3040 
     91 H91        23.4113  -28.2919  -38.6662 H         1 UNK         0.1015 
     92 H92        23.7608  -26.1363  -37.4289 H         1 UNK         0.0786 
     93 H93        25.2893  -25.8823  -38.2691 H         1 UNK         0.0786 
     94 H94        25.1108  -27.2201  -37.1410 H         1 UNK         0.0786 
     95 H95        25.1953  -29.7096  -38.2781 H         1 UNK         0.3172 
     96 H96        26.8065  -31.1054  -38.7443 H         1 UNK         0.0595 
     97 H97        28.1832  -28.9194  -40.3905 H         1 UNK         0.0839 
     98 H98        28.9147  -30.4048  -39.8113 H         1 UNK         0.0839 
     99 H99        28.3833  -29.1898  -38.6605 H         1 UNK         0.0839 
    100 H100       26.0016  -29.3780  -41.7671 H         1 UNK         0.2998 
    101 H101       26.0466  -31.8246  -43.4096 H         1 UNK         0.0822 
    102 H102       26.6654  -29.6349  -44.4192 H         1 UNK         0.0787 
    103 H103       25.2180  -30.2684  -45.1877 H         1 UNK         0.0787 
    104 H104       25.0845  -28.9710  -44.0090 H         1 UNK         0.0787 
    105 H105       23.8191  -30.1566  -41.3584 H         1 UNK         0.3055 
    106 H106       21.3479  -31.1181  -42.5173 H         1 UNK         0.1106 
    107 H107       20.3472  -30.1365  -40.4527 H         1 UNK         0.0828 
    108 H108       21.9428  -29.9350  -39.7463 H         1 UNK         0.0828 
    109 H109       21.4771  -29.0114  -41.1751 H         1 UNK         0.0828 
    110 H110       19.8023  -32.4024  -41.1717 H         1 UNK         0.2931 
    111 H111       20.8357  -35.0025  -40.8219 H         1 UNK         0.0412 
    112 H112       20.7323  -32.5423  -38.3620 H         1 UNK         0.3472 
    113 H113       20.8665  -33.6380  -37.0094 H         1 UNK         0.3472 
    114 H114       18.0237  -34.0787  -40.0517 H         1 UNK         0.0970 
    115 H115       18.5343  -35.6996  -40.4214 H         1 UNK         0.0970 
    116 H116       17.9400  -32.1899  -41.5336 H         1 UNK         0.0612 
    117 H117       16.4857  -32.9019  -42.1826 H         1 UNK         0.0612 
@<TRIPOS>BOND
     1    1    2 1    
     2    1   62 1    
     3    1   63 1    
     4    1   64 1    
     5    2    3 2    
     6    2    4 am   BACKBONE|DICT|INTERRES
     7    4    5 1    
     8    4   65 1    
     9    5    6 1    
    10    5   25 1    
    11    5   66 1    
    12    6    7 1    
    13    6   67 1    
    14    6   68 1    
    15    7    8 1    
    16    8    9 1    
    17    8   69 1    
    18    8   70 1    
    19    9   10 ar   
    20    9   14 ar   
    21   10   11 ar   
    22   10   71 1    
    23   11   12 ar   
    24   11   61 1    
    25   12   13 ar   
    26   12   72 1    
    27   13   14 ar   
    28   13   15 1    
    29   14   73 1    
    30   15   16 1    
    31   15   74 1    
    32   15   75 1    
    33   16   17 1    
    34   17   18 1    
    35   17   76 1    
    36   17   77 1    
    37   18   19 1    
    38   18   27 1    
    39   18   78 1    
    40   19   20 am   BACKBONE|DICT|INTERRES
    41   19   79 1    
    42   20   21 2    
    43   20   22 1    
    44   22   23 1    
    45   22   24 1    
    46   22   80 1    
    47   23   81 1    
    48   23   82 1    
    49   23   83 1    
    50   24   25 am   BACKBONE|DICT|INTERRES
    51   24   84 1    
    52   25   26 2    
    53   27   28 2    
    54   27   29 am   BACKBONE|DICT|INTERRES
    55   29   30 1    
    56   29   85 1    
    57   30   31 1    
    58   30   32 1    
    59   30   86 1    
    60   31   87 1    
    61   31   88 1    
    62   31   89 1    
    63   32   33 2    
    64   32   34 am   BACKBONE|DICT|INTERRES
    65   34   35 1    
    66   34   90 1    
    67   35   36 1    
    68   35   37 1    
    69   35   91 1    
    70   36   92 1    
    71   36   93 1    
    72   36   94 1    
    73   37   38 2    
    74   37   39 am   BACKBONE|DICT|INTERRES
    75   39   40 1    
    76   39   95 1    
    77   40   41 1    
    78   40   42 1    
    79   40   96 1    
    80   41   97 1    
    81   41   98 1    
    82   41   99 1    
    83   42   43 2    
    84   42   44 am   BACKBONE|DICT|INTERRES
    85   44   45 1    
    86   44  100 1    
    87   45   46 1    
    88   45   47 1    
    89   45  101 1    
    90   46  102 1    
    91   46  103 1    
    92   46  104 1    
    93   47   48 2    
    94   47   49 am   BACKBONE|DICT|INTERRES
    95   49   50 1    
    96   49  105 1    
    97   50   51 1    
    98   50   52 1    
    99   50  106 1    
   100   51  107 1    
   101   51  108 1    
   102   51  109 1    
   103   52   53 2    
   104   52   54 am   BACKBONE|DICT|INTERRES
   105   54   55 1    
   106   54  110 1    
   107   55   56 1    
   108   55   59 1    
   109   55  111 1    
   110   56   57 am   BACKBONE|DICT|INTERRES
   111   56   58 2    
   112   57  112 1    
   113   57  113 1    
   114   59   60 1    
   115   59  114 1    
   116   59  115 1    
   117   60   61 1    
   118   61  116 1    
   119   61  117 1    
@<TRIPOS>SUBSTRUCTURE
     1 UNK         1 GROUP             0       ****    0 ROOT    
