@<TRIPOS>MOLECULE
3R8
117   119    1
SMALL
USER_CHARGES


@<TRIPOS>ATOM
      1 CA         17.0981  -21.8897  -41.7535 C.3       0 UNK        -0.2013 
      2 C          17.3424  -23.1793  -42.5228 C.2       0 UNK         0.4866 
      3 O          18.1015  -23.1796  -43.4923 O.2       0 UNK        -0.5176 
      4 N          16.7011  -24.2777  -42.1037 N.am      1 UNK        -0.4884 
      5 CA         16.8732  -25.6137  -42.6782 C.3       1 UNK         0.0853 
      6 C6         15.6650  -26.5269  -42.3386 C.3       10 UNK        -0.0849 
      7 S7         15.4919  -27.9106  -43.5111 S.3       10 UNK        -0.2776 
      8 C8         16.2950  -29.2606  -42.5805 C.3       10 UNK         0.0316 
      9 C9         16.6724  -30.4568  -43.4477 C.ar      10 UNK        -0.0863 
     10 C10        16.5582  -31.7505  -42.9325 C.ar      10 UNK        -0.1009 
     11 C11        16.9837  -32.8556  -43.6768 C.ar      10 UNK        -0.0712 
     12 C12        17.4992  -32.6623  -44.9628 C.ar      10 UNK        -0.0894 
     13 C13        17.6241  -31.3744  -45.4932 C.ar      10 UNK        -0.0745 
     14 C14        17.2064  -30.2802  -44.7285 C.ar      10 UNK        -0.0972 
     15 C15        18.1850  -31.1845  -46.9006 C.3       10 UNK         0.0209 
     16 S16        19.2404  -29.7066  -47.0923 S.3       10 UNK        -0.2568 
     17 C17        20.7674  -30.2219  -46.2439 C.3       10 UNK        -0.0983 
     18 CA         21.5661  -28.9968  -45.7332 C.3       3 UNK         0.0876 
     19 N          20.9639  -28.3995  -44.5352 N.am      3 UNK        -0.4424 
     20 C          21.2482  -27.1776  -44.0702 C.2       2 UNK         0.4918 
     21 O          22.0183  -26.3963  -44.6298 O.2       2 UNK        -0.4875 
     22 CA         20.5542  -26.7628  -42.7698 C.3       2 UNK         0.0481 
     23 CB         21.3598  -25.7194  -41.9706 C.3       2 UNK        -0.1831 
     24 N          19.2170  -26.2599  -43.0719 N.am      2 UNK        -0.4498 
     25 C          18.2119  -26.2045  -42.1893 C.2       1 UNK         0.5027 
     26 O          18.3095  -26.5756  -41.0172 O.2       1 UNK        -0.4969 
     27 C          23.0538  -29.3503  -45.5276 C.2       3 UNK         0.5005 
     28 O          23.8096  -29.3233  -46.5004 O.2       3 UNK        -0.5279 
     29 N          23.4624  -29.6392  -44.2830 N.am      4 UNK        -0.4463 
     30 CA         24.8625  -29.8685  -43.9096 C.3       4 UNK         0.0283 
     31 CB         24.9318  -31.0095  -42.8823 C.3       4 UNK        -0.1875 
     32 C          25.5483  -28.5987  -43.3733 C.2       4 UNK         0.4949 
     33 O          26.7073  -28.6786  -42.9645 O.2       4 UNK        -0.5039 
     34 N          24.8314  -27.4632  -43.3480 N.am      5 UNK        -0.4663 
     35 CA         25.2062  -26.1353  -42.8343 C.3       5 UNK         0.0242 
     36 CB         26.4216  -25.5551  -43.5839 C.3       5 UNK        -0.1982 
     37 C          25.4123  -26.0906  -41.3091 C.2       5 UNK         0.5017 
     38 O          24.8109  -25.2503  -40.6409 O.2       5 UNK        -0.5012 
     39 N          26.2328  -27.0078  -40.7869 N.am      6 UNK        -0.4439 
     40 CA         26.4898  -27.2161  -39.3612 C.3       6 UNK         0.0297 
     41 CB         27.8734  -27.8682  -39.2022 C.3       6 UNK        -0.2006 
     42 C          25.4103  -28.0726  -38.6711 C.2       6 UNK         0.4892 
     43 O          25.4044  -28.1437  -37.4413 O.2       6 UNK        -0.5089 
     44 N          24.5324  -28.7132  -39.4524 N.am      7 UNK        -0.4243 
     45 CA         23.4383  -29.5610  -38.9907 C.3       7 UNK         0.0196 
     46 CB         23.9428  -31.0028  -38.7931 C.3       7 UNK        -0.2007 
     47 C          22.2934  -29.5023  -40.0084 C.2       7 UNK         0.5020 
     48 O          22.5043  -29.0594  -41.1420 O.2       7 UNK        -0.5147 
     49 N          21.1098  -29.9556  -39.5712 N.am      8 UNK        -0.4734 
     50 CA         19.8641  -29.9895  -40.3417 C.3       8 UNK         0.0238 
     51 CB         18.7074  -30.4801  -39.4516 C.3       8 UNK        -0.1912 
     52 C          19.9826  -30.8197  -41.6286 C.2       8 UNK         0.5038 
     53 O          19.9618  -30.2479  -42.7179 O.2       8 UNK        -0.5046 
     54 N          20.1145  -32.1409  -41.4720 N.am      9 UNK        -0.4200 
     55 CA         20.2503  -33.0891  -42.5828 C.3       9 UNK         0.0839 
     56 C          21.7316  -33.2328  -43.0069 C.2       9 UNK         0.5513 
     57 N          22.0095  -33.2670  -44.3030 N.am      9 UNK        -0.7519 
     58 O          22.6204  -33.3654  -42.1689 O.2       9 UNK        -0.4960 
     59 C59        19.6318  -34.4770  -42.2601 C.3       10 UNK        -0.0876 
     60 S60        17.9355  -34.4122  -41.5805 S.3       10 UNK        -0.2414 
     61 C61        16.9060  -34.2534  -43.0776 C.3       10 UNK         0.0169 
     62 H62        16.3987  -22.0314  -40.9298 H         1 UNK         0.0903 
     63 H63        18.0353  -21.5156  -41.3421 H         1 UNK         0.0903 
     64 H64        16.6897  -21.1285  -42.4177 H         1 UNK         0.0903 
     65 H65        16.1150  -24.2259  -41.2820 H         1 UNK         0.3096 
     66 H66        16.9147  -25.5026  -43.7648 H         1 UNK         0.1121 
     67 H67        14.7402  -25.9520  -42.4106 H         1 UNK         0.0849 
     68 H68        15.6994  -26.8943  -41.3107 H         1 UNK         0.0849 
     69 H69        17.2079  -28.8961  -42.1103 H         1 UNK         0.0865 
     70 H70        15.6298  -29.5667  -41.7715 H         1 UNK         0.0865 
     71 H71        16.1706  -31.9015  -41.9342 H         1 UNK         0.1346 
     72 H72        17.8207  -33.5154  -45.5444 H         1 UNK         0.1412 
     73 H73        17.3107  -29.2817  -45.1280 H         1 UNK         0.1426 
     74 H74        17.3460  -31.1003  -47.5922 H         1 UNK         0.0716 
     75 H75        18.7545  -32.0619  -47.2112 H         1 UNK         0.0716 
     76 H76        21.3477  -30.8052  -46.9619 H         1 UNK         0.0695 
     77 H77        20.5273  -30.8958  -45.4196 H         1 UNK         0.0695 
     78 H78        21.5535  -28.2362  -46.5177 H         1 UNK         0.0983 
     79 H79        20.3753  -29.0163  -43.9749 H         1 UNK         0.3095 
     80 H80        20.4661  -27.6560  -42.1566 H         1 UNK         0.0454 
     81 H81        21.4871  -24.7895  -42.5258 H         1 UNK         0.0851 
     82 H82        22.3506  -26.1041  -41.7311 H         1 UNK         0.0851 
     83 H83        20.8778  -25.4800  -41.0230 H         1 UNK         0.0851 
     84 H84        19.0756  -25.9182  -44.0136 H         1 UNK         0.2976 
     85 H85        22.7866  -29.6327  -43.5276 H         1 UNK         0.3116 
     86 H86        25.4370  -30.1836  -44.7830 H         1 UNK         0.0646 
     87 H87        24.3123  -30.8093  -42.0100 H         1 UNK         0.0847 
     88 H88        25.9513  -31.1731  -42.5305 H         1 UNK         0.0847 
     89 H89        24.5963  -31.9478  -43.3215 H         1 UNK         0.0847 
     90 H90        23.8914  -27.5153  -43.7173 H         1 UNK         0.3040 
     91 H91        24.3566  -25.4857  -43.0528 H         1 UNK         0.1015 
     92 H92        27.3291  -26.1344  -43.4124 H         1 UNK         0.0786 
     93 H93        26.6254  -24.5339  -43.2591 H         1 UNK         0.0786 
     94 H94        26.2435  -25.5231  -44.6588 H         1 UNK         0.0786 
     95 H95        26.6537  -27.6679  -41.4395 H         1 UNK         0.3172 
     96 H96        26.5092  -26.2460  -38.8603 H         1 UNK         0.0595 
     97 H97        27.9165  -28.8456  -39.6847 H         1 UNK         0.0839 
     98 H98        28.1200  -28.0128  -38.1494 H         1 UNK         0.0839 
     99 H99        28.6574  -27.2458  -39.6339 H         1 UNK         0.0839 
    100 H100       24.5417  -28.5489  -40.4504 H         1 UNK         0.2998 
    101 H101       23.0610  -29.1736  -38.0415 H         1 UNK         0.0822 
    102 H102       24.7432  -31.0439  -38.0540 H         1 UNK         0.0787 
    103 H103       23.1453  -31.6569  -38.4389 H         1 UNK         0.0787 
    104 H104       24.3249  -31.4295  -39.7207 H         1 UNK         0.0787 
    105 H105       21.0550  -30.3023  -38.6241 H         1 UNK         0.3055 
    106 H106       19.6274  -28.9663  -40.6319 H         1 UNK         0.1106 
    107 H107       18.9048  -31.4606  -39.0173 H         1 UNK         0.0828 
    108 H108       17.7814  -30.5581  -40.0232 H         1 UNK         0.0828 
    109 H109       18.5195  -29.7851  -38.6330 H         1 UNK         0.0828 
    110 H110       20.1707  -32.5284  -40.5431 H         1 UNK         0.2931 
    111 H111       19.7098  -32.6833  -43.4366 H         1 UNK         0.0412 
    112 H112       22.9663  -33.3891  -44.5941 H         1 UNK         0.3472 
    113 H113       21.2807  -33.1967  -44.9945 H         1 UNK         0.3472 
    114 H114       20.2490  -35.0024  -41.5287 H         1 UNK         0.0970 
    115 H115       19.6289  -35.1057  -43.1524 H         1 UNK         0.0970 
    116 H116       17.1993  -35.0138  -43.8029 H         1 UNK         0.0612 
    117 H117       15.8691  -34.4639  -42.8126 H         1 UNK         0.0612 
@<TRIPOS>BOND
     1    1    2 1    
     2    1   62 1    
     3    1   63 1    
     4    1   64 1    
     5    2    3 2    
     6    2    4 am   BACKBONE|DICT|INTERRES
     7    4    5 1    
     8    4   65 1    
     9    5    6 1    
    10    5   25 1    
    11    5   66 1    
    12    6    7 1    
    13    6   67 1    
    14    6   68 1    
    15    7    8 1    
    16    8    9 1    
    17    8   69 1    
    18    8   70 1    
    19    9   10 ar   
    20    9   14 ar   
    21   10   11 ar   
    22   10   71 1    
    23   11   12 ar   
    24   11   61 1    
    25   12   13 ar   
    26   12   72 1    
    27   13   14 ar   
    28   13   15 1    
    29   14   73 1    
    30   15   16 1    
    31   15   74 1    
    32   15   75 1    
    33   16   17 1    
    34   17   18 1    
    35   17   76 1    
    36   17   77 1    
    37   18   19 1    
    38   18   27 1    
    39   18   78 1    
    40   19   20 am   BACKBONE|DICT|INTERRES
    41   19   79 1    
    42   20   21 2    
    43   20   22 1    
    44   22   23 1    
    45   22   24 1    
    46   22   80 1    
    47   23   81 1    
    48   23   82 1    
    49   23   83 1    
    50   24   25 am   BACKBONE|DICT|INTERRES
    51   24   84 1    
    52   25   26 2    
    53   27   28 2    
    54   27   29 am   BACKBONE|DICT|INTERRES
    55   29   30 1    
    56   29   85 1    
    57   30   31 1    
    58   30   32 1    
    59   30   86 1    
    60   31   87 1    
    61   31   88 1    
    62   31   89 1    
    63   32   33 2    
    64   32   34 am   BACKBONE|DICT|INTERRES
    65   34   35 1    
    66   34   90 1    
    67   35   36 1    
    68   35   37 1    
    69   35   91 1    
    70   36   92 1    
    71   36   93 1    
    72   36   94 1    
    73   37   38 2    
    74   37   39 am   BACKBONE|DICT|INTERRES
    75   39   40 1    
    76   39   95 1    
    77   40   41 1    
    78   40   42 1    
    79   40   96 1    
    80   41   97 1    
    81   41   98 1    
    82   41   99 1    
    83   42   43 2    
    84   42   44 am   BACKBONE|DICT|INTERRES
    85   44   45 1    
    86   44  100 1    
    87   45   46 1    
    88   45   47 1    
    89   45  101 1    
    90   46  102 1    
    91   46  103 1    
    92   46  104 1    
    93   47   48 2    
    94   47   49 am   BACKBONE|DICT|INTERRES
    95   49   50 1    
    96   49  105 1    
    97   50   51 1    
    98   50   52 1    
    99   50  106 1    
   100   51  107 1    
   101   51  108 1    
   102   51  109 1    
   103   52   53 2    
   104   52   54 am   BACKBONE|DICT|INTERRES
   105   54   55 1    
   106   54  110 1    
   107   55   56 1    
   108   55   59 1    
   109   55  111 1    
   110   56   57 am   BACKBONE|DICT|INTERRES
   111   56   58 2    
   112   57  112 1    
   113   57  113 1    
   114   59   60 1    
   115   59  114 1    
   116   59  115 1    
   117   60   61 1    
   118   61  116 1    
   119   61  117 1    
@<TRIPOS>SUBSTRUCTURE
     1 UNK         1 GROUP             0       ****    0 ROOT    
