@<TRIPOS>MOLECULE
3R8
117   119    1
SMALL
USER_CHARGES


@<TRIPOS>ATOM
      1 CA         15.9345  -27.7101  -48.1513 C.3       0 UNK        -0.2013 
      2 C          17.0656  -27.0072  -47.4179 C.2       0 UNK         0.4866 
      3 O          17.0618  -26.9712  -46.1896 O.2       0 UNK        -0.5176 
      4 N          18.0151  -26.4220  -48.1632 N.am      1 UNK        -0.4884 
      5 CA         19.2633  -25.7730  -47.7138 C.3       1 UNK         0.0853 
      6 C6         20.3576  -26.8095  -47.2990 C.3       10 UNK        -0.0849 
      7 S7         20.3472  -27.3677  -45.5569 S.3       10 UNK        -0.2776 
      8 C8         19.6875  -29.0642  -45.6487 C.3       10 UNK         0.0316 
      9 C9         19.1892  -29.4679  -44.2705 C.ar      10 UNK        -0.0863 
     10 C10        20.0936  -29.8869  -43.2921 C.ar      10 UNK        -0.1009 
     11 C11        19.6708  -30.0878  -41.9751 C.ar      10 UNK        -0.0712 
     12 C12        18.3353  -29.8485  -41.6357 C.ar      10 UNK        -0.0894 
     13 C13        17.4200  -29.4330  -42.6089 C.ar      10 UNK        -0.0745 
     14 C14        17.8425  -29.3026  -43.9357 C.ar      10 UNK        -0.0972 
     15 C15        15.9974  -29.0470  -42.2169 C.3       10 UNK         0.0209 
     16 S16        15.5756  -27.3249  -42.6820 S.3       10 UNK        -0.2568 
     17 C17        16.8507  -26.3380  -41.8184 C.3       10 UNK        -0.0983 
     18 CA         18.0615  -26.0146  -42.7355 C.3       3 UNK         0.0876 
     19 N          17.7243  -25.2117  -43.9174 N.am      3 UNK        -0.4424 
     20 C          17.5734  -23.8800  -43.9979 C.2       2 UNK         0.4918 
     21 O          17.5912  -23.1267  -43.0235 O.2       2 UNK        -0.4875 
     22 CA         17.3670  -23.2816  -45.4099 C.3       2 UNK         0.0481 
     23 CB         17.9582  -21.8623  -45.5450 C.3       2 UNK        -0.1831 
     24 N          17.8381  -24.1605  -46.4897 N.am      2 UNK        -0.4498 
     25 C          19.0901  -24.5907  -46.7196 C.2       1 UNK         0.5027 
     26 O          20.0832  -24.1109  -46.1705 O.2       1 UNK        -0.4969 
     27 C          19.2970  -25.4811  -41.9832 C.2       3 UNK         0.5005 
     28 O          19.2181  -25.1456  -40.7984 O.2       3 UNK        -0.5279 
     29 N          20.4207  -25.4059  -42.7101 N.am      4 UNK        -0.4463 
     30 CA         21.7478  -25.0835  -42.1863 C.3       4 UNK         0.0283 
     31 CB         22.7115  -24.9109  -43.3716 C.3       4 UNK        -0.1875 
     32 C          22.2647  -26.1747  -41.2318 C.2       4 UNK         0.4949 
     33 O          21.8497  -27.3313  -41.3311 O.2       4 UNK        -0.5039 
     34 N          23.2016  -25.8038  -40.3498 N.am      5 UNK        -0.4663 
     35 CA         23.8022  -26.6625  -39.3181 C.3       5 UNK         0.0242 
     36 CB         24.4308  -25.7653  -38.2349 C.3       5 UNK        -0.1982 
     37 C          24.7962  -27.7145  -39.8634 C.2       5 UNK         0.5017 
     38 O          25.8713  -27.9063  -39.2915 O.2       5 UNK        -0.5012 
     39 N          24.4212  -28.3878  -40.9553 N.am      6 UNK        -0.4439 
     40 CA         25.1421  -29.4975  -41.5697 C.3       6 UNK         0.0297 
     41 CB         24.7745  -29.5593  -43.0639 C.3       6 UNK        -0.2006 
     42 C          24.7814  -30.7939  -40.8308 C.2       6 UNK         0.4892 
     43 O          23.8728  -31.5040  -41.2588 O.2       6 UNK        -0.5089 
     44 N          25.4829  -31.0650  -39.7207 N.am      7 UNK        -0.4243 
     45 CA         25.2258  -32.1522  -38.7606 C.3       7 UNK         0.0196 
     46 CB         26.3001  -32.1069  -37.6618 C.3       7 UNK        -0.2007 
     47 C          25.1200  -33.5758  -39.3465 C.2       7 UNK         0.5020 
     48 O          24.5434  -34.4518  -38.7011 O.2       7 UNK        -0.5147 
     49 N          25.6388  -33.7795  -40.5641 N.am      8 UNK        -0.4734 
     50 CA         25.4763  -34.9922  -41.3687 C.3       8 UNK         0.0238 
     51 CB         26.4092  -34.9034  -42.5883 C.3       8 UNK        -0.1912 
     52 C          24.0257  -35.2733  -41.8184 C.2       8 UNK         0.5038 
     53 O          23.7639  -36.3887  -42.2715 O.2       8 UNK        -0.5046 
     54 N          23.1162  -34.2910  -41.7009 N.am      9 UNK        -0.4200 
     55 CA         21.6839  -34.4325  -42.0156 C.3       9 UNK         0.0839 
     56 C          20.8994  -35.4587  -41.1415 C.2       9 UNK         0.5513 
     57 N          21.4079  -35.8747  -39.9866 N.am      9 UNK        -0.7519 
     58 O          19.8163  -35.8909  -41.5279 O.2       9 UNK        -0.4960 
     59 C59        20.9655  -33.0560  -42.1047 C.3       10 UNK        -0.0876 
     60 S60        20.6065  -32.2579  -40.4955 S.3       10 UNK        -0.2414 
     61 C61        20.6793  -30.4850  -40.9073 C.3       10 UNK         0.0169 
     62 H62        16.0486  -27.6516  -49.2335 H         1 UNK         0.0903 
     63 H63        15.9055  -28.7622  -47.8691 H         1 UNK         0.0903 
     64 H64        14.9786  -27.2602  -47.8846 H         1 UNK         0.0903 
     65 H65        17.9124  -26.4602  -49.1688 H         1 UNK         0.3096 
     66 H66        19.6403  -25.2880  -48.6161 H         1 UNK         0.1121 
     67 H67        20.3266  -27.6782  -47.9583 H         1 UNK         0.0849 
     68 H68        21.3394  -26.3638  -47.4677 H         1 UNK         0.0849 
     69 H69        20.4661  -29.7471  -45.9915 H         1 UNK         0.0865 
     70 H70        18.8780  -29.1164  -46.3774 H         1 UNK         0.0865 
     71 H71        21.1387  -30.0029  -43.5443 H         1 UNK         0.1346 
     72 H72        18.0205  -29.9567  -40.6068 H         1 UNK         0.1412 
     73 H73        17.1404  -28.9594  -44.6820 H         1 UNK         0.1426 
     74 H74        15.8433  -29.1680  -41.1436 H         1 UNK         0.0716 
     75 H75        15.2989  -29.7259  -42.7076 H         1 UNK         0.0716 
     76 H76        17.1704  -26.8920  -40.9338 H         1 UNK         0.0695 
     77 H77        16.3948  -25.4159  -41.4546 H         1 UNK         0.0695 
     78 H78        18.4156  -26.9555  -43.1418 H         1 UNK         0.0983 
     79 H79        17.6267  -25.7518  -44.7744 H         1 UNK         0.3095 
     80 H80        16.2877  -23.2004  -45.5443 H         1 UNK         0.0454 
     81 H81        17.8147  -21.4653  -46.5496 H         1 UNK         0.0851 
     82 H82        19.0258  -21.8436  -45.3247 H         1 UNK         0.0851 
     83 H83        17.4752  -21.1709  -44.8536 H         1 UNK         0.0851 
     84 H84        17.1082  -24.6437  -46.9955 H         1 UNK         0.2976 
     85 H85        20.3861  -25.7225  -43.6710 H         1 UNK         0.3116 
     86 H86        21.6786  -24.1408  -41.6399 H         1 UNK         0.0646 
     87 H87        23.7067  -24.6205  -43.0328 H         1 UNK         0.0847 
     88 H88        22.3642  -24.1366  -44.0566 H         1 UNK         0.0847 
     89 H89        22.8180  -25.8356  -43.9411 H         1 UNK         0.0847 
     90 H90        23.5227  -24.8460  -40.3685 H         1 UNK         0.3040 
     91 H91        22.9955  -27.2277  -38.8455 H         1 UNK         0.1015 
     92 H92        23.6989  -25.0737  -37.8170 H         1 UNK         0.0786 
     93 H93        25.2615  -25.1793  -38.6299 H         1 UNK         0.0786 
     94 H94        24.8159  -26.3603  -37.4054 H         1 UNK         0.0786 
     95 H95        23.4874  -28.1914  -41.3105 H         1 UNK         0.3172 
     96 H96        26.2187  -29.3327  -41.4895 H         1 UNK         0.0595 
     97 H97        23.7009  -29.6819  -43.2145 H         1 UNK         0.0839 
     98 H98        25.2704  -30.3986  -43.5530 H         1 UNK         0.0839 
     99 H99        25.0814  -28.6521  -43.5844 H         1 UNK         0.0839 
    100 H100       26.1892  -30.3942  -39.4482 H         1 UNK         0.2998 
    101 H101       24.2593  -31.9381  -38.2999 H         1 UNK         0.0822 
    102 H102       27.2984  -32.2720  -38.0691 H         1 UNK         0.0787 
    103 H103       26.3012  -31.1466  -37.1455 H         1 UNK         0.0787 
    104 H104       26.1240  -32.8760  -36.9082 H         1 UNK         0.0787 
    105 H105       26.0776  -32.9921  -41.0186 H         1 UNK         0.3055 
    106 H106       25.7874  -35.8420  -40.7572 H         1 UNK         0.1106 
    107 H107       26.3482  -35.8081  -43.1950 H         1 UNK         0.0828 
    108 H108       27.4505  -34.7904  -42.2857 H         1 UNK         0.0828 
    109 H109       26.1514  -34.0618  -43.2325 H         1 UNK         0.0828 
    110 H110       23.4097  -33.3795  -41.3599 H         1 UNK         0.2931 
    111 H111       21.6569  -34.8464  -43.0256 H         1 UNK         0.0412 
    112 H112       22.2909  -35.5113  -39.6597 H         1 UNK         0.3472 
    113 H113       20.8965  -36.5412  -39.4301 H         1 UNK         0.3472 
    114 H114       21.5628  -32.3764  -42.7141 H         1 UNK         0.0970 
    115 H115       20.0181  -33.1678  -42.6350 H         1 UNK         0.0970 
    116 H116       20.4950  -29.9062  -40.0013 H         1 UNK         0.0612 
    117 H117       21.6865  -30.2211  -41.2269 H         1 UNK         0.0612 
@<TRIPOS>BOND
     1    1    2 1    
     2    1   62 1    
     3    1   63 1    
     4    1   64 1    
     5    2    3 2    
     6    2    4 am   BACKBONE|DICT|INTERRES
     7    4    5 1    
     8    4   65 1    
     9    5    6 1    
    10    5   25 1    
    11    5   66 1    
    12    6    7 1    
    13    6   67 1    
    14    6   68 1    
    15    7    8 1    
    16    8    9 1    
    17    8   69 1    
    18    8   70 1    
    19    9   10 ar   
    20    9   14 ar   
    21   10   11 ar   
    22   10   71 1    
    23   11   12 ar   
    24   11   61 1    
    25   12   13 ar   
    26   12   72 1    
    27   13   14 ar   
    28   13   15 1    
    29   14   73 1    
    30   15   16 1    
    31   15   74 1    
    32   15   75 1    
    33   16   17 1    
    34   17   18 1    
    35   17   76 1    
    36   17   77 1    
    37   18   19 1    
    38   18   27 1    
    39   18   78 1    
    40   19   20 am   BACKBONE|DICT|INTERRES
    41   19   79 1    
    42   20   21 2    
    43   20   22 1    
    44   22   23 1    
    45   22   24 1    
    46   22   80 1    
    47   23   81 1    
    48   23   82 1    
    49   23   83 1    
    50   24   25 am   BACKBONE|DICT|INTERRES
    51   24   84 1    
    52   25   26 2    
    53   27   28 2    
    54   27   29 am   BACKBONE|DICT|INTERRES
    55   29   30 1    
    56   29   85 1    
    57   30   31 1    
    58   30   32 1    
    59   30   86 1    
    60   31   87 1    
    61   31   88 1    
    62   31   89 1    
    63   32   33 2    
    64   32   34 am   BACKBONE|DICT|INTERRES
    65   34   35 1    
    66   34   90 1    
    67   35   36 1    
    68   35   37 1    
    69   35   91 1    
    70   36   92 1    
    71   36   93 1    
    72   36   94 1    
    73   37   38 2    
    74   37   39 am   BACKBONE|DICT|INTERRES
    75   39   40 1    
    76   39   95 1    
    77   40   41 1    
    78   40   42 1    
    79   40   96 1    
    80   41   97 1    
    81   41   98 1    
    82   41   99 1    
    83   42   43 2    
    84   42   44 am   BACKBONE|DICT|INTERRES
    85   44   45 1    
    86   44  100 1    
    87   45   46 1    
    88   45   47 1    
    89   45  101 1    
    90   46  102 1    
    91   46  103 1    
    92   46  104 1    
    93   47   48 2    
    94   47   49 am   BACKBONE|DICT|INTERRES
    95   49   50 1    
    96   49  105 1    
    97   50   51 1    
    98   50   52 1    
    99   50  106 1    
   100   51  107 1    
   101   51  108 1    
   102   51  109 1    
   103   52   53 2    
   104   52   54 am   BACKBONE|DICT|INTERRES
   105   54   55 1    
   106   54  110 1    
   107   55   56 1    
   108   55   59 1    
   109   55  111 1    
   110   56   57 am   BACKBONE|DICT|INTERRES
   111   56   58 2    
   112   57  112 1    
   113   57  113 1    
   114   59   60 1    
   115   59  114 1    
   116   59  115 1    
   117   60   61 1    
   118   61  116 1    
   119   61  117 1    
@<TRIPOS>SUBSTRUCTURE
     1 UNK         1 GROUP             0       ****    0 ROOT    
