@<TRIPOS>MOLECULE
3R8
117   119    1
SMALL
USER_CHARGES


@<TRIPOS>ATOM
      1 CA         16.0078  -22.4179  -44.2121 C.3       0 UNK        -0.2013 
      2 C          17.1056  -23.0152  -45.0795 C.2       0 UNK         0.4866 
      3 O          17.8500  -22.2719  -45.7188 O.2       0 UNK        -0.5176 
      4 N          17.2011  -24.3507  -45.1084 N.am      1 UNK        -0.4884 
      5 CA         18.2097  -25.1275  -45.8434 C.3       1 UNK         0.0853 
      6 C6         17.9518  -26.6558  -45.8073 C.3       10 UNK        -0.0849 
      7 S7         16.2774  -27.1001  -46.3744 S.3       10 UNK        -0.2776 
      8 C8         16.5628  -28.7689  -47.0569 C.3       10 UNK         0.0316 
      9 C9         17.0847  -29.7813  -46.0376 C.ar      10 UNK        -0.0863 
     10 C10        18.0491  -30.7159  -46.4272 C.ar      10 UNK        -0.1009 
     11 C11        18.5031  -31.6907  -45.5334 C.ar      10 UNK        -0.0712 
     12 C12        18.0034  -31.7115  -44.2268 C.ar      10 UNK        -0.0894 
     13 C13        17.0499  -30.7760  -43.8167 C.ar      10 UNK        -0.0745 
     14 C14        16.5829  -29.8269  -44.7316 C.ar      10 UNK        -0.0972 
     15 C15        16.4767  -30.8234  -42.4065 C.3       10 UNK         0.0209 
     16 S16        16.7505  -29.2709  -41.4930 S.3       10 UNK        -0.2568 
     17 C17        18.3761  -29.5223  -40.6938 C.3       10 UNK        -0.0983 
     18 CA         19.5558  -28.7616  -41.3597 C.3       3 UNK         0.0876 
     19 N          19.1819  -27.4176  -41.8211 N.am      3 UNK        -0.4424 
     20 C          19.9775  -26.5846  -42.5026 C.2       2 UNK         0.4918 
     21 O          21.1642  -26.8109  -42.7453 O.2       2 UNK        -0.4875 
     22 CA         19.3475  -25.2642  -42.9609 C.3       2 UNK         0.0481 
     23 CB         19.4664  -24.2050  -41.8538 C.3       2 UNK        -0.1831 
     24 N          20.0532  -24.7838  -44.1517 N.am      2 UNK        -0.4498 
     25 C          19.6690  -24.7999  -45.4390 C.2       1 UNK         0.5027 
     26 O          20.4694  -24.5302  -46.3337 O.2       1 UNK        -0.4969 
     27 C          20.7737  -28.7350  -40.4096 C.2       3 UNK         0.5005 
     28 O          21.6700  -29.5695  -40.5335 O.2       3 UNK        -0.5279 
     29 N          20.7957  -27.7498  -39.4986 N.am      4 UNK        -0.4463 
     30 CA         21.8891  -27.5097  -38.5538 C.3       4 UNK         0.0283 
     31 CB         21.4249  -26.5319  -37.4629 C.3       4 UNK        -0.1875 
     32 C          23.1640  -26.9898  -39.2371 C.2       4 UNK         0.4949 
     33 O          24.2587  -27.4132  -38.8686 O.2       4 UNK        -0.5039 
     34 N          23.0062  -26.1155  -40.2426 N.am      5 UNK        -0.4663 
     35 CA         24.1056  -25.5877  -41.0617 C.3       5 UNK         0.0242 
     36 CB         23.6033  -24.4108  -41.9131 C.3       5 UNK        -0.1982 
     37 C          24.7479  -26.6707  -41.9457 C.2       5 UNK         0.5017 
     38 O          25.9600  -26.6458  -42.1570 O.2       5 UNK        -0.5012 
     39 N          23.9287  -27.6334  -42.3882 N.am      6 UNK        -0.4439 
     40 CA         24.3341  -28.8617  -43.0721 C.3       6 UNK         0.0297 
     41 CB         23.1229  -29.4133  -43.8447 C.3       6 UNK        -0.2006 
     42 C          24.9240  -29.9338  -42.1289 C.2       6 UNK         0.4892 
     43 O          25.2098  -31.0349  -42.5994 O.2       6 UNK        -0.5089 
     44 N          25.0810  -29.6243  -40.8304 N.am      7 UNK        -0.4243 
     45 CA         25.6205  -30.4801  -39.7653 C.3       7 UNK         0.0196 
     46 CB         27.1211  -30.7606  -39.9952 C.3       7 UNK        -0.2007 
     47 C          24.7876  -31.7588  -39.5606 C.2       7 UNK         0.5020 
     48 O          25.3420  -32.8566  -39.5022 O.2       7 UNK        -0.5147 
     49 N          23.4611  -31.5769  -39.4953 N.am      8 UNK        -0.4734 
     50 CA         22.3956  -32.5877  -39.4400 C.3       8 UNK         0.0238 
     51 CB         22.6201  -33.6352  -38.3287 C.3       8 UNK        -0.1912 
     52 C          22.0820  -33.2305  -40.8039 C.2       8 UNK         0.5038 
     53 O          21.1528  -34.0365  -40.8756 O.2       8 UNK        -0.5046 
     54 N          22.8020  -32.8297  -41.8620 N.am      9 UNK        -0.4200 
     55 CA         22.5953  -33.2358  -43.2572 C.3       9 UNK         0.0839 
     56 C          22.9001  -34.7420  -43.5237 C.2       9 UNK         0.5513 
     57 N          22.4901  -35.2748  -44.6666 N.am      9 UNK        -0.7519 
     58 O          23.5453  -35.4253  -42.7306 O.2       9 UNK        -0.4960 
     59 C59        21.2099  -32.7524  -43.7771 C.3       10 UNK        -0.0876 
     60 S60        21.2082  -32.3204  -45.5481 S.3       10 UNK        -0.2414 
     61 C61        19.4986  -32.7451  -45.9998 C.3       10 UNK         0.0169 
     62 H62        16.4429  -21.7743  -43.4480 H         1 UNK         0.0903 
     63 H63        15.3336  -21.8163  -44.8213 H         1 UNK         0.0903 
     64 H64        15.4182  -23.1862  -43.7121 H         1 UNK         0.0903 
     65 H65        16.5289  -24.9027  -44.5951 H         1 UNK         0.3096 
     66 H66        18.1137  -24.8176  -46.8867 H         1 UNK         0.1121 
     67 H67        18.0816  -27.0643  -44.8051 H         1 UNK         0.0849 
     68 H68        18.6811  -27.1700  -46.4369 H         1 UNK         0.0849 
     69 H69        15.6232  -29.1434  -47.4650 H         1 UNK         0.0865 
     70 H70        17.2502  -28.6843  -47.9003 H         1 UNK         0.0865 
     71 H71        18.4318  -30.7028  -47.4389 H         1 UNK         0.1346 
     72 H72        18.3402  -32.4690  -43.5337 H         1 UNK         0.1412 
     73 H73        15.8234  -29.1224  -44.4210 H         1 UNK         0.1426 
     74 H74        15.4017  -30.9934  -42.4796 H         1 UNK         0.0716 
     75 H75        16.8768  -31.6654  -41.8398 H         1 UNK         0.0716 
     76 H76        18.2506  -29.2017  -39.6575 H         1 UNK         0.0695 
     77 H77        18.6009  -30.5893  -40.6458 H         1 UNK         0.0695 
     78 H78        19.8536  -29.3225  -42.2487 H         1 UNK         0.0983 
     79 H79        18.2151  -27.1666  -41.6683 H         1 UNK         0.3095 
     80 H80        18.2919  -25.4457  -43.1465 H         1 UNK         0.0454 
     81 H81        19.0155  -23.2621  -42.1639 H         1 UNK         0.0851 
     82 H82        20.5051  -24.0043  -41.5894 H         1 UNK         0.0851 
     83 H83        18.9528  -24.5226  -40.9454 H         1 UNK         0.0851 
     84 H84        21.0294  -24.5892  -43.9864 H         1 UNK         0.2976 
     85 H85        20.0120  -27.1139  -39.4649 H         1 UNK         0.3116 
     86 H86        22.1350  -28.4600  -38.0743 H         1 UNK         0.0646 
     87 H87        20.5689  -26.9257  -36.9147 H         1 UNK         0.0847 
     88 H88        22.2186  -26.3557  -36.7354 H         1 UNK         0.0847 
     89 H89        21.1429  -25.5630  -37.8768 H         1 UNK         0.0847 
     90 H90        22.0701  -25.8493  -40.5083 H         1 UNK         0.3040 
     91 H91        24.8793  -25.2149  -40.3865 H         1 UNK         0.1015 
     92 H92        22.8416  -24.7217  -42.6275 H         1 UNK         0.0786 
     93 H93        24.4213  -23.9701  -42.4846 H         1 UNK         0.0786 
     94 H94        23.1823  -23.6206  -41.2913 H         1 UNK         0.0786 
     95 H95        22.9323  -27.5161  -42.2274 H         1 UNK         0.3172 
     96 H96        25.1109  -28.6095  -43.7966 H         1 UNK         0.0595 
     97 H97        22.3305  -29.7405  -43.1716 H         1 UNK         0.0839 
     98 H98        23.4046  -30.2699  -44.4578 H         1 UNK         0.0839 
     99 H99        22.7017  -28.6641  -44.5154 H         1 UNK         0.0839 
    100 H100       24.7854  -28.7047  -40.5253 H         1 UNK         0.2998 
    101 H101       25.5328  -29.9098  -38.8392 H         1 UNK         0.0822 
    102 H102       27.5509  -31.2997  -39.1501 H         1 UNK         0.0787 
    103 H103       27.2898  -31.3664  -40.8861 H         1 UNK         0.0787 
    104 H104       27.6840  -29.8340  -40.1082 H         1 UNK         0.0787 
    105 H105       23.1084  -30.6358  -39.6527 H         1 UNK         0.3055 
    106 H106       21.4946  -32.0319  -39.1750 H         1 UNK         0.1106 
    107 H107       22.8532  -33.1621  -37.3749 H         1 UNK         0.0828 
    108 H108       21.7238  -34.2386  -38.1800 H         1 UNK         0.0828 
    109 H109       23.4289  -34.3241  -38.5728 H         1 UNK         0.0828 
    110 H110       23.5812  -32.2027  -41.7083 H         1 UNK         0.2931 
    111 H111       23.3688  -32.6944  -43.8019 H         1 UNK         0.0412 
    112 H112       22.6938  -36.2420  -44.8653 H         1 UNK         0.3472 
    113 H113       21.9918  -34.7109  -45.3391 H         1 UNK         0.3472 
    114 H114       20.4466  -33.5016  -43.5613 H         1 UNK         0.0970 
    115 H115       20.8978  -31.8518  -43.2454 H         1 UNK         0.0970 
    116 H116       19.2343  -33.7218  -45.5918 H         1 UNK         0.0612 
    117 H117       19.4467  -32.8513  -47.0845 H         1 UNK         0.0612 
@<TRIPOS>BOND
     1    1    2 1    
     2    1   62 1    
     3    1   63 1    
     4    1   64 1    
     5    2    3 2    
     6    2    4 am   BACKBONE|DICT|INTERRES
     7    4    5 1    
     8    4   65 1    
     9    5    6 1    
    10    5   25 1    
    11    5   66 1    
    12    6    7 1    
    13    6   67 1    
    14    6   68 1    
    15    7    8 1    
    16    8    9 1    
    17    8   69 1    
    18    8   70 1    
    19    9   10 ar   
    20    9   14 ar   
    21   10   11 ar   
    22   10   71 1    
    23   11   12 ar   
    24   11   61 1    
    25   12   13 ar   
    26   12   72 1    
    27   13   14 ar   
    28   13   15 1    
    29   14   73 1    
    30   15   16 1    
    31   15   74 1    
    32   15   75 1    
    33   16   17 1    
    34   17   18 1    
    35   17   76 1    
    36   17   77 1    
    37   18   19 1    
    38   18   27 1    
    39   18   78 1    
    40   19   20 am   BACKBONE|DICT|INTERRES
    41   19   79 1    
    42   20   21 2    
    43   20   22 1    
    44   22   23 1    
    45   22   24 1    
    46   22   80 1    
    47   23   81 1    
    48   23   82 1    
    49   23   83 1    
    50   24   25 am   BACKBONE|DICT|INTERRES
    51   24   84 1    
    52   25   26 2    
    53   27   28 2    
    54   27   29 am   BACKBONE|DICT|INTERRES
    55   29   30 1    
    56   29   85 1    
    57   30   31 1    
    58   30   32 1    
    59   30   86 1    
    60   31   87 1    
    61   31   88 1    
    62   31   89 1    
    63   32   33 2    
    64   32   34 am   BACKBONE|DICT|INTERRES
    65   34   35 1    
    66   34   90 1    
    67   35   36 1    
    68   35   37 1    
    69   35   91 1    
    70   36   92 1    
    71   36   93 1    
    72   36   94 1    
    73   37   38 2    
    74   37   39 am   BACKBONE|DICT|INTERRES
    75   39   40 1    
    76   39   95 1    
    77   40   41 1    
    78   40   42 1    
    79   40   96 1    
    80   41   97 1    
    81   41   98 1    
    82   41   99 1    
    83   42   43 2    
    84   42   44 am   BACKBONE|DICT|INTERRES
    85   44   45 1    
    86   44  100 1    
    87   45   46 1    
    88   45   47 1    
    89   45  101 1    
    90   46  102 1    
    91   46  103 1    
    92   46  104 1    
    93   47   48 2    
    94   47   49 am   BACKBONE|DICT|INTERRES
    95   49   50 1    
    96   49  105 1    
    97   50   51 1    
    98   50   52 1    
    99   50  106 1    
   100   51  107 1    
   101   51  108 1    
   102   51  109 1    
   103   52   53 2    
   104   52   54 am   BACKBONE|DICT|INTERRES
   105   54   55 1    
   106   54  110 1    
   107   55   56 1    
   108   55   59 1    
   109   55  111 1    
   110   56   57 am   BACKBONE|DICT|INTERRES
   111   56   58 2    
   112   57  112 1    
   113   57  113 1    
   114   59   60 1    
   115   59  114 1    
   116   59  115 1    
   117   60   61 1    
   118   61  116 1    
   119   61  117 1    
@<TRIPOS>SUBSTRUCTURE
     1 UNK         1 GROUP             0       ****    0 ROOT    
