@<TRIPOS>MOLECULE
3R8
117   119    1
SMALL
USER_CHARGES


@<TRIPOS>ATOM
      1 CA         20.2218  -28.4886  -42.9491 C.3       0 UNK        -0.2013 
      2 C          19.4529  -27.1925  -42.7860 C.2       0 UNK         0.4866 
      3 O          20.0639  -26.1748  -42.4638 O.2       0 UNK        -0.5176 
      4 N          18.1317  -27.2293  -43.0125 N.am      1 UNK        -0.4884 
      5 CA         17.1806  -26.1364  -42.7651 C.3       1 UNK         0.0853 
      6 C6         15.7149  -26.5828  -43.0105 C.3       10 UNK        -0.0849 
      7 S7         15.3232  -27.0631  -44.7348 S.3       10 UNK        -0.2776 
      8 C8         15.1594  -28.8761  -44.6470 C.3       10 UNK         0.0316 
      9 C9         16.4841  -29.6134  -44.8165 C.ar      10 UNK        -0.0863 
     10 C10        16.8740  -30.5778  -43.8826 C.ar      10 UNK        -0.1009 
     11 C11        18.0259  -31.3438  -44.0887 C.ar      10 UNK        -0.0712 
     12 C12        18.8112  -31.1168  -45.2238 C.ar      10 UNK        -0.0894 
     13 C13        18.4447  -30.1439  -46.1604 C.ar      10 UNK        -0.0745 
     14 C14        17.2735  -29.4047  -45.9536 C.ar      10 UNK        -0.0972 
     15 C15        19.2669  -29.9697  -47.4355 C.3       10 UNK         0.0209 
     16 S16        19.6196  -28.2317  -47.8624 S.3       10 UNK        -0.2568 
     17 C17        21.0057  -27.8413  -46.7440 C.3       10 UNK        -0.0983 
     18 CA         21.2079  -26.3121  -46.5884 C.3       3 UNK         0.0876 
     19 N          20.0034  -25.6611  -46.0690 N.am      3 UNK        -0.4424 
     20 C          19.6861  -24.3682  -46.2256 C.2       2 UNK         0.4918 
     21 O          20.4180  -23.5468  -46.7776 O.2       2 UNK        -0.4875 
     22 CA         18.3154  -23.9164  -45.6903 C.3       2 UNK         0.0481 
     23 CB         17.3501  -23.6449  -46.8557 C.3       2 UNK        -0.1831 
     24 N          17.7297  -24.9358  -44.8181 N.am      2 UNK        -0.4498 
     25 C          17.5473  -24.8271  -43.4980 C.2       1 UNK         0.5027 
     26 O          17.7069  -23.7865  -42.8577 O.2       1 UNK        -0.4969 
     27 C          22.4687  -25.9922  -45.7564 C.2       3 UNK         0.5005 
     28 O          23.5727  -26.1474  -46.2803 O.2       3 UNK        -0.5279 
     29 N          22.2934  -25.5480  -44.4981 N.am      4 UNK        -0.4463 
     30 CA         23.3384  -25.1571  -43.5404 C.3       4 UNK         0.0283 
     31 CB         24.0587  -23.8745  -44.0078 C.3       4 UNK        -0.1875 
     32 C          24.3086  -26.3107  -43.2186 C.2       4 UNK         0.4949 
     33 O          25.5270  -26.1331  -43.2447 O.2       4 UNK        -0.5039 
     34 N          23.7349  -27.4852  -42.9258 N.am      5 UNK        -0.4663 
     35 CA         24.4579  -28.7394  -42.6849 C.3       5 UNK         0.0242 
     36 CB         23.5221  -29.9227  -42.9928 C.3       5 UNK        -0.1982 
     37 C          25.0462  -28.8671  -41.2668 C.2       5 UNK         0.5017 
     38 O          25.6887  -29.8775  -40.9861 O.2       5 UNK        -0.5012 
     39 N          24.7985  -27.8772  -40.3942 N.am      6 UNK        -0.4439 
     40 CA         25.2377  -27.8003  -38.9928 C.3       6 UNK         0.0297 
     41 CB         26.7722  -27.6528  -38.9049 C.3       6 UNK        -0.2006 
     42 C          24.6922  -28.9576  -38.1309 C.2       6 UNK         0.4892 
     43 O          25.4302  -29.5401  -37.3345 O.2       6 UNK        -0.5089 
     44 N          23.3992  -29.2618  -38.3240 N.am      7 UNK        -0.4243 
     45 CA         22.6160  -30.3066  -37.6500 C.3       7 UNK         0.0196 
     46 CB         22.4933  -30.0203  -36.1373 C.3       7 UNK        -0.2007 
     47 C          23.0876  -31.7454  -37.9485 C.2       7 UNK         0.5020 
     48 O          22.8362  -32.6458  -37.1471 O.2       7 UNK        -0.5147 
     49 N          23.7230  -31.9576  -39.1108 N.am      8 UNK        -0.4734 
     50 CA         24.1550  -33.2762  -39.5951 C.3       8 UNK         0.0238 
     51 CB         25.2638  -33.0927  -40.6442 C.3       8 UNK        -0.1912 
     52 C          23.0108  -34.1463  -40.1563 C.2       8 UNK         0.5038 
     53 O          23.2580  -35.3072  -40.4869 O.2       8 UNK        -0.5046 
     54 N          21.8001  -33.5804  -40.2674 N.am      9 UNK        -0.4200 
     55 CA         20.5542  -34.2494  -40.6725 C.3       9 UNK         0.0839 
     56 C          20.2347  -35.5123  -39.8235 C.2       9 UNK         0.5513 
     57 N          19.7843  -36.5877  -40.4550 N.am      9 UNK        -0.7519 
     58 O          20.3419  -35.5046  -38.5990 O.2       9 UNK        -0.4960 
     59 C59        19.3544  -33.2685  -40.6166 C.3       10 UNK        -0.0876 
     60 S60        19.4956  -31.8783  -41.7919 S.3       10 UNK        -0.2414 
     61 C61        18.3843  -32.4543  -43.1125 C.3       10 UNK         0.0169 
     62 H62        19.6253  -29.2468  -43.4461 H         1 UNK         0.0903 
     63 H63        20.5132  -28.8728  -41.9721 H         1 UNK         0.0903 
     64 H64        21.1195  -28.3282  -43.5393 H         1 UNK         0.0903 
     65 H65        17.7122  -28.0968  -43.3207 H         1 UNK         0.3096 
     66 H66        17.2647  -25.9083  -41.6999 H         1 UNK         0.1121 
     67 H67        15.0327  -25.7792  -42.7264 H         1 UNK         0.0849 
     68 H68        15.4712  -27.4099  -42.3421 H         1 UNK         0.0849 
     69 H69        14.4922  -29.1960  -45.4486 H         1 UNK         0.0865 
     70 H70        14.6619  -29.1572  -43.7175 H         1 UNK         0.0865 
     71 H71        16.2585  -30.7667  -43.0132 H         1 UNK         0.1346 
     72 H72        19.6959  -31.7173  -45.3870 H         1 UNK         0.1412 
     73 H73        16.9593  -28.6828  -46.6954 H         1 UNK         0.1426 
     74 H74        18.7116  -30.4187  -48.2599 H         1 UNK         0.0716 
     75 H75        20.2102  -30.5144  -47.3707 H         1 UNK         0.0716 
     76 H76        21.9047  -28.3103  -47.1489 H         1 UNK         0.0695 
     77 H77        20.8194  -28.3121  -45.7800 H         1 UNK         0.0695 
     78 H78        21.3959  -25.9045  -47.5847 H         1 UNK         0.0983 
     79 H79        19.3403  -26.2656  -45.6120 H         1 UNK         0.3095 
     80 H80        18.4691  -22.9843  -45.1431 H         1 UNK         0.0454 
     81 H81        17.1791  -24.5386  -47.4572 H         1 UNK         0.0851 
     82 H82        17.7449  -22.8747  -47.5196 H         1 UNK         0.0851 
     83 H83        16.3831  -23.2949  -46.4942 H         1 UNK         0.0851 
     84 H84        17.4677  -25.8131  -45.2473 H         1 UNK         0.2976 
     85 H85        21.3458  -25.4822  -44.1446 H         1 UNK         0.3116 
     86 H86        22.8241  -24.9212  -42.6074 H         1 UNK         0.0646 
     87 H87        23.3497  -23.0698  -44.2023 H         1 UNK         0.0847 
     88 H88        24.6350  -24.0406  -44.9186 H         1 UNK         0.0847 
     89 H89        24.7529  -23.5170  -43.2463 H         1 UNK         0.0847 
     90 H90        22.7273  -27.5263  -42.9047 H         1 UNK         0.3040 
     91 H91        25.2999  -28.7877  -43.3794 H         1 UNK         0.1015 
     92 H92        23.0894  -29.8417  -43.9902 H         1 UNK         0.0786 
     93 H93        22.7073  -29.9981  -42.2724 H         1 UNK         0.0786 
     94 H94        24.0668  -30.8665  -42.9631 H         1 UNK         0.0786 
     95 H95        24.2552  -27.0952  -40.7313 H         1 UNK         0.3172 
     96 H96        24.7997  -26.8881  -38.5848 H         1 UNK         0.0595 
     97 H97        27.2870  -28.5518  -39.2457 H         1 UNK         0.0839 
     98 H98        27.0887  -27.4688  -37.8775 H         1 UNK         0.0839 
     99 H99        27.1259  -26.8156  -39.5066 H         1 UNK         0.0839 
    100 H100       22.8950  -28.7172  -39.0099 H         1 UNK         0.2998 
    101 H101       21.6114  -30.2392  -38.0704 H         1 UNK         0.0822 
    102 H102       22.1418  -29.0053  -35.9521 H         1 UNK         0.0787 
    103 H103       21.7800  -30.6978  -35.6663 H         1 UNK         0.0787 
    104 H104       23.4460  -30.1454  -35.6219 H         1 UNK         0.0787 
    105 H105       23.9450  -31.1641  -39.6967 H         1 UNK         0.3055 
    106 H106       24.5802  -33.8266  -38.7526 H         1 UNK         0.1106 
    107 H107       24.9012  -32.5672  -41.5271 H         1 UNK         0.0828 
    108 H108       25.6541  -34.0556  -40.9766 H         1 UNK         0.0828 
    109 H109       26.1043  -32.5290  -40.2388 H         1 UNK         0.0828 
    110 H110       21.7066  -32.6188  -39.9815 H         1 UNK         0.2931 
    111 H111       20.6911  -34.5641  -41.7090 H         1 UNK         0.0412 
    112 H112       19.5544  -37.4108  -39.9195 H         1 UNK         0.3472 
    113 H113       19.6838  -36.5998  -41.4584 H         1 UNK         0.3472 
    114 H114       18.4183  -33.7977  -40.8050 H         1 UNK         0.0970 
    115 H115       19.2536  -32.8534  -39.6118 H         1 UNK         0.0970 
    116 H116       17.4684  -32.8535  -42.6744 H         1 UNK         0.0612 
    117 H117       18.8575  -33.2835  -43.6406 H         1 UNK         0.0612 
@<TRIPOS>BOND
     1    1    2 1    
     2    1   62 1    
     3    1   63 1    
     4    1   64 1    
     5    2    3 2    
     6    2    4 am   BACKBONE|DICT|INTERRES
     7    4    5 1    
     8    4   65 1    
     9    5    6 1    
    10    5   25 1    
    11    5   66 1    
    12    6    7 1    
    13    6   67 1    
    14    6   68 1    
    15    7    8 1    
    16    8    9 1    
    17    8   69 1    
    18    8   70 1    
    19    9   10 ar   
    20    9   14 ar   
    21   10   11 ar   
    22   10   71 1    
    23   11   12 ar   
    24   11   61 1    
    25   12   13 ar   
    26   12   72 1    
    27   13   14 ar   
    28   13   15 1    
    29   14   73 1    
    30   15   16 1    
    31   15   74 1    
    32   15   75 1    
    33   16   17 1    
    34   17   18 1    
    35   17   76 1    
    36   17   77 1    
    37   18   19 1    
    38   18   27 1    
    39   18   78 1    
    40   19   20 am   BACKBONE|DICT|INTERRES
    41   19   79 1    
    42   20   21 2    
    43   20   22 1    
    44   22   23 1    
    45   22   24 1    
    46   22   80 1    
    47   23   81 1    
    48   23   82 1    
    49   23   83 1    
    50   24   25 am   BACKBONE|DICT|INTERRES
    51   24   84 1    
    52   25   26 2    
    53   27   28 2    
    54   27   29 am   BACKBONE|DICT|INTERRES
    55   29   30 1    
    56   29   85 1    
    57   30   31 1    
    58   30   32 1    
    59   30   86 1    
    60   31   87 1    
    61   31   88 1    
    62   31   89 1    
    63   32   33 2    
    64   32   34 am   BACKBONE|DICT|INTERRES
    65   34   35 1    
    66   34   90 1    
    67   35   36 1    
    68   35   37 1    
    69   35   91 1    
    70   36   92 1    
    71   36   93 1    
    72   36   94 1    
    73   37   38 2    
    74   37   39 am   BACKBONE|DICT|INTERRES
    75   39   40 1    
    76   39   95 1    
    77   40   41 1    
    78   40   42 1    
    79   40   96 1    
    80   41   97 1    
    81   41   98 1    
    82   41   99 1    
    83   42   43 2    
    84   42   44 am   BACKBONE|DICT|INTERRES
    85   44   45 1    
    86   44  100 1    
    87   45   46 1    
    88   45   47 1    
    89   45  101 1    
    90   46  102 1    
    91   46  103 1    
    92   46  104 1    
    93   47   48 2    
    94   47   49 am   BACKBONE|DICT|INTERRES
    95   49   50 1    
    96   49  105 1    
    97   50   51 1    
    98   50   52 1    
    99   50  106 1    
   100   51  107 1    
   101   51  108 1    
   102   51  109 1    
   103   52   53 2    
   104   52   54 am   BACKBONE|DICT|INTERRES
   105   54   55 1    
   106   54  110 1    
   107   55   56 1    
   108   55   59 1    
   109   55  111 1    
   110   56   57 am   BACKBONE|DICT|INTERRES
   111   56   58 2    
   112   57  112 1    
   113   57  113 1    
   114   59   60 1    
   115   59  114 1    
   116   59  115 1    
   117   60   61 1    
   118   61  116 1    
   119   61  117 1    
@<TRIPOS>SUBSTRUCTURE
     1 UNK         1 GROUP             0       ****    0 ROOT    
