@<TRIPOS>MOLECULE
3R8
117   119    1
SMALL
USER_CHARGES


@<TRIPOS>ATOM
      1 CA         19.8251  -27.2742  -42.4112 C.3       0 UNK        -0.2013 
      2 C          18.3880  -26.8217  -42.6016 C.2       0 UNK         0.4866 
      3 O          17.9714  -25.8480  -41.9755 O.2       0 UNK        -0.5176 
      4 N          17.6261  -27.5171  -43.4579 N.am      1 UNK        -0.4884 
      5 CA         16.2085  -27.2353  -43.7388 C.3       1 UNK         0.0853 
      6 C6         15.5432  -28.3569  -44.5721 C.3       10 UNK        -0.0849 
      7 S7         15.6445  -29.9840  -43.7501 S.3       10 UNK        -0.2776 
      8 C8         16.5719  -30.9737  -44.9665 C.3       10 UNK         0.0316 
      9 C9         18.0502  -30.6092  -45.0121 C.ar      10 UNK        -0.0863 
     10 C10        18.9162  -31.0732  -44.0170 C.ar      10 UNK        -0.1009 
     11 C11        20.2848  -30.7898  -44.0732 C.ar      10 UNK        -0.0712 
     12 C12        20.7838  -30.0319  -45.1382 C.ar      10 UNK        -0.0894 
     13 C13        19.9317  -29.5801  -46.1516 C.ar      10 UNK        -0.0745 
     14 C14        18.5644  -29.8636  -46.0775 C.ar      10 UNK        -0.0972 
     15 C15        20.4959  -28.8517  -47.3653 C.3       10 UNK         0.0209 
     16 S16        20.0191  -27.0978  -47.4198 S.3       10 UNK        -0.2568 
     17 C17        21.0506  -26.4168  -46.0816 C.3       10 UNK        -0.0983 
     18 CA         20.8561  -24.8920  -45.8309 C.3       3 UNK         0.0876 
     19 N          19.4591  -24.5729  -45.5452 N.am      3 UNK        -0.4424 
     20 C          18.5565  -24.1061  -46.4149 C.2       2 UNK         0.4918 
     21 O          18.8317  -23.6935  -47.5426 O.2       2 UNK        -0.4875 
     22 CA         17.0915  -24.2165  -45.9606 C.3       2 UNK         0.0481 
     23 CB         16.0803  -24.0405  -47.1109 C.3       2 UNK        -0.1831 
     24 N          16.9247  -25.5232  -45.3248 N.am      2 UNK        -0.4498 
     25 C          16.0061  -25.8626  -44.4154 C.2       1 UNK         0.5027 
     26 O          15.0640  -25.1425  -44.0816 O.2       1 UNK        -0.4969 
     27 C          21.7096  -24.4523  -44.6278 C.2       3 UNK         0.5005 
     28 O          21.1646  -24.0500  -43.5948 O.2       3 UNK        -0.5279 
     29 N          23.0342  -24.6088  -44.7510 N.am      4 UNK        -0.4463 
     30 CA         23.9499  -24.6596  -43.6091 C.3       4 UNK         0.0283 
     31 CB         25.3965  -24.5240  -44.1112 C.3       4 UNK        -0.1875 
     32 C          23.7645  -25.9850  -42.8459 C.2       4 UNK         0.4949 
     33 O          23.4349  -27.0013  -43.4628 O.2       4 UNK        -0.5039 
     34 N          23.9779  -25.9516  -41.5258 N.am      5 UNK        -0.4663 
     35 CA         23.8474  -27.1153  -40.6452 C.3       5 UNK         0.0242 
     36 CB         23.8537  -26.6429  -39.1820 C.3       5 UNK        -0.1982 
     37 C          24.9496  -28.1639  -40.8806 C.2       5 UNK         0.5017 
     38 O          26.0618  -27.8181  -41.2879 O.2       5 UNK        -0.5012 
     39 N          24.6204  -29.4201  -40.5756 N.am      6 UNK        -0.4439 
     40 CA         25.4822  -30.5942  -40.6529 C.3       6 UNK         0.0297 
     41 CB         25.4317  -31.1762  -42.0781 C.3       6 UNK        -0.2006 
     42 C          24.9837  -31.6068  -39.6140 C.2       6 UNK         0.4892 
     43 O          23.9295  -31.3907  -39.0129 O.2       6 UNK        -0.5089 
     44 N          25.7212  -32.7115  -39.4373 N.am      7 UNK        -0.4243 
     45 CA         25.4121  -33.7860  -38.4807 C.3       7 UNK         0.0196 
     46 CB         26.5453  -34.8248  -38.5080 C.3       7 UNK        -0.2007 
     47 C          24.0482  -34.4751  -38.6951 C.2       7 UNK         0.5020 
     48 O          23.4936  -35.0256  -37.7440 O.2       7 UNK        -0.5147 
     49 N          23.5267  -34.4216  -39.9273 N.am      8 UNK        -0.4734 
     50 CA         22.2018  -34.9211  -40.3045 C.3       8 UNK         0.0238 
     51 CB         22.2125  -35.2380  -41.8106 C.3       8 UNK        -0.1912 
     52 C          21.0485  -33.9540  -39.9631 C.2       8 UNK         0.5038 
     53 O          19.8907  -34.3278  -40.1571 O.2       8 UNK        -0.5046 
     54 N          21.3590  -32.7384  -39.4980 N.am      9 UNK        -0.4200 
     55 CA         20.4017  -31.6590  -39.2330 C.3       9 UNK         0.0839 
     56 C          20.8966  -30.7618  -38.0651 C.2       9 UNK         0.5513 
     57 N          20.8501  -29.4411  -38.1864 N.am      9 UNK        -0.7519 
     58 O          21.2707  -31.2656  -37.0081 O.2       9 UNK        -0.4960 
     59 C59        19.9571  -30.9245  -40.5333 C.3       10 UNK        -0.0876 
     60 S60        21.3485  -30.2996  -41.5441 S.3       10 UNK        -0.2414 
     61 C61        21.2379  -31.3518  -43.0250 C.3       10 UNK         0.0169 
     62 H62        20.0956  -28.0695  -43.1035 H         1 UNK         0.0903 
     63 H63        20.5119  -26.4441  -42.5668 H         1 UNK         0.0903 
     64 H64        19.9671  -27.6395  -41.3954 H         1 UNK         0.0903 
     65 H65        18.0049  -28.3378  -43.9133 H         1 UNK         0.3096 
     66 H66        15.6950  -27.1853  -42.7757 H         1 UNK         0.1121 
     67 H67        14.4855  -28.1350  -44.7284 H         1 UNK         0.0849 
     68 H68        15.9875  -28.4141  -45.5672 H         1 UNK         0.0849 
     69 H69        16.4736  -32.0282  -44.7039 H         1 UNK         0.0865 
     70 H70        16.1127  -30.8688  -45.9508 H         1 UNK         0.0865 
     71 H71        18.5211  -31.6761  -43.2121 H         1 UNK         0.1346 
     72 H72        21.8434  -29.8216  -45.1936 H         1 UNK         0.1412 
     73 H73        17.9083  -29.5260  -46.8685 H         1 UNK         0.1426 
     74 H74        21.5837  -28.9309  -47.3984 H         1 UNK         0.0716 
     75 H75        20.1304  -29.3390  -48.2703 H         1 UNK         0.0716 
     76 H76        22.0902  -26.6368  -46.3300 H         1 UNK         0.0695 
     77 H77        20.8325  -26.9816  -45.1739 H         1 UNK         0.0695 
     78 H78        21.1950  -24.3289  -46.7033 H         1 UNK         0.0983 
     79 H79        19.1772  -24.7508  -44.5907 H         1 UNK         0.3095 
     80 H80        16.9234  -23.4340  -45.2181 H         1 UNK         0.0454 
     81 H81        15.0528  -24.1080  -46.7539 H         1 UNK         0.0851 
     82 H82        16.2174  -24.7979  -47.8835 H         1 UNK         0.0851 
     83 H83        16.1927  -23.0645  -47.5844 H         1 UNK         0.0851 
     84 H84        17.6545  -26.1933  -45.5306 H         1 UNK         0.2976 
     85 H85        23.3966  -24.9694  -45.6219 H         1 UNK         0.3116 
     86 H86        23.7296  -23.8249  -42.9398 H         1 UNK         0.0646 
     87 H87        25.5455  -23.5871  -44.6482 H         1 UNK         0.0847 
     88 H88        26.1006  -24.5348  -43.2781 H         1 UNK         0.0847 
     89 H89        25.6717  -25.3424  -44.7779 H         1 UNK         0.0847 
     90 H90        24.2835  -25.0893  -41.0982 H         1 UNK         0.3040 
     91 H91        22.8819  -27.5827  -40.8548 H         1 UNK         0.1015 
     92 H92        24.7945  -26.1575  -38.9190 H         1 UNK         0.0786 
     93 H93        23.7181  -27.4827  -38.4987 H         1 UNK         0.0786 
     94 H94        23.0447  -25.9381  -38.9884 H         1 UNK         0.0786 
     95 H95        23.7131  -29.6194  -40.1687 H         1 UNK         0.3172 
     96 H96        26.5066  -30.3158  -40.3975 H         1 UNK         0.0595 
     97 H97        24.4268  -31.5088  -42.3396 H         1 UNK         0.0839 
     98 H98        26.0993  -32.0318  -42.1840 H         1 UNK         0.0839 
     99 H99        25.7392  -30.4374  -42.8185 H         1 UNK         0.0839 
    100 H100       26.5706  -32.8176  -39.9738 H         1 UNK         0.2998 
    101 H101       25.3857  -33.3358  -37.4860 H         1 UNK         0.0822 
    102 H102       27.5044  -34.3748  -38.2506 H         1 UNK         0.0787 
    103 H103       26.3615  -35.6230  -37.7871 H         1 UNK         0.0787 
    104 H104       26.6430  -35.2894  -39.4901 H         1 UNK         0.0787 
    105 H105       24.0571  -33.9511  -40.6459 H         1 UNK         0.3055 
    106 H106       22.0072  -35.8493  -39.7621 H         1 UNK         0.1106 
    107 H107       22.9669  -35.9869  -42.0523 H         1 UNK         0.0828 
    108 H108       21.2505  -35.6367  -42.1362 H         1 UNK         0.0828 
    109 H109       22.4168  -34.3502  -42.4099 H         1 UNK         0.0828 
    110 H110       22.3289  -32.4938  -39.3203 H         1 UNK         0.2931 
    111 H111       19.5017  -32.1212  -38.8230 H         1 UNK         0.0412 
    112 H112       20.5462  -29.0126  -39.0451 H         1 UNK         0.3472 
    113 H113       21.1473  -28.8684  -37.4123 H         1 UNK         0.3472 
    114 H114       19.2791  -30.1000  -40.3087 H         1 UNK         0.0970 
    115 H115       19.3618  -31.6153  -41.1285 H         1 UNK         0.0970 
    116 H116       22.2369  -31.4469  -43.4520 H         1 UNK         0.0612 
    117 H117       20.9372  -32.3618  -42.7439 H         1 UNK         0.0612 
@<TRIPOS>BOND
     1    1    2 1    
     2    1   62 1    
     3    1   63 1    
     4    1   64 1    
     5    2    3 2    
     6    2    4 am   BACKBONE|DICT|INTERRES
     7    4    5 1    
     8    4   65 1    
     9    5    6 1    
    10    5   25 1    
    11    5   66 1    
    12    6    7 1    
    13    6   67 1    
    14    6   68 1    
    15    7    8 1    
    16    8    9 1    
    17    8   69 1    
    18    8   70 1    
    19    9   10 ar   
    20    9   14 ar   
    21   10   11 ar   
    22   10   71 1    
    23   11   12 ar   
    24   11   61 1    
    25   12   13 ar   
    26   12   72 1    
    27   13   14 ar   
    28   13   15 1    
    29   14   73 1    
    30   15   16 1    
    31   15   74 1    
    32   15   75 1    
    33   16   17 1    
    34   17   18 1    
    35   17   76 1    
    36   17   77 1    
    37   18   19 1    
    38   18   27 1    
    39   18   78 1    
    40   19   20 am   BACKBONE|DICT|INTERRES
    41   19   79 1    
    42   20   21 2    
    43   20   22 1    
    44   22   23 1    
    45   22   24 1    
    46   22   80 1    
    47   23   81 1    
    48   23   82 1    
    49   23   83 1    
    50   24   25 am   BACKBONE|DICT|INTERRES
    51   24   84 1    
    52   25   26 2    
    53   27   28 2    
    54   27   29 am   BACKBONE|DICT|INTERRES
    55   29   30 1    
    56   29   85 1    
    57   30   31 1    
    58   30   32 1    
    59   30   86 1    
    60   31   87 1    
    61   31   88 1    
    62   31   89 1    
    63   32   33 2    
    64   32   34 am   BACKBONE|DICT|INTERRES
    65   34   35 1    
    66   34   90 1    
    67   35   36 1    
    68   35   37 1    
    69   35   91 1    
    70   36   92 1    
    71   36   93 1    
    72   36   94 1    
    73   37   38 2    
    74   37   39 am   BACKBONE|DICT|INTERRES
    75   39   40 1    
    76   39   95 1    
    77   40   41 1    
    78   40   42 1    
    79   40   96 1    
    80   41   97 1    
    81   41   98 1    
    82   41   99 1    
    83   42   43 2    
    84   42   44 am   BACKBONE|DICT|INTERRES
    85   44   45 1    
    86   44  100 1    
    87   45   46 1    
    88   45   47 1    
    89   45  101 1    
    90   46  102 1    
    91   46  103 1    
    92   46  104 1    
    93   47   48 2    
    94   47   49 am   BACKBONE|DICT|INTERRES
    95   49   50 1    
    96   49  105 1    
    97   50   51 1    
    98   50   52 1    
    99   50  106 1    
   100   51  107 1    
   101   51  108 1    
   102   51  109 1    
   103   52   53 2    
   104   52   54 am   BACKBONE|DICT|INTERRES
   105   54   55 1    
   106   54  110 1    
   107   55   56 1    
   108   55   59 1    
   109   55  111 1    
   110   56   57 am   BACKBONE|DICT|INTERRES
   111   56   58 2    
   112   57  112 1    
   113   57  113 1    
   114   59   60 1    
   115   59  114 1    
   116   59  115 1    
   117   60   61 1    
   118   61  116 1    
   119   61  117 1    
@<TRIPOS>SUBSTRUCTURE
     1 UNK         1 GROUP             0       ****    0 ROOT    
