@<TRIPOS>MOLECULE
3R8
117   119    1
SMALL
USER_CHARGES


@<TRIPOS>ATOM
      1 CA         19.1051  -24.9469  -48.7158 C.3       0 UNK        -0.2013 
      2 C          17.8575  -25.6865  -48.2381 C.2       0 UNK         0.4866 
      3 O          16.7618  -25.3851  -48.7078 O.2       0 UNK        -0.5176 
      4 N          17.9624  -26.6637  -47.3273 N.am      1 UNK        -0.4884 
      5 CA         19.1753  -27.0960  -46.6203 C.3       1 UNK         0.0853 
      6 C6         18.9757  -28.4534  -45.8974 C.3       10 UNK        -0.0849 
      7 S7         18.3726  -29.8016  -46.9689 S.3       10 UNK        -0.2776 
      8 C8         16.6511  -30.0031  -46.3967 C.3       10 UNK         0.0316 
      9 C9         16.5560  -30.3470  -44.9141 C.ar      10 UNK        -0.0863 
     10 C10        16.9605  -31.6044  -44.4545 C.ar      10 UNK        -0.1009 
     11 C11        16.8564  -31.9316  -43.0990 C.ar      10 UNK        -0.0712 
     12 C12        16.3399  -30.9910  -42.2025 C.ar      10 UNK        -0.0894 
     13 C13        15.9398  -29.7273  -42.6465 C.ar      10 UNK        -0.0745 
     14 C14        16.0469  -29.4124  -44.0043 C.ar      10 UNK        -0.0972 
     15 C15        15.3476  -28.7262  -41.6635 C.3       10 UNK         0.0209 
     16 S16        16.5700  -28.1196  -40.4562 S.3       10 UNK        -0.2568 
     17 C17        17.5129  -26.8842  -41.4175 C.3       10 UNK        -0.0983 
     18 CA         19.0362  -27.1676  -41.4411 C.3       3 UNK         0.0876 
     19 N          19.7131  -26.3269  -42.4337 N.am      3 UNK        -0.4424 
     20 C          21.0231  -26.2847  -42.7186 C.2       2 UNK         0.4918 
     21 O          21.8915  -26.9124  -42.1062 O.2       2 UNK        -0.4875 
     22 CA         21.4040  -25.4573  -43.9634 C.3       2 UNK         0.0481 
     23 CB         22.9240  -25.2788  -44.1212 C.3       2 UNK        -0.1831 
     24 N          20.8813  -26.1153  -45.1633 N.am      2 UNK        -0.4498 
     25 C          19.6063  -26.0564  -45.5673 C.2       1 UNK         0.5027 
     26 O          18.7715  -25.2964  -45.0677 O.2       1 UNK        -0.4969 
     27 C          19.6796  -27.0455  -40.0444 C.2       3 UNK         0.5005 
     28 O          19.6247  -25.9721  -39.4406 O.2       3 UNK        -0.5279 
     29 N          20.3110  -28.1405  -39.5945 N.am      4 UNK        -0.4463 
     30 CA         21.0380  -28.3298  -38.3310 C.3       4 UNK         0.0283 
     31 CB         20.1096  -28.1112  -37.1186 C.3       4 UNK        -0.1875 
     32 C          22.3476  -27.5255  -38.1926 C.2       4 UNK         0.4949 
     33 O          23.0700  -27.7391  -37.2181 O.2       4 UNK        -0.5039 
     34 N          22.6524  -26.6385  -39.1480 N.am      5 UNK        -0.4663 
     35 CA         23.8976  -25.8741  -39.2043 C.3       5 UNK         0.0242 
     36 CB         23.6510  -24.5428  -39.9310 C.3       5 UNK        -0.1982 
     37 C          25.0090  -26.6833  -39.8866 C.2       5 UNK         0.5017 
     38 O          26.1405  -26.6847  -39.3998 O.2       5 UNK        -0.5012 
     39 N          24.6630  -27.3702  -40.9834 N.am      6 UNK        -0.4439 
     40 CA         25.5354  -28.3249  -41.6654 C.3       6 UNK         0.0297 
     41 CB         25.1627  -28.3754  -43.1559 C.3       6 UNK        -0.2006 
     42 C          25.4035  -29.7189  -41.0361 C.2       6 UNK         0.4892 
     43 O          24.3372  -30.0638  -40.5197 O.2       6 UNK        -0.5089 
     44 N          26.4713  -30.5201  -41.1467 N.am      7 UNK        -0.4243 
     45 CA         26.4922  -31.9253  -40.7248 C.3       7 UNK         0.0196 
     46 CB         27.9366  -32.4499  -40.7561 C.3       7 UNK        -0.2007 
     47 C          25.5743  -32.8176  -41.5795 C.2       7 UNK         0.5020 
     48 O          24.9922  -33.7688  -41.0587 O.2       7 UNK        -0.5147 
     49 N          25.4219  -32.4725  -42.8651 N.am      8 UNK        -0.4734 
     50 CA         24.5359  -33.1323  -43.8283 C.3       8 UNK         0.0238 
     51 CB         25.1212  -32.9507  -45.2420 C.3       8 UNK        -0.1912 
     52 C          23.0828  -32.6242  -43.7174 C.2       8 UNK         0.5038 
     53 O          22.4799  -32.2657  -44.7303 O.2       8 UNK        -0.5046 
     54 N          22.5521  -32.6040  -42.4881 N.am      9 UNK        -0.4200 
     55 CA         21.2086  -32.1303  -42.1260 C.3       9 UNK         0.0839 
     56 C          21.0047  -30.6128  -42.4041 C.2       9 UNK         0.5513 
     57 N          21.8953  -29.7616  -41.9132 N.am      9 UNK        -0.7519 
     58 O          20.0545  -30.1932  -43.0551 O.2       9 UNK        -0.4960 
     59 C59        20.0839  -33.0498  -42.6900 C.3       10 UNK        -0.0876 
     60 S60        18.7134  -33.2565  -41.5038 S.3       10 UNK        -0.2414 
     61 C61        17.2634  -33.3119  -42.6030 C.3       10 UNK         0.0169 
     62 H62        19.5103  -24.3166  -47.9250 H         1 UNK         0.0903 
     63 H63        19.8762  -25.6405  -49.0488 H         1 UNK         0.0903 
     64 H64        18.8627  -24.3011  -49.5597 H         1 UNK         0.0903 
     65 H65        17.1160  -27.1246  -47.0303 H         1 UNK         0.3096 
     66 H66        19.9804  -27.2135  -47.3480 H         1 UNK         0.1121 
     67 H67        19.9213  -28.7965  -45.4721 H         1 UNK         0.0849 
     68 H68        18.3100  -28.3350  -45.0424 H         1 UNK         0.0849 
     69 H69        16.0898  -29.0950  -46.6205 H         1 UNK         0.0865 
     70 H70        16.1796  -30.7974  -46.9773 H         1 UNK         0.0865 
     71 H71        17.3545  -32.3270  -45.1560 H         1 UNK         0.1346 
     72 H72        16.2507  -31.2434  -41.1546 H         1 UNK         0.1412 
     73 H73        15.7274  -28.4402  -44.3541 H         1 UNK         0.1426 
     74 H74        14.5359  -29.2108  -41.1191 H         1 UNK         0.0716 
     75 H75        14.8972  -27.8793  -42.1837 H         1 UNK         0.0716 
     76 H76        17.3083  -25.8929  -41.0087 H         1 UNK         0.0695 
     77 H77        17.1280  -26.8718  -42.4385 H         1 UNK         0.0695 
     78 H78        19.1587  -28.1940  -41.7861 H         1 UNK         0.0983 
     79 H79        19.1042  -25.7820  -43.0326 H         1 UNK         0.3095 
     80 H80        20.9584  -24.4656  -43.8606 H         1 UNK         0.0454 
     81 H81        23.1603  -24.6503  -44.9798 H         1 UNK         0.0851 
     82 H82        23.4280  -26.2342  -44.2602 H         1 UNK         0.0851 
     83 H83        23.3608  -24.8012  -43.2450 H         1 UNK         0.0851 
     84 H84        21.4976  -26.7876  -45.5982 H         1 UNK         0.2976 
     85 H85        20.3473  -28.9392  -40.2147 H         1 UNK         0.3116 
     86 H86        21.3378  -29.3789  -38.3270 H         1 UNK         0.0646 
     87 H87        19.8102  -27.0677  -37.0180 H         1 UNK         0.0847 
     88 H88        20.6071  -28.3935  -36.1899 H         1 UNK         0.0847 
     89 H89        19.2052  -28.7145  -37.1963 H         1 UNK         0.0847 
     90 H90        22.0152  -26.5376  -39.9276 H         1 UNK         0.3040 
     91 H91        24.2282  -25.6458  -38.1882 H         1 UNK         0.1015 
     92 H92        24.5724  -23.9647  -40.0130 H         1 UNK         0.0786 
     93 H93        22.9293  -23.9287  -39.3919 H         1 UNK         0.0786 
     94 H94        23.2682  -24.6962  -40.9388 H         1 UNK         0.0786 
     95 H95        23.6985  -27.3301  -41.2948 H         1 UNK         0.3172 
     96 H96        26.5742  -27.9979  -41.5815 H         1 UNK         0.0595 
     97 H97        25.7618  -29.1139  -43.6899 H         1 UNK         0.0839 
     98 H98        25.3453  -27.4141  -43.6349 H         1 UNK         0.0839 
     99 H99        24.1145  -28.6362  -43.3069 H         1 UNK         0.0839 
    100 H100       27.3105  -30.1612  -41.5800 H         1 UNK         0.2998 
    101 H101       26.1316  -31.9740  -39.6948 H         1 UNK         0.0822 
    102 H102       27.9809  -33.4882  -40.4237 H         1 UNK         0.0787 
    103 H103       28.3607  -32.4112  -41.7603 H         1 UNK         0.0787 
    104 H104       28.5832  -31.8725  -40.0949 H         1 UNK         0.0787 
    105 H105       25.9143  -31.6558  -43.1955 H         1 UNK         0.3055 
    106 H106       24.5124  -34.2035  -43.6146 H         1 UNK         0.1106 
    107 H107       24.5228  -33.4801  -45.9848 H         1 UNK         0.0828 
    108 H108       25.1510  -31.9006  -45.5354 H         1 UNK         0.0828 
    109 H109       26.1347  -33.3471  -45.3064 H         1 UNK         0.0828 
    110 H110       23.1395  -32.9069  -41.7208 H         1 UNK         0.2931 
    111 H111       21.1905  -32.2191  -41.0388 H         1 UNK         0.0412 
    112 H112       22.7046  -30.0828  -41.3876 H         1 UNK         0.3472 
    113 H113       21.8047  -28.7736  -42.1191 H         1 UNK         0.3472 
    114 H114       19.7160  -32.6871  -43.6517 H         1 UNK         0.0970 
    115 H115       20.4732  -34.0496  -42.8873 H         1 UNK         0.0970 
    116 H116       16.4278  -33.7477  -42.0537 H         1 UNK         0.0612 
    117 H117       17.4659  -33.9870  -43.4360 H         1 UNK         0.0612 
@<TRIPOS>BOND
     1    1    2 1    
     2    1   62 1    
     3    1   63 1    
     4    1   64 1    
     5    2    3 2    
     6    2    4 am   BACKBONE|DICT|INTERRES
     7    4    5 1    
     8    4   65 1    
     9    5    6 1    
    10    5   25 1    
    11    5   66 1    
    12    6    7 1    
    13    6   67 1    
    14    6   68 1    
    15    7    8 1    
    16    8    9 1    
    17    8   69 1    
    18    8   70 1    
    19    9   10 ar   
    20    9   14 ar   
    21   10   11 ar   
    22   10   71 1    
    23   11   12 ar   
    24   11   61 1    
    25   12   13 ar   
    26   12   72 1    
    27   13   14 ar   
    28   13   15 1    
    29   14   73 1    
    30   15   16 1    
    31   15   74 1    
    32   15   75 1    
    33   16   17 1    
    34   17   18 1    
    35   17   76 1    
    36   17   77 1    
    37   18   19 1    
    38   18   27 1    
    39   18   78 1    
    40   19   20 am   BACKBONE|DICT|INTERRES
    41   19   79 1    
    42   20   21 2    
    43   20   22 1    
    44   22   23 1    
    45   22   24 1    
    46   22   80 1    
    47   23   81 1    
    48   23   82 1    
    49   23   83 1    
    50   24   25 am   BACKBONE|DICT|INTERRES
    51   24   84 1    
    52   25   26 2    
    53   27   28 2    
    54   27   29 am   BACKBONE|DICT|INTERRES
    55   29   30 1    
    56   29   85 1    
    57   30   31 1    
    58   30   32 1    
    59   30   86 1    
    60   31   87 1    
    61   31   88 1    
    62   31   89 1    
    63   32   33 2    
    64   32   34 am   BACKBONE|DICT|INTERRES
    65   34   35 1    
    66   34   90 1    
    67   35   36 1    
    68   35   37 1    
    69   35   91 1    
    70   36   92 1    
    71   36   93 1    
    72   36   94 1    
    73   37   38 2    
    74   37   39 am   BACKBONE|DICT|INTERRES
    75   39   40 1    
    76   39   95 1    
    77   40   41 1    
    78   40   42 1    
    79   40   96 1    
    80   41   97 1    
    81   41   98 1    
    82   41   99 1    
    83   42   43 2    
    84   42   44 am   BACKBONE|DICT|INTERRES
    85   44   45 1    
    86   44  100 1    
    87   45   46 1    
    88   45   47 1    
    89   45  101 1    
    90   46  102 1    
    91   46  103 1    
    92   46  104 1    
    93   47   48 2    
    94   47   49 am   BACKBONE|DICT|INTERRES
    95   49   50 1    
    96   49  105 1    
    97   50   51 1    
    98   50   52 1    
    99   50  106 1    
   100   51  107 1    
   101   51  108 1    
   102   51  109 1    
   103   52   53 2    
   104   52   54 am   BACKBONE|DICT|INTERRES
   105   54   55 1    
   106   54  110 1    
   107   55   56 1    
   108   55   59 1    
   109   55  111 1    
   110   56   57 am   BACKBONE|DICT|INTERRES
   111   56   58 2    
   112   57  112 1    
   113   57  113 1    
   114   59   60 1    
   115   59  114 1    
   116   59  115 1    
   117   60   61 1    
   118   61  116 1    
   119   61  117 1    
@<TRIPOS>SUBSTRUCTURE
     1 UNK         1 GROUP             0       ****    0 ROOT    
