@<TRIPOS>MOLECULE
3R8
117   119    1
SMALL
USER_CHARGES


@<TRIPOS>ATOM
      1 CA         15.1197  -25.5343  -46.6117 C.3       0 UNK        -0.2013 
      2 C          15.1783  -24.3960  -45.5969 C.2       0 UNK         0.4866 
      3 O          14.7343  -23.2920  -45.9070 O.2       0 UNK        -0.5176 
      4 N          15.7124  -24.5955  -44.3859 N.am      1 UNK        -0.4884 
      5 CA         16.3361  -25.8174  -43.8682 C.3       1 UNK         0.0853 
      6 C6         15.4236  -26.5475  -42.8374 C.3       10 UNK        -0.0849 
      7 S7         14.3257  -27.7522  -43.6552 S.3       10 UNK        -0.2776 
      8 C8         15.1446  -29.3477  -43.2864 C.3       10 UNK         0.0316 
      9 C9         16.5947  -29.4221  -43.7624 C.ar      10 UNK        -0.0863 
     10 C10        17.5957  -29.8754  -42.8948 C.ar      10 UNK        -0.1009 
     11 C11        18.9282  -29.9366  -43.3164 C.ar      10 UNK        -0.0712 
     12 C12        19.2595  -29.5246  -44.6102 C.ar      10 UNK        -0.0894 
     13 C13        18.2720  -29.0692  -45.4865 C.ar      10 UNK        -0.0745 
     14 C14        16.9390  -29.0514  -45.0670 C.ar      10 UNK        -0.0972 
     15 C15        18.6376  -28.5931  -46.8844 C.3       10 UNK         0.0209 
     16 S16        19.0657  -26.8207  -46.9023 S.3       10 UNK        -0.2568 
     17 C17        20.8696  -26.8644  -46.6115 C.3       10 UNK        -0.0983 
     18 CA         21.3780  -25.7235  -45.6834 C.3       3 UNK         0.0876 
     19 N          20.6782  -25.7054  -44.3864 N.am      3 UNK        -0.4424 
     20 C          20.7994  -26.5999  -43.3962 C.2       2 UNK         0.4918 
     21 O          21.6594  -27.4779  -43.3675 O.2       2 UNK        -0.4875 
     22 CA         19.7791  -26.5346  -42.2523 C.3       2 UNK         0.0481 
     23 CB         20.1066  -25.4148  -41.2462 C.3       2 UNK        -0.1831 
     24 N          18.3966  -26.4950  -42.7416 N.am      2 UNK        -0.4498 
     25 C          17.7301  -25.4785  -43.3063 C.2       1 UNK         0.5027 
     26 O          18.1976  -24.3441  -43.4393 O.2       1 UNK        -0.4969 
     27 C          22.9255  -25.7324  -45.5640 C.2       3 UNK         0.5005 
     28 O          23.6045  -26.2470  -46.4540 O.2       3 UNK        -0.5279 
     29 N          23.4521  -25.2042  -44.4464 N.am      4 UNK        -0.4463 
     30 CA         24.8518  -25.2472  -43.9915 C.3       4 UNK         0.0283 
     31 CB         25.7935  -24.5414  -44.9901 C.3       4 UNK        -0.1875 
     32 C          25.3685  -26.6534  -43.6043 C.2       4 UNK         0.4949 
     33 O          26.5413  -26.7783  -43.2502 O.2       4 UNK        -0.5039 
     34 N          24.5025  -27.6751  -43.6382 N.am      5 UNK        -0.4663 
     35 CA         24.7740  -29.0332  -43.1631 C.3       5 UNK         0.0242 
     36 CB         23.9792  -30.0376  -44.0154 C.3       5 UNK        -0.1982 
     37 C          24.4058  -29.1671  -41.6785 C.2       5 UNK         0.5017 
     38 O          25.1788  -29.7421  -40.9111 O.2       5 UNK        -0.5012 
     39 N          23.2449  -28.6045  -41.3070 N.am      6 UNK        -0.4439 
     40 CA         22.6853  -28.4955  -39.9568 C.3       6 UNK         0.0297 
     41 CB         23.4135  -27.3744  -39.1820 C.3       6 UNK        -0.2006 
     42 C          22.6486  -29.8491  -39.2197 C.2       6 UNK         0.4892 
     43 O          21.8672  -30.7214  -39.5997 O.2       6 UNK        -0.5089 
     44 N          23.5059  -30.0091  -38.2023 N.am      7 UNK        -0.4243 
     45 CA         23.6420  -31.2072  -37.3692 C.3       7 UNK         0.0196 
     46 CB         24.6073  -30.8984  -36.2125 C.3       7 UNK        -0.2007 
     47 C          24.0901  -32.4761  -38.1206 C.2       7 UNK         0.5020 
     48 O          23.9468  -33.5686  -37.5714 O.2       7 UNK        -0.5147 
     49 N          24.6165  -32.3337  -39.3465 N.am      8 UNK        -0.4734 
     50 CA         24.9742  -33.4568  -40.2182 C.3       8 UNK         0.0238 
     51 CB         25.8712  -32.9538  -41.3602 C.3       8 UNK        -0.1912 
     52 C          23.7552  -34.2135  -40.7814 C.2       8 UNK         0.5038 
     53 O          23.9127  -35.3684  -41.1806 O.2       8 UNK        -0.5046 
     54 N          22.5790  -33.5701  -40.8171 N.am      9 UNK        -0.4200 
     55 CA         21.3128  -34.1832  -41.2452 C.3       9 UNK         0.0839 
     56 C          20.7942  -35.2210  -40.2146 C.2       9 UNK         0.5513 
     57 N          20.2614  -36.3434  -40.6782 N.am      9 UNK        -0.7519 
     58 O          20.8266  -34.9976  -39.0065 O.2       9 UNK        -0.4960 
     59 C59        20.2256  -33.1196  -41.5394 C.3       10 UNK        -0.0876 
     60 S60        20.7158  -32.0112  -42.9027 S.3       10 UNK        -0.2414 
     61 C61        20.0229  -30.4141  -42.3731 C.3       10 UNK         0.0169 
     62 H62        14.6066  -26.4026  -46.2027 H         1 UNK         0.0903 
     63 H63        14.5755  -25.2228  -47.5031 H         1 UNK         0.0903 
     64 H64        16.1217  -25.8277  -46.9227 H         1 UNK         0.0903 
     65 H65        15.8093  -23.7979  -43.7717 H         1 UNK         0.3096 
     66 H66        16.5597  -26.4862  -44.6962 H         1 UNK         0.1121 
     67 H67        14.8083  -25.8291  -42.2928 H         1 UNK         0.0849 
     68 H68        15.9807  -27.0796  -42.0651 H         1 UNK         0.0849 
     69 H69        15.0811  -29.5290  -42.2122 H         1 UNK         0.0865 
     70 H70        14.5800  -30.1495  -43.7639 H         1 UNK         0.0865 
     71 H71        17.3395  -30.1825  -41.8896 H         1 UNK         0.1346 
     72 H72        20.2926  -29.5555  -44.9270 H         1 UNK         0.1412 
     73 H73        16.1692  -28.7141  -45.7480 H         1 UNK         0.1426 
     74 H74        17.7951  -28.7520  -47.5592 H         1 UNK         0.0716 
     75 H75        19.4603  -29.1848  -47.2887 H         1 UNK         0.0716 
     76 H76        21.3455  -26.8029  -47.5919 H         1 UNK         0.0695 
     77 H77        21.1541  -27.8333  -46.2003 H         1 UNK         0.0695 
     78 H78        21.1342  -24.7764  -46.1673 H         1 UNK         0.0983 
     79 H79        19.9361  -25.0195  -44.2949 H         1 UNK         0.3095 
     80 H80        19.8571  -27.4767  -41.7089 H         1 UNK         0.0454 
     81 H81        19.3854  -25.3937  -40.4294 H         1 UNK         0.0851 
     82 H82        20.1181  -24.4278  -41.7085 H         1 UNK         0.0851 
     83 H83        21.0909  -25.5706  -40.8035 H         1 UNK         0.0851 
     84 H84        17.9450  -27.4006  -42.7545 H         1 UNK         0.2976 
     85 H85        22.7998  -24.8081  -43.7836 H         1 UNK         0.3116 
     86 H86        24.8718  -24.6676  -43.0674 H         1 UNK         0.0646 
     87 H87        25.9026  -25.1051  -45.9167 H         1 UNK         0.0847 
     88 H88        25.4319  -23.5448  -45.2425 H         1 UNK         0.0847 
     89 H89        26.7923  -24.4238  -44.5680 H         1 UNK         0.0847 
     90 H90        23.5412  -27.4780  -43.8957 H         1 UNK         0.3040 
     91 H91        25.8379  -29.2574  -43.2696 H         1 UNK         0.1015 
     92 H92        24.1476  -31.0612  -43.6802 H         1 UNK         0.0786 
     93 H93        24.2774  -29.9869  -45.0627 H         1 UNK         0.0786 
     94 H94        22.9051  -29.8552  -43.9676 H         1 UNK         0.0786 
     95 H95        22.6742  -28.2043  -42.0484 H         1 UNK         0.3172 
     96 H96        21.6451  -28.1904  -40.0769 H         1 UNK         0.0595 
     97 H97        24.4826  -27.5663  -39.0830 H         1 UNK         0.0839 
     98 H98        22.9989  -27.2492  -38.1807 H         1 UNK         0.0839 
     99 H99        23.3038  -26.4168  -39.6911 H         1 UNK         0.0839 
    100 H100       24.1345  -29.2467  -37.9953 H         1 UNK         0.2998 
    101 H101       22.6584  -31.4227  -36.9465 H         1 UNK         0.0822 
    102 H102       24.7058  -31.7556  -35.5447 H         1 UNK         0.0787 
    103 H103       24.2525  -30.0619  -35.6100 H         1 UNK         0.0787 
    104 H104       25.6059  -30.6529  -36.5765 H         1 UNK         0.0787 
    105 H105       24.7245  -31.4001  -39.7315 H         1 UNK         0.3055 
    106 H106       25.5499  -34.1727  -39.6270 H         1 UNK         0.1106 
    107 H107       26.7580  -32.4481  -40.9778 H         1 UNK         0.0828 
    108 H108       26.2130  -33.7825  -41.9819 H         1 UNK         0.0828 
    109 H109       25.3423  -32.2577  -42.0099 H         1 UNK         0.0828 
    110 H110       22.5155  -32.6307  -40.4432 H         1 UNK         0.2931 
    111 H111       21.5125  -34.7129  -42.1795 H         1 UNK         0.0412 
    112 H112       19.9028  -37.0231  -40.0252 H         1 UNK         0.3472 
    113 H113       20.2215  -36.5311  -41.6684 H         1 UNK         0.3472 
    114 H114       20.0178  -32.5437  -40.6360 H         1 UNK         0.0970 
    115 H115       19.2848  -33.5952  -41.8230 H         1 UNK         0.0970 
    116 H116       19.6529  -30.4642  -41.3489 H         1 UNK         0.0612 
    117 H117       20.8322  -29.6875  -42.3582 H         1 UNK         0.0612 
@<TRIPOS>BOND
     1    1    2 1    
     2    1   62 1    
     3    1   63 1    
     4    1   64 1    
     5    2    3 2    
     6    2    4 am   BACKBONE|DICT|INTERRES
     7    4    5 1    
     8    4   65 1    
     9    5    6 1    
    10    5   25 1    
    11    5   66 1    
    12    6    7 1    
    13    6   67 1    
    14    6   68 1    
    15    7    8 1    
    16    8    9 1    
    17    8   69 1    
    18    8   70 1    
    19    9   10 ar   
    20    9   14 ar   
    21   10   11 ar   
    22   10   71 1    
    23   11   12 ar   
    24   11   61 1    
    25   12   13 ar   
    26   12   72 1    
    27   13   14 ar   
    28   13   15 1    
    29   14   73 1    
    30   15   16 1    
    31   15   74 1    
    32   15   75 1    
    33   16   17 1    
    34   17   18 1    
    35   17   76 1    
    36   17   77 1    
    37   18   19 1    
    38   18   27 1    
    39   18   78 1    
    40   19   20 am   BACKBONE|DICT|INTERRES
    41   19   79 1    
    42   20   21 2    
    43   20   22 1    
    44   22   23 1    
    45   22   24 1    
    46   22   80 1    
    47   23   81 1    
    48   23   82 1    
    49   23   83 1    
    50   24   25 am   BACKBONE|DICT|INTERRES
    51   24   84 1    
    52   25   26 2    
    53   27   28 2    
    54   27   29 am   BACKBONE|DICT|INTERRES
    55   29   30 1    
    56   29   85 1    
    57   30   31 1    
    58   30   32 1    
    59   30   86 1    
    60   31   87 1    
    61   31   88 1    
    62   31   89 1    
    63   32   33 2    
    64   32   34 am   BACKBONE|DICT|INTERRES
    65   34   35 1    
    66   34   90 1    
    67   35   36 1    
    68   35   37 1    
    69   35   91 1    
    70   36   92 1    
    71   36   93 1    
    72   36   94 1    
    73   37   38 2    
    74   37   39 am   BACKBONE|DICT|INTERRES
    75   39   40 1    
    76   39   95 1    
    77   40   41 1    
    78   40   42 1    
    79   40   96 1    
    80   41   97 1    
    81   41   98 1    
    82   41   99 1    
    83   42   43 2    
    84   42   44 am   BACKBONE|DICT|INTERRES
    85   44   45 1    
    86   44  100 1    
    87   45   46 1    
    88   45   47 1    
    89   45  101 1    
    90   46  102 1    
    91   46  103 1    
    92   46  104 1    
    93   47   48 2    
    94   47   49 am   BACKBONE|DICT|INTERRES
    95   49   50 1    
    96   49  105 1    
    97   50   51 1    
    98   50   52 1    
    99   50  106 1    
   100   51  107 1    
   101   51  108 1    
   102   51  109 1    
   103   52   53 2    
   104   52   54 am   BACKBONE|DICT|INTERRES
   105   54   55 1    
   106   54  110 1    
   107   55   56 1    
   108   55   59 1    
   109   55  111 1    
   110   56   57 am   BACKBONE|DICT|INTERRES
   111   56   58 2    
   112   57  112 1    
   113   57  113 1    
   114   59   60 1    
   115   59  114 1    
   116   59  115 1    
   117   60   61 1    
   118   61  116 1    
   119   61  117 1    
@<TRIPOS>SUBSTRUCTURE
     1 UNK         1 GROUP             0       ****    0 ROOT    
