@<TRIPOS>MOLECULE
3R8
117   119    1
SMALL
USER_CHARGES


@<TRIPOS>ATOM
      1 CA         18.0302  -26.6016  -48.9250 C.3       0 UNK        -0.2013 
      2 C          18.1010  -27.2312  -47.5422 C.2       0 UNK         0.4866 
      3 O          18.8429  -28.1931  -47.3450 O.2       0 UNK        -0.5176 
      4 N          17.3390  -26.6943  -46.5812 N.am      1 UNK        -0.4884 
      5 CA         17.2690  -27.1526  -45.1876 C.3       1 UNK         0.0853 
      6 C6         15.9087  -26.7835  -44.5421 C.3       10 UNK        -0.0849 
      7 S7         14.5423  -27.6761  -45.3697 S.3       10 UNK        -0.2776 
      8 C8         14.0791  -28.9703  -44.1666 C.3       10 UNK         0.0316 
      9 C9         15.2806  -29.6654  -43.5380 C.ar      10 UNK        -0.0863 
     10 C10        16.1355  -30.4610  -44.3096 C.ar      10 UNK        -0.1009 
     11 C11        17.2669  -31.0447  -43.7304 C.ar      10 UNK        -0.0712 
     12 C12        17.5083  -30.8774  -42.3661 C.ar      10 UNK        -0.0894 
     13 C13        16.6713  -30.0733  -41.5905 C.ar      10 UNK        -0.0745 
     14 C14        15.5546  -29.4771  -42.1798 C.ar      10 UNK        -0.0972 
     15 C15        16.9884  -29.8130  -40.1272 C.3       10 UNK         0.0209 
     16 S16        18.0827  -28.3685  -39.9442 S.3       10 UNK        -0.2568 
     17 C17        19.7248  -29.1403  -40.1452 C.3       10 UNK        -0.0983 
     18 CA         20.8188  -28.1962  -40.6953 C.3       3 UNK         0.0876 
     19 N          20.5214  -27.7093  -42.0550 N.am      3 UNK        -0.4424 
     20 C          21.3873  -27.0631  -42.8507 C.2       2 UNK         0.4918 
     21 O          22.5090  -26.7199  -42.4761 O.2       2 UNK        -0.4875 
     22 CA         20.9790  -26.7310  -44.2966 C.3       2 UNK         0.0481 
     23 CB         22.0097  -27.2966  -45.2889 C.3       2 UNK        -0.1831 
     24 N          19.6537  -27.1953  -44.7028 N.am      2 UNK        -0.4498 
     25 C          18.4835  -26.6227  -44.3994 C.2       1 UNK         0.5027 
     26 O          18.3601  -25.6961  -43.5971 O.2       1 UNK        -0.4969 
     27 C          21.2253  -27.1188  -39.6608 C.2       3 UNK         0.5005 
     28 O          21.7222  -27.4697  -38.5892 O.2       3 UNK        -0.5279 
     29 N          21.0478  -25.8339  -39.9980 N.am      4 UNK        -0.4463 
     30 CA         21.5834  -24.6927  -39.2538 C.3       4 UNK         0.0283 
     31 CB         20.9513  -23.4008  -39.7967 C.3       4 UNK        -0.1875 
     32 C          23.1233  -24.5954  -39.2983 C.2       4 UNK         0.4949 
     33 O          23.6979  -23.9527  -38.4189 O.2       4 UNK        -0.5039 
     34 N          23.7607  -25.2110  -40.3058 N.am      5 UNK        -0.4663 
     35 CA         25.2135  -25.2118  -40.4979 C.3       5 UNK         0.0242 
     36 CB         25.5800  -24.2282  -41.6223 C.3       5 UNK        -0.1982 
     37 C          25.7676  -26.6126  -40.8008 C.2       5 UNK         0.5017 
     38 O          26.8223  -26.9639  -40.2700 O.2       5 UNK        -0.5012 
     39 N          25.0755  -27.3809  -41.6521 N.am      6 UNK        -0.4439 
     40 CA         25.4595  -28.7348  -42.0540 C.3       6 UNK         0.0297 
     41 CB         24.8165  -29.0518  -43.4153 C.3       6 UNK        -0.2006 
     42 C          25.0230  -29.7757  -41.0138 C.2       6 UNK         0.4892 
     43 O          24.0613  -29.5514  -40.2762 O.2       6 UNK        -0.5089 
     44 N          25.6980  -30.9306  -41.0191 N.am      7 UNK        -0.4243 
     45 CA         25.3544  -32.1003  -40.2100 C.3       7 UNK         0.0196 
     46 CB         26.5951  -33.0040  -40.0849 C.3       7 UNK        -0.2007 
     47 C          24.1520  -32.8400  -40.8232 C.2       7 UNK         0.5020 
     48 O          24.3393  -33.8256  -41.5379 O.2       7 UNK        -0.5147 
     49 N          22.9434  -32.3120  -40.5774 N.am      8 UNK        -0.4734 
     50 CA         21.6404  -32.8178  -41.0420 C.3       8 UNK         0.0238 
     51 CB         21.2824  -34.1293  -40.3114 C.3       8 UNK        -0.1912 
     52 C          21.5496  -32.9463  -42.5776 C.2       8 UNK         0.5038 
     53 O          21.0221  -33.9369  -43.0858 O.2       8 UNK        -0.5046 
     54 N          22.0968  -31.9425  -43.2756 N.am      9 UNK        -0.4200 
     55 CA         22.2594  -31.8711  -44.7394 C.3       9 UNK         0.0839 
     56 C          23.3406  -32.8331  -45.3205 C.2       9 UNK         0.5513 
     57 N          24.1356  -33.5258  -44.5130 N.am      9 UNK        -0.7519 
     58 O          23.4892  -32.9282  -46.5360 O.2       9 UNK        -0.4960 
     59 C59        20.9226  -31.9449  -45.5374 C.3       10 UNK        -0.0876 
     60 S60        19.6847  -30.7283  -44.9768 S.3       10 UNK        -0.2414 
     61 C61        18.2750  -31.8074  -44.5708 C.3       10 UNK         0.0169 
     62 H62        17.7077  -27.3416  -49.6569 H         1 UNK         0.0903 
     63 H63        17.3320  -25.7654  -48.9580 H         1 UNK         0.0903 
     64 H64        19.0130  -26.2356  -49.2206 H         1 UNK         0.0903 
     65 H65        16.7568  -25.8986  -46.8016 H         1 UNK         0.3096 
     66 H66        17.3551  -28.2403  -45.1804 H         1 UNK         0.1121 
     67 H67        15.7237  -25.7108  -44.6211 H         1 UNK         0.0849 
     68 H68        15.9044  -27.0056  -43.4741 H         1 UNK         0.0849 
     69 H69        13.4498  -28.5191  -43.3977 H         1 UNK         0.0865 
     70 H70        13.4564  -29.7128  -44.6676 H         1 UNK         0.0865 
     71 H71        15.9455  -30.5837  -45.3674 H         1 UNK         0.1346 
     72 H72        18.3743  -31.3476  -41.9246 H         1 UNK         0.1412 
     73 H73        14.9112  -28.8457  -41.5818 H         1 UNK         0.1426 
     74 H74        16.0659  -29.6264  -39.5752 H         1 UNK         0.0716 
     75 H75        17.4442  -30.6918  -39.6680 H         1 UNK         0.0716 
     76 H76        20.0258  -29.5592  -39.1829 H         1 UNK         0.0695 
     77 H77        19.6436  -29.9924  -40.8142 H         1 UNK         0.0695 
     78 H78        21.7126  -28.8095  -40.8093 H         1 UNK         0.0983 
     79 H79        19.6044  -27.9279  -42.4162 H         1 UNK         0.3095 
     80 H80        20.9948  -25.6428  -44.3830 H         1 UNK         0.0454 
     81 H81        21.7743  -27.0063  -46.3130 H         1 UNK         0.0851 
     82 H82        23.0130  -26.9255  -45.0755 H         1 UNK         0.0851 
     83 H83        22.0476  -28.3858  -45.2521 H         1 UNK         0.0851 
     84 H84        19.6339  -27.9233  -45.4108 H         1 UNK         0.2976 
     85 H85        20.6131  -25.6371  -40.8881 H         1 UNK         0.3116 
     86 H86        21.2911  -24.8039  -38.2075 H         1 UNK         0.0646 
     87 H87        21.2009  -23.2385  -40.8461 H         1 UNK         0.0847 
     88 H88        19.8650  -23.4208  -39.7074 H         1 UNK         0.0847 
     89 H89        21.3038  -22.5309  -39.2406 H         1 UNK         0.0847 
     90 H90        23.2096  -25.7282  -40.9839 H         1 UNK         0.3040 
     91 H91        25.7091  -24.8785  -39.5830 H         1 UNK         0.1015 
     92 H92        25.0975  -24.4937  -42.5640 H         1 UNK         0.0786 
     93 H93        26.6568  -24.2160  -41.7970 H         1 UNK         0.0786 
     94 H94        25.2817  -23.2107  -41.3690 H         1 UNK         0.0786 
     95 H95        24.1827  -27.0496  -42.0105 H         1 UNK         0.3172 
     96 H96        26.5454  -28.7785  -42.1633 H         1 UNK         0.0595 
     97 H97        25.1295  -30.0303  -43.7820 H         1 UNK         0.0839 
     98 H98        25.1038  -28.3193  -44.1697 H         1 UNK         0.0839 
     99 H99        23.7282  -29.0601  -43.3545 H         1 UNK         0.0839 
    100 H100       26.4525  -31.0496  -41.6802 H         1 UNK         0.2998 
    101 H101       25.0769  -31.7745  -39.2048 H         1 UNK         0.0822 
    102 H102       26.3701  -33.8939  -39.4955 H         1 UNK         0.0787 
    103 H103       26.9548  -33.3404  -41.0583 H         1 UNK         0.0787 
    104 H104       27.4142  -32.4850  -39.5866 H         1 UNK         0.0787 
    105 H105       22.9239  -31.4474  -40.0473 H         1 UNK         0.3055 
    106 H106       20.8959  -32.0735  -40.7583 H         1 UNK         0.1106 
    107 H107       21.3210  -34.0046  -39.2294 H         1 UNK         0.0828 
    108 H108       20.2720  -34.4549  -40.5622 H         1 UNK         0.0828 
    109 H109       21.9610  -34.9397  -40.5802 H         1 UNK         0.0828 
    110 H110       22.5239  -31.1916  -42.7561 H         1 UNK         0.2931 
    111 H111       22.6691  -30.8761  -44.9155 H         1 UNK         0.0412 
    112 H112       24.8330  -34.1289  -44.9193 H         1 UNK         0.3472 
    113 H113       24.0296  -33.4975  -43.5051 H         1 UNK         0.3472 
    114 H114       21.1042  -31.7489  -46.5957 H         1 UNK         0.0970 
    115 H115       20.5058  -32.9521  -45.4929 H         1 UNK         0.0970 
    116 H116       18.6221  -32.6825  -44.0193 H         1 UNK         0.0612 
    117 H117       17.8187  -32.1737  -45.4915 H         1 UNK         0.0612 
@<TRIPOS>BOND
     1    1    2 1    
     2    1   62 1    
     3    1   63 1    
     4    1   64 1    
     5    2    3 2    
     6    2    4 am   BACKBONE|DICT|INTERRES
     7    4    5 1    
     8    4   65 1    
     9    5    6 1    
    10    5   25 1    
    11    5   66 1    
    12    6    7 1    
    13    6   67 1    
    14    6   68 1    
    15    7    8 1    
    16    8    9 1    
    17    8   69 1    
    18    8   70 1    
    19    9   10 ar   
    20    9   14 ar   
    21   10   11 ar   
    22   10   71 1    
    23   11   12 ar   
    24   11   61 1    
    25   12   13 ar   
    26   12   72 1    
    27   13   14 ar   
    28   13   15 1    
    29   14   73 1    
    30   15   16 1    
    31   15   74 1    
    32   15   75 1    
    33   16   17 1    
    34   17   18 1    
    35   17   76 1    
    36   17   77 1    
    37   18   19 1    
    38   18   27 1    
    39   18   78 1    
    40   19   20 am   BACKBONE|DICT|INTERRES
    41   19   79 1    
    42   20   21 2    
    43   20   22 1    
    44   22   23 1    
    45   22   24 1    
    46   22   80 1    
    47   23   81 1    
    48   23   82 1    
    49   23   83 1    
    50   24   25 am   BACKBONE|DICT|INTERRES
    51   24   84 1    
    52   25   26 2    
    53   27   28 2    
    54   27   29 am   BACKBONE|DICT|INTERRES
    55   29   30 1    
    56   29   85 1    
    57   30   31 1    
    58   30   32 1    
    59   30   86 1    
    60   31   87 1    
    61   31   88 1    
    62   31   89 1    
    63   32   33 2    
    64   32   34 am   BACKBONE|DICT|INTERRES
    65   34   35 1    
    66   34   90 1    
    67   35   36 1    
    68   35   37 1    
    69   35   91 1    
    70   36   92 1    
    71   36   93 1    
    72   36   94 1    
    73   37   38 2    
    74   37   39 am   BACKBONE|DICT|INTERRES
    75   39   40 1    
    76   39   95 1    
    77   40   41 1    
    78   40   42 1    
    79   40   96 1    
    80   41   97 1    
    81   41   98 1    
    82   41   99 1    
    83   42   43 2    
    84   42   44 am   BACKBONE|DICT|INTERRES
    85   44   45 1    
    86   44  100 1    
    87   45   46 1    
    88   45   47 1    
    89   45  101 1    
    90   46  102 1    
    91   46  103 1    
    92   46  104 1    
    93   47   48 2    
    94   47   49 am   BACKBONE|DICT|INTERRES
    95   49   50 1    
    96   49  105 1    
    97   50   51 1    
    98   50   52 1    
    99   50  106 1    
   100   51  107 1    
   101   51  108 1    
   102   51  109 1    
   103   52   53 2    
   104   52   54 am   BACKBONE|DICT|INTERRES
   105   54   55 1    
   106   54  110 1    
   107   55   56 1    
   108   55   59 1    
   109   55  111 1    
   110   56   57 am   BACKBONE|DICT|INTERRES
   111   56   58 2    
   112   57  112 1    
   113   57  113 1    
   114   59   60 1    
   115   59  114 1    
   116   59  115 1    
   117   60   61 1    
   118   61  116 1    
   119   61  117 1    
@<TRIPOS>SUBSTRUCTURE
     1 UNK         1 GROUP             0       ****    0 ROOT    
