@<TRIPOS>MOLECULE
3R8
117   119    1
SMALL
USER_CHARGES


@<TRIPOS>ATOM
      1 CA         16.9303  -23.2882  -40.9639 C.3       0 UNK        -0.2013 
      2 C          17.4925  -23.6609  -42.3275 C.2       0 UNK         0.4866 
      3 O          17.9856  -22.7903  -43.0458 O.2       0 UNK        -0.5176 
      4 N          17.4129  -24.9463  -42.6927 N.am      1 UNK        -0.4884 
      5 CA         17.9555  -25.5017  -43.9378 C.3       1 UNK         0.0853 
      6 C6         17.4552  -26.9455  -44.1882 C.3       10 UNK        -0.0849 
      7 S7         15.6360  -27.0932  -44.2210 S.3       10 UNK        -0.2776 
      8 C8         15.3793  -28.3476  -45.5227 C.3       10 UNK         0.0316 
      9 C9         16.2392  -29.5901  -45.3180 C.ar      10 UNK        -0.0863 
     10 C10        16.0979  -30.3693  -44.1648 C.ar      10 UNK        -0.1009 
     11 C11        16.9114  -31.4876  -43.9563 C.ar      10 UNK        -0.0712 
     12 C12        17.8513  -31.8411  -44.9282 C.ar      10 UNK        -0.0894 
     13 C13        18.0218  -31.0541  -46.0725 C.ar      10 UNK        -0.0745 
     14 C14        17.2019  -29.9402  -46.2701 C.ar      10 UNK        -0.0972 
     15 C15        19.1422  -31.3664  -47.0570 C.3       10 UNK         0.0209 
     16 S16        20.5498  -30.2106  -46.8875 S.3       10 UNK        -0.2568 
     17 C17        20.9521  -30.3817  -45.1143 C.3       10 UNK        -0.0983 
     18 CA         21.8361  -29.2610  -44.5118 C.3       3 UNK         0.0876 
     19 N          21.4729  -27.9220  -44.9869 N.am      3 UNK        -0.4424 
     20 C          22.1852  -26.8103  -44.7549 C.2       2 UNK         0.4918 
     21 O          23.2386  -26.7898  -44.1197 O.2       2 UNK        -0.4875 
     22 CA         21.5827  -25.4882  -45.2647 C.3       2 UNK         0.0481 
     23 CB         21.9471  -25.2635  -46.7403 C.3       2 UNK        -0.1831 
     24 N          20.1257  -25.4102  -45.0945 N.am      2 UNK        -0.4498 
     25 C          19.4972  -25.5009  -43.9131 C.2       1 UNK         0.5027 
     26 O          20.0882  -25.6649  -42.8426 O.2       1 UNK        -0.4969 
     27 C          21.7687  -29.3655  -42.9739 C.2       3 UNK         0.5005 
     28 O          22.5422  -30.1153  -42.3837 O.2       3 UNK        -0.5279 
     29 N          20.8201  -28.6484  -42.3538 N.am      4 UNK        -0.4463 
     30 CA         20.6394  -28.5999  -40.9035 C.3       4 UNK         0.0283 
     31 CB         19.2219  -28.1139  -40.5620 C.3       4 UNK        -0.1875 
     32 C          21.7074  -27.7169  -40.2454 C.2       4 UNK         0.4949 
     33 O          22.2636  -28.1084  -39.2192 O.2       4 UNK        -0.5039 
     34 N          21.9963  -26.5672  -40.8705 N.am      5 UNK        -0.4663 
     35 CA         23.0315  -25.6203  -40.4551 C.3       5 UNK         0.0242 
     36 CB         22.8974  -24.3303  -41.2800 C.3       5 UNK        -0.1982 
     37 C          24.4566  -26.1886  -40.5647 C.2       5 UNK         0.5017 
     38 O          25.2743  -25.9207  -39.6837 O.2       5 UNK        -0.5012 
     39 N          24.7252  -26.9643  -41.6231 N.am      6 UNK        -0.4439 
     40 CA         26.0118  -27.6056  -41.8807 C.3       6 UNK         0.0297 
     41 CB         26.8266  -26.7202  -42.8438 C.3       6 UNK        -0.2006 
     42 C          25.7886  -29.0275  -42.4321 C.2       6 UNK         0.4892 
     43 O          25.8723  -29.2159  -43.6453 O.2       6 UNK        -0.5089 
     44 N          25.5008  -30.0342  -41.5958 N.am      7 UNK        -0.4243 
     45 CA         25.2262  -29.9847  -40.1626 C.3       7 UNK         0.0196 
     46 CB         26.5337  -30.0932  -39.3529 C.3       7 UNK        -0.2007 
     47 C          24.2906  -31.1538  -39.8282 C.2       7 UNK         0.5020 
     48 O          24.6433  -32.2994  -40.1129 O.2       7 UNK        -0.5147 
     49 N          23.1421  -30.8467  -39.2106 N.am      8 UNK        -0.4734 
     50 CA         22.1438  -31.7782  -38.6639 C.3       8 UNK         0.0238 
     51 CB         22.7281  -32.5290  -37.4473 C.3       8 UNK        -0.1912 
     52 C          21.4860  -32.7326  -39.6875 C.2       8 UNK         0.5038 
     53 O          21.0642  -33.8247  -39.3008 O.2       8 UNK        -0.5046 
     54 N          21.3719  -32.2965  -40.9498 N.am      9 UNK        -0.4200 
     55 CA         20.7751  -33.0179  -42.0893 C.3       9 UNK         0.0839 
     56 C          21.6411  -34.2109  -42.5932 C.2       9 UNK         0.5513 
     57 N          21.2649  -34.8218  -43.7096 N.am      9 UNK        -0.7519 
     58 O          22.6574  -34.5855  -42.0133 O.2       9 UNK        -0.4960 
     59 C59        19.2828  -33.4155  -41.8726 C.3       10 UNK        -0.0876 
     60 S60        18.1870  -31.9899  -41.5367 S.3       10 UNK        -0.2414 
     61 C61        16.7881  -32.2950  -42.6712 C.3       10 UNK         0.0169 
     62 H62        17.7156  -22.8641  -40.3387 H         1 UNK         0.0903 
     63 H63        16.1417  -22.5442  -41.0732 H         1 UNK         0.0903 
     64 H64        16.5130  -24.1509  -40.4449 H         1 UNK         0.0903 
     65 H65        16.9887  -25.6169  -42.0686 H         1 UNK         0.3096 
     66 H66        17.6236  -24.8649  -44.7611 H         1 UNK         0.1121 
     67 H67        17.8508  -27.3116  -45.1373 H         1 UNK         0.0849 
     68 H68        17.8267  -27.6283  -43.4210 H         1 UNK         0.0849 
     69 H69        14.3279  -28.6379  -45.5341 H         1 UNK         0.0865 
     70 H70        15.5802  -27.8917  -46.4935 H         1 UNK         0.0865 
     71 H71        15.3694  -30.0855  -43.4173 H         1 UNK         0.1346 
     72 H72        18.4904  -32.6968  -44.7668 H         1 UNK         0.1412 
     73 H73        17.3406  -29.3287  -47.1515 H         1 UNK         0.1426 
     74 H74        18.7580  -31.3123  -48.0766 H         1 UNK         0.0716 
     75 H75        19.5024  -32.3871  -46.9193 H         1 UNK         0.0716 
     76 H76        20.0160  -30.4212  -44.5600 H         1 UNK         0.0695 
     77 H77        21.4311  -31.3521  -44.9731 H         1 UNK         0.0695 
     78 H78        22.8720  -29.4423  -44.8082 H         1 UNK         0.0983 
     79 H79        20.6386  -27.8622  -45.5514 H         1 UNK         0.3095 
     80 H80        22.0242  -24.6784  -44.6803 H         1 UNK         0.0454 
     81 H81        23.0280  -25.2992  -46.8839 H         1 UNK         0.0851 
     82 H82        21.5079  -26.0229  -47.3885 H         1 UNK         0.0851 
     83 H83        21.6096  -24.2873  -47.0889 H         1 UNK         0.0851 
     84 H84        19.5789  -25.2827  -45.9345 H         1 UNK         0.2976 
     85 H85        20.2518  -28.0213  -42.9036 H         1 UNK         0.3116 
     86 H86        20.7425  -29.6101  -40.5058 H         1 UNK         0.0646 
     87 H87        19.0581  -28.1307  -39.4838 H         1 UNK         0.0847 
     88 H88        18.4643  -28.7557  -41.0126 H         1 UNK         0.0847 
     89 H89        19.0428  -27.0932  -40.8992 H         1 UNK         0.0847 
     90 H90        21.4387  -26.3045  -41.6797 H         1 UNK         0.3040 
     91 H91        22.8554  -25.3763  -39.4051 H         1 UNK         0.1015 
     92 H92        23.0508  -24.5148  -42.3439 H         1 UNK         0.0786 
     93 H93        23.6328  -23.5878  -40.9671 H         1 UNK         0.0786 
     94 H94        21.9107  -23.8824  -41.1586 H         1 UNK         0.0786 
     95 H95        24.0128  -27.0966  -42.3367 H         1 UNK         0.3172 
     96 H96        26.5855  -27.6884  -40.9587 H         1 UNK         0.0595 
     97 H97        27.7804  -27.1872  -43.0923 H         1 UNK         0.0839 
     98 H98        26.2926  -26.5445  -43.7789 H         1 UNK         0.0839 
     99 H99        27.0466  -25.7499  -42.3986 H         1 UNK         0.0839 
    100 H100       25.3236  -30.9445  -41.9995 H         1 UNK         0.2998 
    101 H101       24.7230  -29.0524  -39.9083 H         1 UNK         0.0822 
    102 H102       26.3239  -30.1009  -38.2825 H         1 UNK         0.0787 
    103 H103       27.0722  -31.0134  -39.5836 H         1 UNK         0.0787 
    104 H104       27.2112  -29.2617  -39.5380 H         1 UNK         0.0787 
    105 H105       22.9248  -29.8599  -39.0793 H         1 UNK         0.3055 
    106 H106       21.3294  -31.1525  -38.2950 H         1 UNK         0.1106 
    107 H107       23.5120  -33.2266  -37.7439 H         1 UNK         0.0828 
    108 H108       23.1515  -31.8376  -36.7189 H         1 UNK         0.0828 
    109 H109       21.9586  -33.1050  -36.9317 H         1 UNK         0.0828 
    110 H110       21.8289  -31.4243  -41.2011 H         1 UNK         0.2931 
    111 H111       20.7957  -32.2949  -42.9028 H         1 UNK         0.0412 
    112 H112       21.8211  -35.5907  -44.0505 H         1 UNK         0.3472 
    113 H113       20.4506  -34.5315  -44.2256 H         1 UNK         0.3472 
    114 H114       19.1861  -34.1236  -41.0488 H         1 UNK         0.0970 
    115 H115       18.9034  -33.9442  -42.7465 H         1 UNK         0.0970 
    116 H116       15.8678  -32.0276  -42.1498 H         1 UNK         0.0612 
    117 H117       16.6988  -33.3571  -42.9021 H         1 UNK         0.0612 
@<TRIPOS>BOND
     1    1    2 1    
     2    1   62 1    
     3    1   63 1    
     4    1   64 1    
     5    2    3 2    
     6    2    4 am   BACKBONE|DICT|INTERRES
     7    4    5 1    
     8    4   65 1    
     9    5    6 1    
    10    5   25 1    
    11    5   66 1    
    12    6    7 1    
    13    6   67 1    
    14    6   68 1    
    15    7    8 1    
    16    8    9 1    
    17    8   69 1    
    18    8   70 1    
    19    9   10 ar   
    20    9   14 ar   
    21   10   11 ar   
    22   10   71 1    
    23   11   12 ar   
    24   11   61 1    
    25   12   13 ar   
    26   12   72 1    
    27   13   14 ar   
    28   13   15 1    
    29   14   73 1    
    30   15   16 1    
    31   15   74 1    
    32   15   75 1    
    33   16   17 1    
    34   17   18 1    
    35   17   76 1    
    36   17   77 1    
    37   18   19 1    
    38   18   27 1    
    39   18   78 1    
    40   19   20 am   BACKBONE|DICT|INTERRES
    41   19   79 1    
    42   20   21 2    
    43   20   22 1    
    44   22   23 1    
    45   22   24 1    
    46   22   80 1    
    47   23   81 1    
    48   23   82 1    
    49   23   83 1    
    50   24   25 am   BACKBONE|DICT|INTERRES
    51   24   84 1    
    52   25   26 2    
    53   27   28 2    
    54   27   29 am   BACKBONE|DICT|INTERRES
    55   29   30 1    
    56   29   85 1    
    57   30   31 1    
    58   30   32 1    
    59   30   86 1    
    60   31   87 1    
    61   31   88 1    
    62   31   89 1    
    63   32   33 2    
    64   32   34 am   BACKBONE|DICT|INTERRES
    65   34   35 1    
    66   34   90 1    
    67   35   36 1    
    68   35   37 1    
    69   35   91 1    
    70   36   92 1    
    71   36   93 1    
    72   36   94 1    
    73   37   38 2    
    74   37   39 am   BACKBONE|DICT|INTERRES
    75   39   40 1    
    76   39   95 1    
    77   40   41 1    
    78   40   42 1    
    79   40   96 1    
    80   41   97 1    
    81   41   98 1    
    82   41   99 1    
    83   42   43 2    
    84   42   44 am   BACKBONE|DICT|INTERRES
    85   44   45 1    
    86   44  100 1    
    87   45   46 1    
    88   45   47 1    
    89   45  101 1    
    90   46  102 1    
    91   46  103 1    
    92   46  104 1    
    93   47   48 2    
    94   47   49 am   BACKBONE|DICT|INTERRES
    95   49   50 1    
    96   49  105 1    
    97   50   51 1    
    98   50   52 1    
    99   50  106 1    
   100   51  107 1    
   101   51  108 1    
   102   51  109 1    
   103   52   53 2    
   104   52   54 am   BACKBONE|DICT|INTERRES
   105   54   55 1    
   106   54  110 1    
   107   55   56 1    
   108   55   59 1    
   109   55  111 1    
   110   56   57 am   BACKBONE|DICT|INTERRES
   111   56   58 2    
   112   57  112 1    
   113   57  113 1    
   114   59   60 1    
   115   59  114 1    
   116   59  115 1    
   117   60   61 1    
   118   61  116 1    
   119   61  117 1    
@<TRIPOS>SUBSTRUCTURE
     1 UNK         1 GROUP             0       ****    0 ROOT    
