@<TRIPOS>MOLECULE
3R8
117   119    1
SMALL
USER_CHARGES


@<TRIPOS>ATOM
      1 CA         13.4211  -27.1543  -40.4743 C.3       0 UNK        -0.2013 
      2 C          14.3132  -26.6006  -41.5749 C.2       0 UNK         0.4866 
      3 O          14.7861  -25.4695  -41.4658 O.2       0 UNK        -0.5176 
      4 N          14.5410  -27.3876  -42.6356 N.am      1 UNK        -0.4884 
      5 CA         15.4080  -27.0417  -43.7711 C.3       1 UNK         0.0853 
      6 C6         15.1564  -27.9972  -44.9631 C.3       10 UNK        -0.0849 
      7 S7         15.5253  -27.2306  -46.5753 S.3       10 UNK        -0.2776 
      8 C8         16.2028  -28.6447  -47.5029 C.3       10 UNK         0.0316 
      9 C9         17.5643  -29.0597  -46.9687 C.ar      10 UNK        -0.0863 
     10 C10        17.7087  -30.2297  -46.2170 C.ar      10 UNK        -0.1009 
     11 C11        18.9545  -30.5857  -45.6930 C.ar      10 UNK        -0.0712 
     12 C12        20.0650  -29.7712  -45.9428 C.ar      10 UNK        -0.0894 
     13 C13        19.9341  -28.6086  -46.7092 C.ar      10 UNK        -0.0745 
     14 C14        18.6817  -28.2607  -47.2202 C.ar      10 UNK        -0.0972 
     15 C15        21.1356  -27.7243  -47.0044 C.3       10 UNK         0.0209 
     16 S16        21.1950  -26.2763  -45.9029 S.3       10 UNK        -0.2568 
     17 C17        22.1607  -26.9334  -44.5072 C.3       10 UNK        -0.0983 
     18 CA         21.7187  -26.3463  -43.1406 C.3       3 UNK         0.0876 
     19 N          20.3593  -26.7067  -42.7169 N.am      3 UNK        -0.4424 
     20 C          19.8595  -27.9327  -42.5110 C.2       2 UNK         0.4918 
     21 O          20.4378  -28.9760  -42.8054 O.2       2 UNK        -0.4875 
     22 CA         18.5331  -28.0208  -41.7292 C.3       2 UNK         0.0481 
     23 CB         18.4609  -27.0088  -40.5639 C.3       2 UNK        -0.1831 
     24 N          17.3116  -27.9586  -42.5360 N.am      2 UNK        -0.4498 
     25 C          16.8940  -26.9716  -43.3442 C.2       1 UNK         0.5027 
     26 O          17.5756  -25.9956  -43.6599 O.2       1 UNK        -0.4969 
     27 C          22.7536  -26.6892  -42.0469 C.2       3 UNK         0.5005 
     28 O          22.9644  -27.8626  -41.7274 O.2       3 UNK        -0.5279 
     29 N          23.4449  -25.6632  -41.5295 N.am      4 UNK        -0.4463 
     30 CA         24.5545  -25.8144  -40.5784 C.3       4 UNK         0.0283 
     31 CB         25.0001  -24.4329  -40.0752 C.3       4 UNK        -0.1875 
     32 C          25.7479  -26.5862  -41.1703 C.2       4 UNK         0.4949 
     33 O          26.3890  -27.3542  -40.4548 O.2       4 UNK        -0.5039 
     34 N          25.9777  -26.4238  -42.4818 N.am      5 UNK        -0.4663 
     35 CA         26.9769  -27.1620  -43.2616 C.3       5 UNK         0.0242 
     36 CB         27.1004  -26.5202  -44.6529 C.3       5 UNK        -0.1982 
     37 C          26.6769  -28.6682  -43.3907 C.2       5 UNK         0.5017 
     38 O          27.6074  -29.4457  -43.6028 O.2       5 UNK        -0.5012 
     39 N          25.4008  -29.0524  -43.2448 N.am      6 UNK        -0.4439 
     40 CA         24.9373  -30.4411  -43.2128 C.3       6 UNK         0.0297 
     41 CB         23.6189  -30.5449  -43.9999 C.3       6 UNK        -0.2006 
     42 C          24.7474  -30.9513  -41.7721 C.2       6 UNK         0.4892 
     43 O          24.2560  -32.0671  -41.6027 O.2       6 UNK        -0.5089 
     44 N          25.1010  -30.1332  -40.7663 N.am      7 UNK        -0.4243 
     45 CA         24.9284  -30.3664  -39.3280 C.3       7 UNK         0.0196 
     46 CB         25.8659  -31.4934  -38.8440 C.3       7 UNK        -0.2007 
     47 C          23.4558  -30.5933  -38.9306 C.2       7 UNK         0.5020 
     48 O          23.1769  -31.4411  -38.0815 O.2       7 UNK        -0.5147 
     49 N          22.5456  -29.8346  -39.5622 N.am      8 UNK        -0.4734 
     50 CA         21.0860  -29.9377  -39.4520 C.3       8 UNK         0.0238 
     51 CB         20.5964  -29.5819  -38.0318 C.3       8 UNK        -0.1912 
     52 C          20.5598  -31.2924  -39.9671 C.2       8 UNK         0.5038 
     53 O          19.8194  -31.9794  -39.2605 O.2       8 UNK        -0.5046 
     54 N          20.9672  -31.6388  -41.1949 N.am      9 UNK        -0.4200 
     55 CA         20.6506  -32.8881  -41.9070 C.3       9 UNK         0.0839 
     56 C          21.2223  -34.1549  -41.2055 C.2       9 UNK         0.5513 
     57 N          22.4740  -34.1280  -40.7670 N.am      9 UNK        -0.7519 
     58 O          20.5449  -35.1706  -41.0648 O.2       9 UNK        -0.4960 
     59 C59        19.1462  -33.0299  -42.2920 C.3       10 UNK        -0.0876 
     60 S60        18.4650  -31.5817  -43.1672 S.3       10 UNK        -0.2414 
     61 C61        19.0960  -31.8461  -44.8527 C.3       10 UNK         0.0169 
     62 H62        13.0581  -28.1552  -40.7061 H         1 UNK         0.0903 
     63 H63        13.9714  -27.2025  -39.5351 H         1 UNK         0.0903 
     64 H64        12.5573  -26.5060  -40.3301 H         1 UNK         0.0903 
     65 H65        14.1110  -28.3014  -42.6691 H         1 UNK         0.3096 
     66 H66        15.1222  -26.0331  -44.0802 H         1 UNK         0.1121 
     67 H67        14.1028  -28.2786  -45.0011 H         1 UNK         0.0849 
     68 H68        15.7021  -28.9322  -44.8355 H         1 UNK         0.0849 
     69 H69        15.4971  -29.4766  -47.4687 H         1 UNK         0.0865 
     70 H70        16.2965  -28.3679  -48.5540 H         1 UNK         0.0865 
     71 H71        16.8493  -30.8553  -46.0177 H         1 UNK         0.1346 
     72 H72        21.0278  -30.0369  -45.5296 H         1 UNK         0.1412 
     73 H73        18.5725  -27.3545  -47.8007 H         1 UNK         0.1426 
     74 H74        22.0649  -28.2916  -46.9312 H         1 UNK         0.0716 
     75 H75        21.0791  -27.3734  -48.0360 H         1 UNK         0.0716 
     76 H76        23.2070  -26.6952  -44.7087 H         1 UNK         0.0695 
     77 H77        22.0991  -28.0205  -44.5012 H         1 UNK         0.0695 
     78 H78        21.7056  -25.2603  -43.2468 H         1 UNK         0.0983 
     79 H79        19.7615  -25.9271  -42.4830 H         1 UNK         0.3095 
     80 H80        18.5214  -29.0140  -41.2776 H         1 UNK         0.0454 
     81 H81        17.6301  -27.2410  -39.8977 H         1 UNK         0.0851 
     82 H82        18.3224  -25.9844  -40.9106 H         1 UNK         0.0851 
     83 H83        19.3698  -27.0315  -39.9609 H         1 UNK         0.0851 
     84 H84        16.6679  -28.7210  -42.3812 H         1 UNK         0.2976 
     85 H85        23.2275  -24.7217  -41.8253 H         1 UNK         0.3116 
     86 H86        24.1855  -26.3860  -39.7239 H         1 UNK         0.0646 
     87 H87        24.1840  -23.9085  -39.5781 H         1 UNK         0.0847 
     88 H88        25.8105  -24.5260  -39.3506 H         1 UNK         0.0847 
     89 H89        25.3615  -23.8009  -40.8873 H         1 UNK         0.0847 
     90 H90        25.4078  -25.7607  -42.9866 H         1 UNK         0.3040 
     91 H91        27.9380  -27.0675  -42.7510 H         1 UNK         0.1015 
     92 H92        26.1621  -26.5707  -45.2069 H         1 UNK         0.0786 
     93 H93        27.8590  -27.0276  -45.2507 H         1 UNK         0.0786 
     94 H94        27.3947  -25.4729  -44.5829 H         1 UNK         0.0786 
     95 H95        24.7049  -28.3530  -43.0182 H         1 UNK         0.3172 
     96 H96        25.6698  -31.0916  -43.6946 H         1 UNK         0.0595 
     97 H97        22.8115  -30.0103  -43.5002 H         1 UNK         0.0839 
     98 H98        23.3035  -31.5841  -44.0994 H         1 UNK         0.0839 
     99 H99        23.7208  -30.1410  -45.0070 H         1 UNK         0.0839 
    100 H100       25.4978  -29.2321  -41.0043 H         1 UNK         0.2998 
    101 H101       25.2364  -29.4451  -38.8312 H         1 UNK         0.0822 
    102 H102       25.8394  -31.5845  -37.7575 H         1 UNK         0.0787 
    103 H103       25.5823  -32.4616  -39.2581 H         1 UNK         0.0787 
    104 H104       26.9003  -31.2972  -39.1264 H         1 UNK         0.0787 
    105 H105       22.8750  -29.1809  -40.2703 H         1 UNK         0.3055 
    106 H106       20.6879  -29.1801  -40.1218 H         1 UNK         0.1106 
    107 H107       19.5071  -29.5389  -37.9982 H         1 UNK         0.0828 
    108 H108       20.9124  -30.3187  -37.2930 H         1 UNK         0.0828 
    109 H109       20.9689  -28.6075  -37.7163 H         1 UNK         0.0828 
    110 H110       21.5526  -30.9891  -41.6989 H         1 UNK         0.2931 
    111 H111       21.2072  -32.8246  -42.8417 H         1 UNK         0.0412 
    112 H112       22.8570  -34.9393  -40.3100 H         1 UNK         0.3472 
    113 H113       23.0658  -33.3184  -40.9433 H         1 UNK         0.3472 
    114 H114       18.5445  -33.1909  -41.3961 H         1 UNK         0.0970 
    115 H115       18.9938  -33.9120  -42.9164 H         1 UNK         0.0970 
    116 H116       18.5520  -32.6693  -45.3183 H         1 UNK         0.0612 
    117 H117       20.1427  -32.1488  -44.8107 H         1 UNK         0.0612 
@<TRIPOS>BOND
     1    1    2 1    
     2    1   62 1    
     3    1   63 1    
     4    1   64 1    
     5    2    3 2    
     6    2    4 am   BACKBONE|DICT|INTERRES
     7    4    5 1    
     8    4   65 1    
     9    5    6 1    
    10    5   25 1    
    11    5   66 1    
    12    6    7 1    
    13    6   67 1    
    14    6   68 1    
    15    7    8 1    
    16    8    9 1    
    17    8   69 1    
    18    8   70 1    
    19    9   10 ar   
    20    9   14 ar   
    21   10   11 ar   
    22   10   71 1    
    23   11   12 ar   
    24   11   61 1    
    25   12   13 ar   
    26   12   72 1    
    27   13   14 ar   
    28   13   15 1    
    29   14   73 1    
    30   15   16 1    
    31   15   74 1    
    32   15   75 1    
    33   16   17 1    
    34   17   18 1    
    35   17   76 1    
    36   17   77 1    
    37   18   19 1    
    38   18   27 1    
    39   18   78 1    
    40   19   20 am   BACKBONE|DICT|INTERRES
    41   19   79 1    
    42   20   21 2    
    43   20   22 1    
    44   22   23 1    
    45   22   24 1    
    46   22   80 1    
    47   23   81 1    
    48   23   82 1    
    49   23   83 1    
    50   24   25 am   BACKBONE|DICT|INTERRES
    51   24   84 1    
    52   25   26 2    
    53   27   28 2    
    54   27   29 am   BACKBONE|DICT|INTERRES
    55   29   30 1    
    56   29   85 1    
    57   30   31 1    
    58   30   32 1    
    59   30   86 1    
    60   31   87 1    
    61   31   88 1    
    62   31   89 1    
    63   32   33 2    
    64   32   34 am   BACKBONE|DICT|INTERRES
    65   34   35 1    
    66   34   90 1    
    67   35   36 1    
    68   35   37 1    
    69   35   91 1    
    70   36   92 1    
    71   36   93 1    
    72   36   94 1    
    73   37   38 2    
    74   37   39 am   BACKBONE|DICT|INTERRES
    75   39   40 1    
    76   39   95 1    
    77   40   41 1    
    78   40   42 1    
    79   40   96 1    
    80   41   97 1    
    81   41   98 1    
    82   41   99 1    
    83   42   43 2    
    84   42   44 am   BACKBONE|DICT|INTERRES
    85   44   45 1    
    86   44  100 1    
    87   45   46 1    
    88   45   47 1    
    89   45  101 1    
    90   46  102 1    
    91   46  103 1    
    92   46  104 1    
    93   47   48 2    
    94   47   49 am   BACKBONE|DICT|INTERRES
    95   49   50 1    
    96   49  105 1    
    97   50   51 1    
    98   50   52 1    
    99   50  106 1    
   100   51  107 1    
   101   51  108 1    
   102   51  109 1    
   103   52   53 2    
   104   52   54 am   BACKBONE|DICT|INTERRES
   105   54   55 1    
   106   54  110 1    
   107   55   56 1    
   108   55   59 1    
   109   55  111 1    
   110   56   57 am   BACKBONE|DICT|INTERRES
   111   56   58 2    
   112   57  112 1    
   113   57  113 1    
   114   59   60 1    
   115   59  114 1    
   116   59  115 1    
   117   60   61 1    
   118   61  116 1    
   119   61  117 1    
@<TRIPOS>SUBSTRUCTURE
     1 UNK         1 GROUP             0       ****    0 ROOT    
