@<TRIPOS>MOLECULE
3R8
117   119    1
SMALL
USER_CHARGES


@<TRIPOS>ATOM
      1 CA         18.8657  -21.8297  -45.7358 C.3       0 UNK        -0.2013 
      2 C          18.2254  -23.2088  -45.6781 C.2       0 UNK         0.4866 
      3 O          17.2428  -23.4596  -46.3765 O.2       0 UNK        -0.5176 
      4 N          18.7742  -24.1055  -44.8536 N.am      1 UNK        -0.4884 
      5 CA         18.3199  -25.4815  -44.6703 C.3       1 UNK         0.0853 
      6 C6         17.0000  -25.5508  -43.8396 C.3       10 UNK        -0.0849 
      7 S7         16.7162  -27.0468  -42.8331 S.3       10 UNK        -0.2776 
      8 C8         16.0084  -28.2145  -44.0509 C.3       10 UNK         0.0316 
      9 C9         16.4995  -29.6365  -43.7970 C.ar      10 UNK        -0.0863 
     10 C10        17.0433  -30.4116  -44.8297 C.ar      10 UNK        -0.1009 
     11 C11        17.5615  -31.6901  -44.5757 C.ar      10 UNK        -0.0712 
     12 C12        17.5242  -32.1833  -43.2648 C.ar      10 UNK        -0.0894 
     13 C13        17.0042  -31.4107  -42.2266 C.ar      10 UNK        -0.0745 
     14 C14        16.4489  -30.1646  -42.5059 C.ar      10 UNK        -0.0972 
     15 C15        17.1208  -31.8877  -40.7916 C.3       10 UNK         0.0209 
     16 S16        18.7578  -31.4541  -40.1178 S.3       10 UNK        -0.2568 
     17 C17        18.5925  -29.6643  -39.7914 C.3       10 UNK        -0.0983 
     18 CA         19.7775  -28.8356  -40.3553 C.3       3 UNK         0.0876 
     19 N          19.7702  -28.7220  -41.8242 N.am      3 UNK        -0.4424 
     20 C          20.8776  -28.7566  -42.5829 C.2       2 UNK         0.4918 
     21 O          21.9979  -29.0285  -42.1510 O.2       2 UNK        -0.4875 
     22 CA         20.7481  -28.4080  -44.0792 C.3       2 UNK         0.0481 
     23 CB         20.6913  -29.6714  -44.9378 C.3       2 UNK        -0.1831 
     24 N          19.6101  -27.5561  -44.4220 N.am      2 UNK        -0.4498 
     25 C          19.5176  -26.2623  -44.0965 C.2       1 UNK         0.5027 
     26 O          20.3337  -25.6899  -43.3700 O.2       1 UNK        -0.4969 
     27 C          19.8476  -27.4508  -39.6708 C.2       3 UNK         0.5005 
     28 O          20.0820  -27.4049  -38.4614 O.2       3 UNK        -0.5279 
     29 N          19.6644  -26.3491  -40.4192 N.am      4 UNK        -0.4463 
     30 CA         20.0007  -24.9964  -39.9552 C.3       4 UNK         0.0283 
     31 CB         19.2075  -23.9402  -40.7429 C.3       4 UNK        -0.1875 
     32 C          21.5195  -24.7624  -40.0576 C.2       4 UNK         0.4949 
     33 O          22.1039  -24.1403  -39.1700 O.2       4 UNK        -0.5039 
     34 N          22.1334  -25.3228  -41.1100 N.am      5 UNK        -0.4663 
     35 CA         23.5714  -25.5679  -41.2298 C.3       5 UNK         0.0242 
     36 CB         23.8851  -25.8969  -42.7010 C.3       5 UNK        -0.1982 
     37 C          24.0302  -26.7098  -40.2969 C.2       5 UNK         0.5017 
     38 O          23.2089  -27.3491  -39.6350 O.2       5 UNK        -0.5012 
     39 N          25.3441  -26.9650  -40.2634 N.am      6 UNK        -0.4439 
     40 CA         25.9962  -27.9669  -39.4109 C.3       6 UNK         0.0297 
     41 CB         27.4926  -27.6163  -39.2973 C.3       6 UNK        -0.2006 
     42 C          25.7616  -29.4265  -39.8661 C.2       6 UNK         0.4892 
     43 O          26.7291  -30.1472  -40.1177 O.2       6 UNK        -0.5089 
     44 N          24.4845  -29.8312  -39.9450 N.am      7 UNK        -0.4243 
     45 CA         23.9722  -31.1655  -40.2888 C.3       7 UNK         0.0196 
     46 CB         24.2700  -32.1651  -39.1517 C.3       7 UNK        -0.2007 
     47 C          24.4725  -31.6515  -41.6621 C.2       7 UNK         0.5020 
     48 O          25.0880  -32.7136  -41.7672 O.2       7 UNK        -0.5147 
     49 N          24.2163  -30.8390  -42.6933 N.am      8 UNK        -0.4734 
     50 CA         24.7094  -31.0475  -44.0591 C.3       8 UNK         0.0238 
     51 CB         24.7600  -29.6847  -44.7725 C.3       8 UNK        -0.1912 
     52 C          23.8984  -32.0719  -44.8785 C.2       8 UNK         0.5038 
     53 O          24.3152  -32.4090  -45.9875 O.2       8 UNK        -0.5046 
     54 N          22.7497  -32.5160  -44.3512 N.am      9 UNK        -0.4200 
     55 CA         21.8208  -33.4518  -45.0001 C.3       9 UNK         0.0839 
     56 C          22.4213  -34.8788  -45.1285 C.2       9 UNK         0.5513 
     57 N          22.2511  -35.5284  -46.2717 N.am      9 UNK        -0.7519 
     58 O          23.0074  -35.4107  -44.1879 O.2       9 UNK        -0.4960 
     59 C59        20.4561  -33.4593  -44.2623 C.3       10 UNK        -0.0876 
     60 S60        19.0659  -34.0257  -45.3091 S.3       10 UNK        -0.2414 
     61 C61        18.1930  -32.4706  -45.7361 C.3       10 UNK         0.0169 
     62 H62        19.7192  -21.7478  -45.0626 H         1 UNK         0.0903 
     63 H63        19.2100  -21.6176  -46.7479 H         1 UNK         0.0903 
     64 H64        18.1394  -21.0671  -45.4558 H         1 UNK         0.0903 
     65 H65        19.6094  -23.8844  -44.3232 H         1 UNK         0.3096 
     66 H66        18.1220  -25.9005  -45.6600 H         1 UNK         0.1121 
     67 H67        16.1416  -25.3926  -44.4946 H         1 UNK         0.0849 
     68 H68        16.9746  -24.7183  -43.1340 H         1 UNK         0.0849 
     69 H69        14.9197  -28.1885  -43.9863 H         1 UNK         0.0865 
     70 H70        16.2680  -27.8980  -45.0621 H         1 UNK         0.0865 
     71 H71        17.0850  -30.0127  -45.8342 H         1 UNK         0.1346 
     72 H72        17.9366  -33.1518  -43.0244 H         1 UNK         0.1412 
     73 H73        16.0295  -29.5738  -41.7036 H         1 UNK         0.1426 
     74 H74        16.9926  -32.9703  -40.7489 H         1 UNK         0.0716 
     75 H75        16.3342  -31.4588  -40.1686 H         1 UNK         0.0716 
     76 H76        18.5353  -29.5679  -38.7053 H         1 UNK         0.0695 
     77 H77        17.6450  -29.2807  -40.1660 H         1 UNK         0.0695 
     78 H78        20.6939  -29.3443  -40.0468 H         1 UNK         0.0983 
     79 H79        18.8773  -28.5444  -42.2634 H         1 UNK         0.3095 
     80 H80        21.6525  -27.8644  -44.3601 H         1 UNK         0.0454 
     81 H81        19.8660  -30.3102  -44.6383 H         1 UNK         0.0851 
     82 H82        21.6071  -30.2435  -44.8319 H         1 UNK         0.0851 
     83 H83        20.5805  -29.4404  -45.9973 H         1 UNK         0.0851 
     84 H84        18.8906  -27.9728  -44.9943 H         1 UNK         0.2976 
     85 H85        19.4894  -26.4553  -41.4084 H         1 UNK         0.3116 
     86 H86        19.7162  -24.9029  -38.9048 H         1 UNK         0.0646 
     87 H87        18.1366  -24.1411  -40.7105 H         1 UNK         0.0847 
     88 H88        19.5079  -23.8869  -41.7878 H         1 UNK         0.0847 
     89 H89        19.3638  -22.9487  -40.3166 H         1 UNK         0.0847 
     90 H90        21.5502  -25.7422  -41.8256 H         1 UNK         0.3040 
     91 H91        24.1024  -24.6577  -40.9431 H         1 UNK         0.1015 
     92 H92        24.9591  -25.9673  -42.8750 H         1 UNK         0.0786 
     93 H93        23.5030  -25.1254  -43.3703 H         1 UNK         0.0786 
     94 H94        23.4444  -26.8468  -43.0038 H         1 UNK         0.0786 
     95 H95        25.9541  -26.4266  -40.8618 H         1 UNK         0.3172 
     96 H96        25.5696  -27.8837  -38.4088 H         1 UNK         0.0595 
     97 H97        27.9952  -27.6707  -40.2639 H         1 UNK         0.0839 
     98 H98        28.0061  -28.3045  -38.6242 H         1 UNK         0.0839 
     99 H99        27.6377  -26.6123  -38.8979 H         1 UNK         0.0839 
    100 H100       23.7802  -29.1147  -39.7773 H         1 UNK         0.2998 
    101 H101       22.8879  -31.0704  -40.3692 H         1 UNK         0.0822 
    102 H102       23.8596  -31.8192  -38.2031 H         1 UNK         0.0787 
    103 H103       23.8250  -33.1386  -39.3615 H         1 UNK         0.0787 
    104 H104       25.3414  -32.3188  -39.0175 H         1 UNK         0.0787 
    105 H105       23.6484  -30.0127  -42.5219 H         1 UNK         0.3055 
    106 H106       25.7298  -31.4339  -44.0023 H         1 UNK         0.1106 
    107 H107       23.7754  -29.2232  -44.8421 H         1 UNK         0.0828 
    108 H108       25.1453  -29.7859  -45.7881 H         1 UNK         0.0828 
    109 H109       25.4166  -28.9897  -44.2487 H         1 UNK         0.0828 
    110 H110       22.5205  -32.2249  -43.4135 H         1 UNK         0.2931 
    111 H111       21.6527  -33.0588  -46.0055 H         1 UNK         0.0412 
    112 H112       21.7493  -35.1058  -47.0375 H         1 UNK         0.3472 
    113 H113       22.6221  -36.4610  -46.3685 H         1 UNK         0.3472 
    114 H114       20.4998  -34.0856  -43.3688 H         1 UNK         0.0970 
    115 H115       20.2248  -32.4599  -43.8962 H         1 UNK         0.0970 
    116 H116       17.4036  -32.7172  -46.4472 H         1 UNK         0.0612 
    117 H117       18.8923  -31.8251  -46.2691 H         1 UNK         0.0612 
@<TRIPOS>BOND
     1    1    2 1    
     2    1   62 1    
     3    1   63 1    
     4    1   64 1    
     5    2    3 2    
     6    2    4 am   BACKBONE|DICT|INTERRES
     7    4    5 1    
     8    4   65 1    
     9    5    6 1    
    10    5   25 1    
    11    5   66 1    
    12    6    7 1    
    13    6   67 1    
    14    6   68 1    
    15    7    8 1    
    16    8    9 1    
    17    8   69 1    
    18    8   70 1    
    19    9   10 ar   
    20    9   14 ar   
    21   10   11 ar   
    22   10   71 1    
    23   11   12 ar   
    24   11   61 1    
    25   12   13 ar   
    26   12   72 1    
    27   13   14 ar   
    28   13   15 1    
    29   14   73 1    
    30   15   16 1    
    31   15   74 1    
    32   15   75 1    
    33   16   17 1    
    34   17   18 1    
    35   17   76 1    
    36   17   77 1    
    37   18   19 1    
    38   18   27 1    
    39   18   78 1    
    40   19   20 am   BACKBONE|DICT|INTERRES
    41   19   79 1    
    42   20   21 2    
    43   20   22 1    
    44   22   23 1    
    45   22   24 1    
    46   22   80 1    
    47   23   81 1    
    48   23   82 1    
    49   23   83 1    
    50   24   25 am   BACKBONE|DICT|INTERRES
    51   24   84 1    
    52   25   26 2    
    53   27   28 2    
    54   27   29 am   BACKBONE|DICT|INTERRES
    55   29   30 1    
    56   29   85 1    
    57   30   31 1    
    58   30   32 1    
    59   30   86 1    
    60   31   87 1    
    61   31   88 1    
    62   31   89 1    
    63   32   33 2    
    64   32   34 am   BACKBONE|DICT|INTERRES
    65   34   35 1    
    66   34   90 1    
    67   35   36 1    
    68   35   37 1    
    69   35   91 1    
    70   36   92 1    
    71   36   93 1    
    72   36   94 1    
    73   37   38 2    
    74   37   39 am   BACKBONE|DICT|INTERRES
    75   39   40 1    
    76   39   95 1    
    77   40   41 1    
    78   40   42 1    
    79   40   96 1    
    80   41   97 1    
    81   41   98 1    
    82   41   99 1    
    83   42   43 2    
    84   42   44 am   BACKBONE|DICT|INTERRES
    85   44   45 1    
    86   44  100 1    
    87   45   46 1    
    88   45   47 1    
    89   45  101 1    
    90   46  102 1    
    91   46  103 1    
    92   46  104 1    
    93   47   48 2    
    94   47   49 am   BACKBONE|DICT|INTERRES
    95   49   50 1    
    96   49  105 1    
    97   50   51 1    
    98   50   52 1    
    99   50  106 1    
   100   51  107 1    
   101   51  108 1    
   102   51  109 1    
   103   52   53 2    
   104   52   54 am   BACKBONE|DICT|INTERRES
   105   54   55 1    
   106   54  110 1    
   107   55   56 1    
   108   55   59 1    
   109   55  111 1    
   110   56   57 am   BACKBONE|DICT|INTERRES
   111   56   58 2    
   112   57  112 1    
   113   57  113 1    
   114   59   60 1    
   115   59  114 1    
   116   59  115 1    
   117   60   61 1    
   118   61  116 1    
   119   61  117 1    
@<TRIPOS>SUBSTRUCTURE
     1 UNK         1 GROUP             0       ****    0 ROOT    
