@<TRIPOS>MOLECULE
3R8
117   119    1
SMALL
USER_CHARGES


@<TRIPOS>ATOM
      1 CA         17.0806  -24.1690  -42.2506 C.3       0 UNK        -0.2013 
      2 C          17.6189  -25.1695  -43.2609 C.2       0 UNK         0.4866 
      3 O          18.0613  -26.2476  -42.8643 O.2       0 UNK        -0.5176 
      4 N          17.5810  -24.7889  -44.5483 N.am      1 UNK        -0.4884 
      5 CA         17.9400  -25.4885  -45.8010 C.3       1 UNK         0.0853 
      6 C6         16.8122  -26.3837  -46.3941 C.3       10 UNK        -0.0849 
      7 S7         16.1235  -27.6549  -45.2832 S.3       10 UNK        -0.2776 
      8 C8         17.1374  -29.1155  -45.6996 C.3       10 UNK         0.0316 
      9 C9         17.1368  -30.1783  -44.6030 C.ar      10 UNK        -0.0863 
     10 C10        17.1591  -31.5340  -44.9476 C.ar      10 UNK        -0.1009 
     11 C11        17.1643  -32.5200  -43.9554 C.ar      10 UNK        -0.0712 
     12 C12        17.1520  -32.1439  -42.6095 C.ar      10 UNK        -0.0894 
     13 C13        17.1399  -30.7950  -42.2471 C.ar      10 UNK        -0.0745 
     14 C14        17.1369  -29.8206  -43.2492 C.ar      10 UNK        -0.0972 
     15 C15        17.0819  -30.4060  -40.7733 C.3       10 UNK         0.0209 
     16 S16        18.1841  -29.0227  -40.3336 S.3       10 UNK        -0.2568 
     17 C17        19.8305  -29.7781  -40.5564 C.3       10 UNK        -0.0983 
     18 CA         20.8965  -28.8032  -41.1116 C.3       3 UNK         0.0876 
     19 N          20.6026  -28.3453  -42.4768 N.am      3 UNK        -0.4424 
     20 C          21.4711  -27.6816  -43.2558 C.2       2 UNK         0.4918 
     21 O          22.5417  -27.2249  -42.8531 O.2       2 UNK        -0.4875 
     22 CA         21.0855  -27.4805  -44.7210 C.3       2 UNK         0.0481 
     23 CB         21.0977  -28.8200  -45.4796 C.3       2 UNK        -0.1831 
     24 N          19.7890  -26.8184  -44.8225 N.am      2 UNK        -0.4498 
     25 C          19.3316  -26.1594  -45.8892 C.2       1 UNK         0.5027 
     26 O          19.9653  -26.0632  -46.9418 O.2       1 UNK        -0.4969 
     27 C          21.2299  -27.6742  -40.1161 C.2       3 UNK         0.5005 
     28 O          21.9942  -27.9101  -39.1807 O.2       3 UNK        -0.5279 
     29 N          20.7118  -26.4634  -40.3653 N.am      4 UNK        -0.4463 
     30 CA         21.0206  -25.2481  -39.6074 C.3       4 UNK         0.0283 
     31 CB         20.1128  -24.1090  -40.0955 C.3       4 UNK        -0.1875 
     32 C          22.5014  -24.8201  -39.6697 C.2       4 UNK         0.4949 
     33 O          22.9499  -24.1148  -38.7654 O.2       4 UNK        -0.5039 
     34 N          23.2264  -25.2416  -40.7159 N.am      5 UNK        -0.4663 
     35 CA         24.6500  -24.9601  -40.9103 C.3       5 UNK         0.0242 
     36 CB         24.8365  -24.1914  -42.2296 C.3       5 UNK        -0.1982 
     37 C          25.4910  -26.2451  -40.9147 C.2       5 UNK         0.5017 
     38 O          26.5402  -26.2791  -40.2713 O.2       5 UNK        -0.5012 
     39 N          25.0379  -27.2674  -41.6525 N.am      6 UNK        -0.4439 
     40 CA         25.7879  -28.4976  -41.9173 C.3       6 UNK         0.0297 
     41 CB         25.3463  -29.0574  -43.2812 C.3       6 UNK        -0.2006 
     42 C          25.6329  -29.5788  -40.8355 C.2       6 UNK         0.4892 
     43 O          26.4261  -30.5205  -40.8344 O.2       6 UNK        -0.5089 
     44 N          24.6062  -29.4633  -39.9763 N.am      7 UNK        -0.4243 
     45 CA         24.1757  -30.4565  -38.9763 C.3       7 UNK         0.0196 
     46 CB         25.2538  -30.6560  -37.8892 C.3       7 UNK        -0.2007 
     47 C          23.6941  -31.7930  -39.5866 C.2       7 UNK         0.5020 
     48 O          23.6360  -32.8014  -38.8817 O.2       7 UNK        -0.5147 
     49 N          23.3413  -31.7794  -40.8765 N.am      8 UNK        -0.4734 
     50 CA         22.8698  -32.9069  -41.6737 C.3       8 UNK         0.0238 
     51 CB         24.0652  -33.7886  -42.0860 C.3       8 UNK        -0.1912 
     52 C          22.1366  -32.3514  -42.9026 C.2       8 UNK         0.5038 
     53 O          22.1858  -31.1428  -43.1444 O.2       8 UNK        -0.5046 
     54 N          21.4854  -33.2408  -43.6603 N.am      9 UNK        -0.4200 
     55 CA         20.6974  -32.9147  -44.8627 C.3       9 UNK         0.0839 
     56 C          21.5096  -32.3708  -46.0763 C.2       9 UNK         0.5513 
     57 N          22.8360  -32.4210  -46.0730 N.am      9 UNK        -0.7519 
     58 O          20.9190  -31.8971  -47.0429 O.2       9 UNK        -0.4960 
     59 C59        19.8083  -34.1066  -45.3101 C.3       10 UNK        -0.0876 
     60 S60        18.7618  -34.7861  -43.9780 S.3       10 UNK        -0.2414 
     61 C61        17.1602  -33.9955  -44.3269 C.3       10 UNK         0.0169 
     62 H62        16.2026  -23.6521  -42.6375 H         1 UNK         0.0903 
     63 H63        16.7909  -24.6753  -41.3300 H         1 UNK         0.0903 
     64 H64        17.8401  -23.4263  -42.0096 H         1 UNK         0.0903 
     65 H65        17.2257  -23.8579  -44.7188 H         1 UNK         0.3096 
     66 H66        18.0329  -24.6598  -46.5060 H         1 UNK         0.1121 
     67 H67        17.1331  -26.8532  -47.3265 H         1 UNK         0.0849 
     68 H68        15.9771  -25.7419  -46.6789 H         1 UNK         0.0849 
     69 H69        16.7663  -29.5337  -46.6366 H         1 UNK         0.0865 
     70 H70        18.1672  -28.8170  -45.8842 H         1 UNK         0.0865 
     71 H71        17.1688  -31.8238  -45.9896 H         1 UNK         0.1346 
     72 H72        17.1466  -32.9086  -41.8446 H         1 UNK         0.1412 
     73 H73        17.1210  -28.7765  -42.9678 H         1 UNK         0.1426 
     74 H74        17.3249  -31.2586  -40.1370 H         1 UNK         0.0716 
     75 H75        16.0568  -30.1226  -40.5324 H         1 UNK         0.0716 
     76 H76        19.7493  -30.6355  -41.2265 H         1 UNK         0.0695 
     77 H77        20.1524  -30.1878  -39.5971 H         1 UNK         0.0695 
     78 H78        21.8189  -29.3778  -41.1970 H         1 UNK         0.0983 
     79 H79        19.7280  -28.6630  -42.8681 H         1 UNK         0.3095 
     80 H80        21.8391  -26.8272  -45.1660 H         1 UNK         0.0454 
     81 H81        22.0701  -29.3065  -45.3888 H         1 UNK         0.0851 
     82 H82        20.9054  -28.6848  -46.5436 H         1 UNK         0.0851 
     83 H83        20.3546  -29.5164  -45.0904 H         1 UNK         0.0851 
     84 H84        19.2094  -26.7802  -43.9809 H         1 UNK         0.2976 
     85 H85        20.0731  -26.3749  -41.1447 H         1 UNK         0.3116 
     86 H86        20.7861  -25.4463  -38.5595 H         1 UNK         0.0646 
     87 H87        20.2691  -23.8937  -41.1533 H         1 UNK         0.0847 
     88 H88        20.3076  -23.1887  -39.5430 H         1 UNK         0.0847 
     89 H89        19.0608  -24.3538  -39.9497 H         1 UNK         0.0847 
     90 H90        22.7798  -25.8342  -41.4070 H         1 UNK         0.3040 
     91 H91        25.0317  -24.3329  -40.1014 H         1 UNK         0.1015 
     92 H92        24.4612  -24.7546  -43.0853 H         1 UNK         0.0786 
     93 H93        25.8906  -23.9792  -42.4136 H         1 UNK         0.0786 
     94 H94        24.3136  -23.2352  -42.2049 H         1 UNK         0.0786 
     95 H95        24.1538  -27.1675  -42.1497 H         1 UNK         0.3172 
     96 H96        26.8507  -28.2547  -41.9841 H         1 UNK         0.0595 
     97 H97        24.2925  -29.3386  -43.2838 H         1 UNK         0.0839 
     98 H98        25.9187  -29.9482  -43.5439 H         1 UNK         0.0839 
     99 H99        25.4994  -28.3298  -44.0783 H         1 UNK         0.0839 
    100 H100       24.0285  -28.6342  -40.0335 H         1 UNK         0.2998 
    101 H101       23.3014  -30.0321  -38.4827 H         1 UNK         0.0822 
    102 H102       24.8707  -31.2583  -37.0646 H         1 UNK         0.0787 
    103 H103       26.1353  -31.1660  -38.2784 H         1 UNK         0.0787 
    104 H104       25.5745  -29.7025  -37.4695 H         1 UNK         0.0787 
    105 H105       23.3780  -30.9109  -41.3943 H         1 UNK         0.3055 
    106 H106       22.1592  -33.4905  -41.0841 H         1 UNK         0.1106 
    107 H107       23.7453  -34.6433  -42.6829 H         1 UNK         0.0828 
    108 H108       24.7916  -33.2282  -42.6762 H         1 UNK         0.0828 
    109 H109       24.5844  -34.1870  -41.2142 H         1 UNK         0.0828 
    110 H110       21.4939  -34.2147  -43.3961 H         1 UNK         0.2931 
    111 H111       20.0290  -32.1015  -44.5739 H         1 UNK         0.0412 
    112 H112       23.3314  -32.7960  -45.2810 H         1 UNK         0.3472 
    113 H113       23.3450  -32.0653  -46.8665 H         1 UNK         0.3472 
    114 H114       20.4336  -34.9190  -45.6853 H         1 UNK         0.0970 
    115 H115       19.1701  -33.8150  -46.1465 H         1 UNK         0.0970 
    116 H116       16.3870  -34.5054  -43.7504 H         1 UNK         0.0612 
    117 H117       16.8991  -34.1375  -45.3767 H         1 UNK         0.0612 
@<TRIPOS>BOND
     1    1    2 1    
     2    1   62 1    
     3    1   63 1    
     4    1   64 1    
     5    2    3 2    
     6    2    4 am   BACKBONE|DICT|INTERRES
     7    4    5 1    
     8    4   65 1    
     9    5    6 1    
    10    5   25 1    
    11    5   66 1    
    12    6    7 1    
    13    6   67 1    
    14    6   68 1    
    15    7    8 1    
    16    8    9 1    
    17    8   69 1    
    18    8   70 1    
    19    9   10 ar   
    20    9   14 ar   
    21   10   11 ar   
    22   10   71 1    
    23   11   12 ar   
    24   11   61 1    
    25   12   13 ar   
    26   12   72 1    
    27   13   14 ar   
    28   13   15 1    
    29   14   73 1    
    30   15   16 1    
    31   15   74 1    
    32   15   75 1    
    33   16   17 1    
    34   17   18 1    
    35   17   76 1    
    36   17   77 1    
    37   18   19 1    
    38   18   27 1    
    39   18   78 1    
    40   19   20 am   BACKBONE|DICT|INTERRES
    41   19   79 1    
    42   20   21 2    
    43   20   22 1    
    44   22   23 1    
    45   22   24 1    
    46   22   80 1    
    47   23   81 1    
    48   23   82 1    
    49   23   83 1    
    50   24   25 am   BACKBONE|DICT|INTERRES
    51   24   84 1    
    52   25   26 2    
    53   27   28 2    
    54   27   29 am   BACKBONE|DICT|INTERRES
    55   29   30 1    
    56   29   85 1    
    57   30   31 1    
    58   30   32 1    
    59   30   86 1    
    60   31   87 1    
    61   31   88 1    
    62   31   89 1    
    63   32   33 2    
    64   32   34 am   BACKBONE|DICT|INTERRES
    65   34   35 1    
    66   34   90 1    
    67   35   36 1    
    68   35   37 1    
    69   35   91 1    
    70   36   92 1    
    71   36   93 1    
    72   36   94 1    
    73   37   38 2    
    74   37   39 am   BACKBONE|DICT|INTERRES
    75   39   40 1    
    76   39   95 1    
    77   40   41 1    
    78   40   42 1    
    79   40   96 1    
    80   41   97 1    
    81   41   98 1    
    82   41   99 1    
    83   42   43 2    
    84   42   44 am   BACKBONE|DICT|INTERRES
    85   44   45 1    
    86   44  100 1    
    87   45   46 1    
    88   45   47 1    
    89   45  101 1    
    90   46  102 1    
    91   46  103 1    
    92   46  104 1    
    93   47   48 2    
    94   47   49 am   BACKBONE|DICT|INTERRES
    95   49   50 1    
    96   49  105 1    
    97   50   51 1    
    98   50   52 1    
    99   50  106 1    
   100   51  107 1    
   101   51  108 1    
   102   51  109 1    
   103   52   53 2    
   104   52   54 am   BACKBONE|DICT|INTERRES
   105   54   55 1    
   106   54  110 1    
   107   55   56 1    
   108   55   59 1    
   109   55  111 1    
   110   56   57 am   BACKBONE|DICT|INTERRES
   111   56   58 2    
   112   57  112 1    
   113   57  113 1    
   114   59   60 1    
   115   59  114 1    
   116   59  115 1    
   117   60   61 1    
   118   61  116 1    
   119   61  117 1    
@<TRIPOS>SUBSTRUCTURE
     1 UNK         1 GROUP             0       ****    0 ROOT    
