@<TRIPOS>MOLECULE
3R8
117   119    1
SMALL
USER_CHARGES


@<TRIPOS>ATOM
      1 CA         13.7294  -25.0749  -41.2972 C.3       0 UNK        -0.2013 
      2 C          14.5789  -25.3335  -42.5325 C.2       0 UNK         0.4866 
      3 O          15.1609  -24.3976  -43.0810 O.2       0 UNK        -0.5176 
      4 N          14.6508  -26.5959  -42.9764 N.am      1 UNK        -0.4884 
      5 CA         15.4412  -27.0327  -44.1358 C.3       1 UNK         0.0853 
      6 C6         15.0310  -28.4615  -44.5793 C.3       10 UNK        -0.0849 
      7 S7         15.4443  -28.8199  -46.3201 S.3       10 UNK        -0.2776 
      8 C8         16.5221  -30.2871  -46.1770 C.3       10 UNK         0.0316 
      9 C9         17.9656  -29.9487  -45.8174 C.ar      10 UNK        -0.0863 
     10 C10        18.5564  -30.4806  -44.6648 C.ar      10 UNK        -0.1009 
     11 C11        19.9040  -30.2321  -44.3811 C.ar      10 UNK        -0.0712 
     12 C12        20.6597  -29.4488  -45.2552 C.ar      10 UNK        -0.0894 
     13 C13        20.0739  -28.8782  -46.3870 C.ar      10 UNK        -0.0745 
     14 C14        18.7302  -29.1433  -46.6693 C.ar      10 UNK        -0.0972 
     15 C15        20.8933  -27.9877  -47.3110 C.3       10 UNK         0.0209 
     16 S16        20.9389  -26.2563  -46.7355 S.3       10 UNK        -0.2568 
     17 C17        22.2100  -26.3152  -45.4254 C.3       10 UNK        -0.0983 
     18 CA         21.6825  -25.9258  -44.0192 C.3       3 UNK         0.0876 
     19 N          20.5113  -26.6995  -43.6053 N.am      3 UNK        -0.4424 
     20 C          19.7406  -26.4175  -42.5468 C.2       2 UNK         0.4918 
     21 O          19.8314  -25.3831  -41.8826 O.2       2 UNK        -0.4875 
     22 CA         18.7181  -27.4956  -42.1454 C.3       2 UNK         0.0481 
     23 CB         18.6706  -27.6772  -40.6183 C.3       2 UNK        -0.1831 
     24 N          17.3551  -27.2834  -42.6357 N.am      2 UNK        -0.4498 
     25 C          16.9594  -26.9500  -43.8746 C.2       1 UNK         0.5027 
     26 O          17.7085  -26.6067  -44.7872 O.2       1 UNK        -0.4969 
     27 C          22.7883  -26.1292  -42.9680 C.2       3 UNK         0.5005 
     28 O          23.1586  -27.2790  -42.7120 O.2       3 UNK        -0.5279 
     29 N          23.2931  -25.0331  -42.3844 N.am      4 UNK        -0.4463 
     30 CA         24.2213  -25.0202  -41.2433 C.3       4 UNK         0.0283 
     31 CB         24.4792  -23.5645  -40.8217 C.3       4 UNK        -0.1875 
     32 C          25.5570  -25.7569  -41.4590 C.2       4 UNK         0.4949 
     33 O          26.1910  -26.1472  -40.4789 O.2       4 UNK        -0.5039 
     34 N          25.9523  -25.9517  -42.7242 N.am      5 UNK        -0.4663 
     35 CA         27.1186  -26.7421  -43.1251 C.3       5 UNK         0.0242 
     36 CB         27.4034  -26.4899  -44.6148 C.3       5 UNK        -0.1982 
     37 C          26.9669  -28.2527  -42.8564 C.2       5 UNK         0.5017 
     38 O          27.9849  -28.9368  -42.7438 O.2       5 UNK        -0.5012 
     39 N          25.7220  -28.7424  -42.7678 N.am      6 UNK        -0.4439 
     40 CA         25.3872  -30.1392  -42.4827 C.3       6 UNK         0.0297 
     41 CB         24.5810  -30.7208  -43.6546 C.3       6 UNK        -0.2006 
     42 C          24.6096  -30.2571  -41.1644 C.2       6 UNK         0.4892 
     43 O          24.9793  -31.0752  -40.3212 O.2       6 UNK        -0.5089 
     44 N          23.5752  -29.4180  -41.0043 N.am      7 UNK        -0.4243 
     45 CA         22.6767  -29.2633  -39.8568 C.3       7 UNK         0.0196 
     46 CB         23.4316  -28.7024  -38.6348 C.3       7 UNK        -0.2007 
     47 C          21.8623  -30.5212  -39.5043 C.2       7 UNK         0.5020 
     48 O          20.6477  -30.5370  -39.7032 O.2       7 UNK        -0.5147 
     49 N          22.5316  -31.5447  -38.9659 N.am      8 UNK        -0.4734 
     50 CA         21.9375  -32.7676  -38.4232 C.3       8 UNK         0.0238 
     51 CB         22.8499  -33.2989  -37.3013 C.3       8 UNK        -0.1912 
     52 C          21.6702  -33.8175  -39.5175 C.2       8 UNK         0.5038 
     53 O          22.2196  -34.9198  -39.4598 O.2       8 UNK        -0.5046 
     54 N          20.8353  -33.4565  -40.4987 N.am      9 UNK        -0.4200 
     55 CA         20.4279  -34.3342  -41.6119 C.3       9 UNK         0.0839 
     56 C          19.3463  -35.3897  -41.2388 C.2       9 UNK         0.5513 
     57 N          18.7310  -35.3307  -40.0635 N.am      9 UNK        -0.7519 
     58 O          19.0650  -36.2852  -42.0311 O.2       9 UNK        -0.4960 
     59 C59        20.0101  -33.5326  -42.8721 C.3       10 UNK        -0.0876 
     60 S60        21.3247  -32.3949  -43.4239 S.3       10 UNK        -0.2414 
     61 C61        20.5548  -30.7787  -43.1209 C.3       10 UNK         0.0169 
     62 H62        12.9362  -24.3647  -41.5295 H         1 UNK         0.0903 
     63 H63        13.2673  -25.9870  -40.9199 H         1 UNK         0.0903 
     64 H64        14.3429  -24.6519  -40.5021 H         1 UNK         0.0903 
     65 H65        14.1344  -27.3184  -42.4938 H         1 UNK         0.3096 
     66 H66        15.2179  -26.3417  -44.9525 H         1 UNK         0.1121 
     67 H67        13.9490  -28.5770  -44.4963 H         1 UNK         0.0849 
     68 H68        15.4573  -29.2202  -43.9197 H         1 UNK         0.0849 
     69 H69        16.0907  -30.9892  -45.4617 H         1 UNK         0.0865 
     70 H70        16.5238  -30.8051  -47.1371 H         1 UNK         0.0865 
     71 H71        17.9740  -31.0981  -43.9951 H         1 UNK         0.1346 
     72 H72        21.7040  -29.2739  -45.0409 H         1 UNK         0.1412 
     73 H73        18.2740  -28.7195  -47.5536 H         1 UNK         0.1426 
     74 H74        20.4651  -28.0055  -48.3143 H         1 UNK         0.0716 
     75 H75        21.9082  -28.3751  -47.4129 H         1 UNK         0.0716 
     76 H76        23.0050  -25.6276  -45.7198 H         1 UNK         0.0695 
     77 H77        22.6747  -27.3014  -45.4140 H         1 UNK         0.0695 
     78 H78        21.3937  -24.8728  -44.0419 H         1 UNK         0.0983 
     79 H79        20.3143  -27.5298  -44.1464 H         1 UNK         0.3095 
     80 H80        19.0546  -28.4409  -42.5645 H         1 UNK         0.0454 
     81 H81        18.2344  -26.8098  -40.1215 H         1 UNK         0.0851 
     82 H82        19.6709  -27.8160  -40.2081 H         1 UNK         0.0851 
     83 H83        18.0888  -28.5557  -40.3387 H         1 UNK         0.0851 
     84 H84        16.6217  -27.4896  -41.9740 H         1 UNK         0.2976 
     85 H85        22.9344  -24.1323  -42.6689 H         1 UNK         0.3116 
     86 H86        23.7157  -25.5266  -40.4184 H         1 UNK         0.0646 
     87 H87        24.9507  -22.9905  -41.6204 H         1 UNK         0.0847 
     88 H88        25.1406  -23.5190  -39.9551 H         1 UNK         0.0847 
     89 H89        23.5539  -23.0596  -40.5437 H         1 UNK         0.0847 
     90 H90        25.3730  -25.5826  -43.4640 H         1 UNK         0.3040 
     91 H91        27.9777  -26.3953  -42.5461 H         1 UNK         0.1015 
     92 H92        26.5707  -26.8059  -45.2446 H         1 UNK         0.0786 
     93 H93        28.2865  -27.0408  -44.9420 H         1 UNK         0.0786 
     94 H94        27.5927  -25.4342  -44.8103 H         1 UNK         0.0786 
     95 H95        24.9443  -28.0920  -42.8328 H         1 UNK         0.3172 
     96 H96        26.2951  -30.7366  -42.3762 H         1 UNK         0.0595 
     97 H97        23.6573  -30.1686  -43.8281 H         1 UNK         0.0839 
     98 H98        24.3124  -31.7604  -43.4632 H         1 UNK         0.0839 
     99 H99        25.1586  -30.7016  -44.5787 H         1 UNK         0.0839 
    100 H100       23.3818  -28.7626  -41.7601 H         1 UNK         0.2998 
    101 H101       21.9549  -28.5042  -40.1606 H         1 UNK         0.0822 
    102 H102       23.8925  -27.7419  -38.8664 H         1 UNK         0.0787 
    103 H103       22.7526  -28.5426  -37.7963 H         1 UNK         0.0787 
    104 H104       24.2204  -29.3724  -38.2921 H         1 UNK         0.0787 
    105 H105       23.5456  -31.4919  -38.9888 H         1 UNK         0.3055 
    106 H106       20.9720  -32.5235  -37.9739 H         1 UNK         0.1106 
    107 H107       23.8410  -33.5589  -37.6757 H         1 UNK         0.0828 
    108 H108       22.4277  -34.1944  -36.8433 H         1 UNK         0.0828 
    109 H109       22.9744  -32.5609  -36.5087 H         1 UNK         0.0828 
    110 H110       20.4516  -32.5194  -40.4828 H         1 UNK         0.2931 
    111 H111       21.3072  -34.9159  -41.8963 H         1 UNK         0.0412 
    112 H112       18.9511  -34.6008  -39.4055 H         1 UNK         0.3472 
    113 H113       18.0360  -36.0243  -39.8347 H         1 UNK         0.3472 
    114 H114       19.0825  -32.9877  -42.6913 H         1 UNK         0.0970 
    115 H115       19.7995  -34.2107  -43.7014 H         1 UNK         0.0970 
    116 H116       19.8289  -30.8418  -42.3095 H         1 UNK         0.0612 
    117 H117       21.3240  -30.0870  -42.7751 H         1 UNK         0.0612 
@<TRIPOS>BOND
     1    1    2 1    
     2    1   62 1    
     3    1   63 1    
     4    1   64 1    
     5    2    3 2    
     6    2    4 am   BACKBONE|DICT|INTERRES
     7    4    5 1    
     8    4   65 1    
     9    5    6 1    
    10    5   25 1    
    11    5   66 1    
    12    6    7 1    
    13    6   67 1    
    14    6   68 1    
    15    7    8 1    
    16    8    9 1    
    17    8   69 1    
    18    8   70 1    
    19    9   10 ar   
    20    9   14 ar   
    21   10   11 ar   
    22   10   71 1    
    23   11   12 ar   
    24   11   61 1    
    25   12   13 ar   
    26   12   72 1    
    27   13   14 ar   
    28   13   15 1    
    29   14   73 1    
    30   15   16 1    
    31   15   74 1    
    32   15   75 1    
    33   16   17 1    
    34   17   18 1    
    35   17   76 1    
    36   17   77 1    
    37   18   19 1    
    38   18   27 1    
    39   18   78 1    
    40   19   20 am   BACKBONE|DICT|INTERRES
    41   19   79 1    
    42   20   21 2    
    43   20   22 1    
    44   22   23 1    
    45   22   24 1    
    46   22   80 1    
    47   23   81 1    
    48   23   82 1    
    49   23   83 1    
    50   24   25 am   BACKBONE|DICT|INTERRES
    51   24   84 1    
    52   25   26 2    
    53   27   28 2    
    54   27   29 am   BACKBONE|DICT|INTERRES
    55   29   30 1    
    56   29   85 1    
    57   30   31 1    
    58   30   32 1    
    59   30   86 1    
    60   31   87 1    
    61   31   88 1    
    62   31   89 1    
    63   32   33 2    
    64   32   34 am   BACKBONE|DICT|INTERRES
    65   34   35 1    
    66   34   90 1    
    67   35   36 1    
    68   35   37 1    
    69   35   91 1    
    70   36   92 1    
    71   36   93 1    
    72   36   94 1    
    73   37   38 2    
    74   37   39 am   BACKBONE|DICT|INTERRES
    75   39   40 1    
    76   39   95 1    
    77   40   41 1    
    78   40   42 1    
    79   40   96 1    
    80   41   97 1    
    81   41   98 1    
    82   41   99 1    
    83   42   43 2    
    84   42   44 am   BACKBONE|DICT|INTERRES
    85   44   45 1    
    86   44  100 1    
    87   45   46 1    
    88   45   47 1    
    89   45  101 1    
    90   46  102 1    
    91   46  103 1    
    92   46  104 1    
    93   47   48 2    
    94   47   49 am   BACKBONE|DICT|INTERRES
    95   49   50 1    
    96   49  105 1    
    97   50   51 1    
    98   50   52 1    
    99   50  106 1    
   100   51  107 1    
   101   51  108 1    
   102   51  109 1    
   103   52   53 2    
   104   52   54 am   BACKBONE|DICT|INTERRES
   105   54   55 1    
   106   54  110 1    
   107   55   56 1    
   108   55   59 1    
   109   55  111 1    
   110   56   57 am   BACKBONE|DICT|INTERRES
   111   56   58 2    
   112   57  112 1    
   113   57  113 1    
   114   59   60 1    
   115   59  114 1    
   116   59  115 1    
   117   60   61 1    
   118   61  116 1    
   119   61  117 1    
@<TRIPOS>SUBSTRUCTURE
     1 UNK         1 GROUP             0       ****    0 ROOT    
