@<TRIPOS>MOLECULE
3R8
117   119    1
SMALL
USER_CHARGES


@<TRIPOS>ATOM
      1 CA         18.2571  -28.7358  -41.3327 C.3       0 UNK        -0.2013 
      2 C          17.5172  -27.5719  -41.9688 C.2       0 UNK         0.4866 
      3 O          16.5092  -27.1161  -41.4266 O.2       0 UNK        -0.5176 
      4 N          18.0087  -27.0927  -43.1150 N.am      1 UNK        -0.4884 
      5 CA         17.4198  -25.9949  -43.8786 C.3       1 UNK         0.0853 
      6 C6         16.3196  -26.4809  -44.8656 C.3       10 UNK        -0.0849 
      7 S7         16.8706  -27.6426  -46.1707 S.3       10 UNK        -0.2776 
      8 C8         16.4550  -29.2840  -45.4783 C.3       10 UNK         0.0316 
      9 C9         17.6332  -30.0691  -44.8950 C.ar      10 UNK        -0.0863 
     10 C10        17.3665  -31.0890  -43.9751 C.ar      10 UNK        -0.1009 
     11 C11        18.3951  -31.8936  -43.4779 C.ar      10 UNK        -0.0712 
     12 C12        19.7070  -31.6598  -43.8942 C.ar      10 UNK        -0.0894 
     13 C13        20.0029  -30.6510  -44.8152 C.ar      10 UNK        -0.0745 
     14 C14        18.9560  -29.8628  -45.3143 C.ar      10 UNK        -0.0972 
     15 C15        21.4512  -30.5242  -45.2965 C.3       10 UNK         0.0209 
     16 S16        21.8632  -29.0115  -46.2326 S.3       10 UNK        -0.2568 
     17 C17        22.3828  -27.8967  -44.8909 C.3       10 UNK        -0.0983 
     18 CA         22.5316  -26.4343  -45.3802 C.3       3 UNK         0.0876 
     19 N          21.2525  -25.8947  -45.8487 N.am      3 UNK        -0.4424 
     20 C          21.0495  -24.6889  -46.3961 C.2       2 UNK         0.4918 
     21 O          21.9553  -23.9167  -46.7103 O.2       2 UNK        -0.4875 
     22 CA         19.5839  -24.2508  -46.5947 C.3       2 UNK         0.0481 
     23 CB         19.2018  -24.3282  -48.0813 C.3       2 UNK        -0.1831 
     24 N          18.5944  -25.0039  -45.8097 N.am      2 UNK        -0.4498 
     25 C          18.5596  -25.1485  -44.4765 C.2       1 UNK         0.5027 
     26 O          19.4096  -24.6719  -43.7201 O.2       1 UNK        -0.4969 
     27 C          23.1821  -25.5749  -44.2733 C.2       3 UNK         0.5005 
     28 O          24.4094  -25.5821  -44.1651 O.2       3 UNK        -0.5279 
     29 N          22.3661  -24.8733  -43.4654 N.am      4 UNK        -0.4463 
     30 CA         22.7094  -23.9674  -42.3556 C.3       4 UNK         0.0283 
     31 CB         23.5508  -22.7718  -42.8412 C.3       4 UNK        -0.1875 
     32 C          23.3652  -24.6548  -41.1437 C.2       4 UNK         0.4949 
     33 O          22.9265  -24.4400  -40.0145 O.2       4 UNK        -0.5039 
     34 N          24.3738  -25.4953  -41.3977 N.am      5 UNK        -0.4663 
     35 CA         25.0519  -26.3492  -40.4181 C.3       5 UNK         0.0242 
     36 CB         26.4458  -26.7053  -40.9623 C.3       5 UNK        -0.1982 
     37 C          24.2607  -27.6286  -40.0841 C.2       5 UNK         0.5017 
     38 O          24.6893  -28.3884  -39.2151 O.2       5 UNK        -0.5012 
     39 N          23.1507  -27.8652  -40.7999 N.am      6 UNK        -0.4439 
     40 CA         22.1913  -28.9747  -40.7038 C.3       6 UNK         0.0297 
     41 CB         21.5547  -29.0437  -39.3038 C.3       6 UNK        -0.2006 
     42 C          22.7290  -30.3487  -41.1464 C.2       6 UNK         0.4892 
     43 O          21.9577  -31.1220  -41.7120 O.2       6 UNK        -0.5089 
     44 N          24.0232  -30.6186  -40.9268 N.am      7 UNK        -0.4243 
     45 CA         24.7772  -31.8061  -41.3432 C.3       7 UNK         0.0196 
     46 CB         24.9828  -31.8026  -42.8754 C.3       7 UNK        -0.2007 
     47 C          24.1589  -33.1123  -40.8094 C.2       7 UNK         0.5020 
     48 O          24.4378  -33.4897  -39.6715 O.2       7 UNK        -0.5147 
     49 N          23.3398  -33.7766  -41.6356 N.am      8 UNK        -0.4734 
     50 CA         22.5886  -34.9837  -41.2837 C.3       8 UNK         0.0238 
     51 CB         22.0765  -35.6494  -42.5715 C.3       8 UNK        -0.1912 
     52 C          21.4185  -34.7137  -40.3203 C.2       8 UNK         0.5038 
     53 O          21.0514  -35.6127  -39.5624 O.2       8 UNK        -0.5046 
     54 N          20.8528  -33.5014  -40.3713 N.am      9 UNK        -0.4200 
     55 CA         19.8096  -33.0277  -39.4533 C.3       9 UNK         0.0839 
     56 C          20.4087  -32.5652  -38.0966 C.2       9 UNK         0.5513 
     57 N          19.5984  -32.5376  -37.0478 N.am      9 UNK        -0.7519 
     58 O          21.5769  -32.2000  -37.9867 O.2       9 UNK        -0.4960 
     59 C59        18.9497  -31.9160  -40.1179 C.3       10 UNK        -0.0876 
     60 S60        17.4589  -32.5779  -40.9294 S.3       10 UNK        -0.2414 
     61 C61        18.0821  -33.0726  -42.5649 C.3       10 UNK         0.0169 
     62 H62        17.5497  -29.5296  -41.0958 H         1 UNK         0.0903 
     63 H63        19.0148  -29.1501  -41.9986 H         1 UNK         0.0903 
     64 H64        18.7402  -28.4181  -40.4091 H         1 UNK         0.0903 
     65 H65        18.8416  -27.5015  -43.5139 H         1 UNK         0.3096 
     66 H66        16.9329  -25.3137  -43.1765 H         1 UNK         0.1121 
     67 H67        15.5081  -26.9397  -44.2993 H         1 UNK         0.0849 
     68 H68        15.8587  -25.6210  -45.3551 H         1 UNK         0.0849 
     69 H69        15.6701  -29.1783  -44.7283 H         1 UNK         0.0865 
     70 H70        16.0234  -29.8840  -46.2803 H         1 UNK         0.0865 
     71 H71        16.3481  -31.2839  -43.6669 H         1 UNK         0.1346 
     72 H72        20.5021  -32.2936  -43.5271 H         1 UNK         0.1412 
     73 H73        19.1629  -29.1129  -46.0623 H         1 UNK         0.1426 
     74 H74        21.6647  -31.3797  -45.9385 H         1 UNK         0.0716 
     75 H75        22.1286  -30.6064  -44.4455 H         1 UNK         0.0716 
     76 H76        23.3303  -28.2741  -44.4999 H         1 UNK         0.0695 
     77 H77        21.6614  -27.9632  -44.0740 H         1 UNK         0.0695 
     78 H78        23.2187  -26.4204  -46.2292 H         1 UNK         0.0983 
     79 H79        20.4446  -26.4748  -45.6860 H         1 UNK         0.3095 
     80 H80        19.5182  -23.2080  -46.2789 H         1 UNK         0.0454 
     81 H81        19.2164  -25.3553  -48.4482 H         1 UNK         0.0851 
     82 H82        19.8964  -23.7531  -48.6953 H         1 UNK         0.0851 
     83 H83        18.2060  -23.9216  -48.2583 H         1 UNK         0.0851 
     84 H84        17.8819  -25.4899  -46.3400 H         1 UNK         0.2976 
     85 H85        21.3664  -24.9415  -43.6410 H         1 UNK         0.3116 
     86 H86        21.7550  -23.5690  -42.0069 H         1 UNK         0.0646 
     87 H87        23.7109  -22.0561  -42.0338 H         1 UNK         0.0847 
     88 H88        23.0512  -22.2403  -43.6511 H         1 UNK         0.0847 
     89 H89        24.5337  -23.0789  -43.1992 H         1 UNK         0.0847 
     90 H90        24.6502  -25.5965  -42.3740 H         1 UNK         0.3040 
     91 H91        25.1740  -25.7913  -39.4870 H         1 UNK         0.1015 
     92 H92        27.0355  -25.8092  -41.1571 H         1 UNK         0.0786 
     93 H93        26.3828  -27.2737  -41.8914 H         1 UNK         0.0786 
     94 H94        27.0056  -27.3091  -40.2466 H         1 UNK         0.0786 
     95 H95        22.9356  -27.1742  -41.5036 H         1 UNK         0.3172 
     96 H96        21.3970  -28.7220  -41.4077 H         1 UNK         0.0595 
     97 H97        22.2723  -29.3558  -38.5440 H         1 UNK         0.0839 
     98 H98        20.7368  -29.7621  -39.2846 H         1 UNK         0.0839 
     99 H99        21.1442  -28.0794  -39.0040 H         1 UNK         0.0839 
    100 H100       24.5332  -29.9398  -40.3694 H         1 UNK         0.2998 
    101 H101       25.7625  -31.7226  -40.8816 H         1 UNK         0.0822 
    102 H102       24.0415  -31.7891  -43.4247 H         1 UNK         0.0787 
    103 H103       25.5541  -30.9286  -43.1884 H         1 UNK         0.0787 
    104 H104       25.5416  -32.6822  -43.1981 H         1 UNK         0.0787 
    105 H105       23.1516  -33.3661  -42.5387 H         1 UNK         0.3055 
    106 H106       23.2693  -35.6765  -40.7837 H         1 UNK         0.1106 
    107 H107       21.3974  -34.9975  -43.1225 H         1 UNK         0.0828 
    108 H108       22.8991  -35.9171  -43.2347 H         1 UNK         0.0828 
    109 H109       21.5332  -36.5681  -42.3456 H         1 UNK         0.0828 
    110 H110       21.2736  -32.7932  -40.9649 H         1 UNK         0.2931 
    111 H111       19.1602  -33.8747  -39.2210 H         1 UNK         0.0412 
    112 H112       18.6355  -32.8286  -37.1241 H         1 UNK         0.3472 
    113 H113       19.9595  -32.2294  -36.1583 H         1 UNK         0.3472 
    114 H114       18.5897  -31.1970  -39.3798 H         1 UNK         0.0970 
    115 H115       19.5287  -31.3310  -40.8319 H         1 UNK         0.0970 
    116 H116       18.9548  -33.7139  -42.4379 H         1 UNK         0.0612 
    117 H117       17.3242  -33.6915  -43.0463 H         1 UNK         0.0612 
@<TRIPOS>BOND
     1    1    2 1    
     2    1   62 1    
     3    1   63 1    
     4    1   64 1    
     5    2    3 2    
     6    2    4 am   BACKBONE|DICT|INTERRES
     7    4    5 1    
     8    4   65 1    
     9    5    6 1    
    10    5   25 1    
    11    5   66 1    
    12    6    7 1    
    13    6   67 1    
    14    6   68 1    
    15    7    8 1    
    16    8    9 1    
    17    8   69 1    
    18    8   70 1    
    19    9   10 ar   
    20    9   14 ar   
    21   10   11 ar   
    22   10   71 1    
    23   11   12 ar   
    24   11   61 1    
    25   12   13 ar   
    26   12   72 1    
    27   13   14 ar   
    28   13   15 1    
    29   14   73 1    
    30   15   16 1    
    31   15   74 1    
    32   15   75 1    
    33   16   17 1    
    34   17   18 1    
    35   17   76 1    
    36   17   77 1    
    37   18   19 1    
    38   18   27 1    
    39   18   78 1    
    40   19   20 am   BACKBONE|DICT|INTERRES
    41   19   79 1    
    42   20   21 2    
    43   20   22 1    
    44   22   23 1    
    45   22   24 1    
    46   22   80 1    
    47   23   81 1    
    48   23   82 1    
    49   23   83 1    
    50   24   25 am   BACKBONE|DICT|INTERRES
    51   24   84 1    
    52   25   26 2    
    53   27   28 2    
    54   27   29 am   BACKBONE|DICT|INTERRES
    55   29   30 1    
    56   29   85 1    
    57   30   31 1    
    58   30   32 1    
    59   30   86 1    
    60   31   87 1    
    61   31   88 1    
    62   31   89 1    
    63   32   33 2    
    64   32   34 am   BACKBONE|DICT|INTERRES
    65   34   35 1    
    66   34   90 1    
    67   35   36 1    
    68   35   37 1    
    69   35   91 1    
    70   36   92 1    
    71   36   93 1    
    72   36   94 1    
    73   37   38 2    
    74   37   39 am   BACKBONE|DICT|INTERRES
    75   39   40 1    
    76   39   95 1    
    77   40   41 1    
    78   40   42 1    
    79   40   96 1    
    80   41   97 1    
    81   41   98 1    
    82   41   99 1    
    83   42   43 2    
    84   42   44 am   BACKBONE|DICT|INTERRES
    85   44   45 1    
    86   44  100 1    
    87   45   46 1    
    88   45   47 1    
    89   45  101 1    
    90   46  102 1    
    91   46  103 1    
    92   46  104 1    
    93   47   48 2    
    94   47   49 am   BACKBONE|DICT|INTERRES
    95   49   50 1    
    96   49  105 1    
    97   50   51 1    
    98   50   52 1    
    99   50  106 1    
   100   51  107 1    
   101   51  108 1    
   102   51  109 1    
   103   52   53 2    
   104   52   54 am   BACKBONE|DICT|INTERRES
   105   54   55 1    
   106   54  110 1    
   107   55   56 1    
   108   55   59 1    
   109   55  111 1    
   110   56   57 am   BACKBONE|DICT|INTERRES
   111   56   58 2    
   112   57  112 1    
   113   57  113 1    
   114   59   60 1    
   115   59  114 1    
   116   59  115 1    
   117   60   61 1    
   118   61  116 1    
   119   61  117 1    
@<TRIPOS>SUBSTRUCTURE
     1 UNK         1 GROUP             0       ****    0 ROOT    
