@<TRIPOS>MOLECULE
3R8
117   119    1
SMALL
USER_CHARGES


@<TRIPOS>ATOM
      1 CA         17.4969  -24.9428  -39.2730 C.3       0 UNK        -0.2013 
      2 C          17.3458  -24.7944  -40.7797 C.2       0 UNK         0.4866 
      3 O          16.8976  -23.7483  -41.2509 O.2       0 UNK        -0.5176 
      4 N          17.7066  -25.8374  -41.5366 N.am      1 UNK        -0.4884 
      5 CA         17.6859  -25.8608  -43.0035 C.3       1 UNK         0.0853 
      6 C6         17.8654  -27.2979  -43.5514 C.3       10 UNK        -0.0849 
      7 S7         16.5619  -28.4465  -42.9905 S.3       10 UNK        -0.2776 
      8 C8         16.1875  -29.3615  -44.5222 C.3       10 UNK         0.0316 
      9 C9         17.4001  -30.1335  -45.0235 C.ar      10 UNK        -0.0863 
     10 C10        17.7683  -31.3371  -44.4170 C.ar      10 UNK        -0.1009 
     11 C11        18.8961  -32.0370  -44.8559 C.ar      10 UNK        -0.0712 
     12 C12        19.6614  -31.5192  -45.9067 C.ar      10 UNK        -0.0894 
     13 C13        19.2985  -30.3203  -46.5308 C.ar      10 UNK        -0.0745 
     14 C14        18.1561  -29.6429  -46.0919 C.ar      10 UNK        -0.0972 
     15 C15        20.1188  -29.7891  -47.7043 C.3       10 UNK         0.0209 
     16 S16        20.4394  -27.9927  -47.6265 S.3       10 UNK        -0.2568 
     17 C17        21.5709  -27.8970  -46.2046 C.3       10 UNK        -0.0983 
     18 CA         22.1644  -26.4776  -45.9930 C.3       3 UNK         0.0876 
     19 N          21.1563  -25.5141  -45.5572 N.am      3 UNK        -0.4424 
     20 C          20.5665  -24.5837  -46.3139 C.2       2 UNK         0.4918 
     21 O          20.8077  -24.4271  -47.5121 O.2       2 UNK        -0.4875 
     22 CA         19.5213  -23.6863  -45.6134 C.3       2 UNK         0.0481 
     23 CB         18.7488  -22.7949  -46.6040 C.3       2 UNK        -0.1831 
     24 N          18.5585  -24.4693  -44.8296 N.am      2 UNK        -0.4498 
     25 C          18.7764  -24.9433  -43.5957 C.2       1 UNK         0.5027 
     26 O          19.8205  -24.7396  -42.9716 O.2       1 UNK        -0.4969 
     27 C          23.2355  -26.5341  -44.8959 C.2       3 UNK         0.5005 
     28 O          22.8993  -26.4153  -43.7156 O.2       3 UNK        -0.5279 
     29 N          24.4910  -26.8088  -45.2792 N.am      4 UNK        -0.4463 
     30 CA         25.5971  -27.0756  -44.3460 C.3       4 UNK         0.0283 
     31 CB         26.9171  -27.1654  -45.1279 C.3       4 UNK        -0.1875 
     32 C          25.3835  -28.3485  -43.5015 C.2       4 UNK         0.4949 
     33 O          25.9207  -28.4511  -42.3989 O.2       4 UNK        -0.5039 
     34 N          24.5675  -29.2752  -44.0226 N.am      5 UNK        -0.4663 
     35 CA         24.1259  -30.5032  -43.3634 C.3       5 UNK         0.0242 
     36 CB         23.4696  -31.4136  -44.4135 C.3       5 UNK        -0.1982 
     37 C          23.1707  -30.2786  -42.1755 C.2       5 UNK         0.5017 
     38 O          22.9475  -31.2252  -41.4223 O.2       5 UNK        -0.5012 
     39 N          22.6421  -29.0562  -41.9911 N.am      6 UNK        -0.4439 
     40 CA         21.7114  -28.6811  -40.9145 C.3       6 UNK         0.0297 
     41 CB         21.2731  -27.2221  -41.1042 C.3       6 UNK        -0.2006 
     42 C          22.2388  -28.8931  -39.4811 C.2       6 UNK         0.4892 
     43 O          21.4357  -28.9378  -38.5499 O.2       6 UNK        -0.5089 
     44 N          23.5621  -29.0357  -39.3232 N.am      7 UNK        -0.4243 
     45 CA         24.2102  -29.4412  -38.0748 C.3       7 UNK         0.0196 
     46 CB         25.7196  -29.1722  -38.1868 C.3       7 UNK        -0.2007 
     47 C          23.9536  -30.9169  -37.7063 C.2       7 UNK         0.5020 
     48 O          24.0327  -31.2557  -36.5251 O.2       7 UNK        -0.5147 
     49 N          23.6690  -31.7644  -38.7051 N.am      8 UNK        -0.4734 
     50 CA         23.3931  -33.1936  -38.5447 C.3       8 UNK         0.0238 
     51 CB         24.2784  -33.9906  -39.5178 C.3       8 UNK        -0.1912 
     52 C          21.9107  -33.5153  -38.7862 C.2       8 UNK         0.5038 
     53 O          21.3470  -34.3201  -38.0431 O.2       8 UNK        -0.5046 
     54 N          21.3123  -32.9024  -39.8167 N.am      9 UNK        -0.4200 
     55 CA         19.9005  -33.0647  -40.1961 C.3       9 UNK         0.0839 
     56 C          18.9178  -32.5431  -39.1123 C.2       9 UNK         0.5513 
     57 N          17.7657  -33.1832  -38.9651 N.am      9 UNK        -0.7519 
     58 O          19.1664  -31.5458  -38.4397 O.2       9 UNK        -0.4960 
     59 C59        19.6000  -32.4039  -41.5661 C.3       10 UNK        -0.0876 
     60 S60        20.5431  -33.1693  -42.9284 S.3       10 UNK        -0.2414 
     61 C61        19.2728  -33.3660  -44.2151 C.3       10 UNK         0.0169 
     62 H62        17.8996  -25.9174  -38.9971 H         1 UNK         0.0903 
     63 H63        18.1695  -24.1773  -38.8870 H         1 UNK         0.0903 
     64 H64        16.5298  -24.8249  -38.7850 H         1 UNK         0.0903 
     65 H65        18.0583  -26.6749  -41.0965 H         1 UNK         0.3096 
     66 H66        16.7143  -25.4810  -43.3281 H         1 UNK         0.1121 
     67 H67        17.8667  -27.2750  -44.6418 H         1 UNK         0.0849 
     68 H68        18.8313  -27.7146  -43.2599 H         1 UNK         0.0849 
     69 H69        15.3673  -30.0549  -44.3303 H         1 UNK         0.0865 
     70 H70        15.8259  -28.6673  -45.2826 H         1 UNK         0.0865 
     71 H71        17.1743  -31.7255  -43.6013 H         1 UNK         0.1346 
     72 H72        20.5335  -32.0615  -46.2459 H         1 UNK         0.1412 
     73 H73        17.8624  -28.7230  -46.5785 H         1 UNK         0.1426 
     74 H74        19.5778  -30.0044  -48.6265 H         1 UNK         0.0716 
     75 H75        21.0733  -30.3126  -47.7785 H         1 UNK         0.0716 
     76 H76        21.0357  -28.2301  -45.3124 H         1 UNK         0.0695 
     77 H77        22.3659  -28.6251  -46.3762 H         1 UNK         0.0695 
     78 H78        22.6365  -26.1331  -46.9158 H         1 UNK         0.0983 
     79 H79        20.9780  -25.5109  -44.5574 H         1 UNK         0.3095 
     80 H80        20.0708  -23.0247  -44.9405 H         1 UNK         0.0454 
     81 H81        19.4281  -22.1487  -47.1616 H         1 UNK         0.0851 
     82 H82        18.1915  -23.3868  -47.3310 H         1 UNK         0.0851 
     83 H83        18.0426  -22.1453  -46.0867 H         1 UNK         0.0851 
     84 H84        17.6978  -24.7109  -45.3003 H         1 UNK         0.2976 
     85 H85        24.6987  -26.8936  -46.2648 H         1 UNK         0.3116 
     86 H86        25.6644  -26.2328  -43.6546 H         1 UNK         0.0646 
     87 H87        27.7578  -27.3371  -44.4540 H         1 UNK         0.0847 
     88 H88        27.1232  -26.2416  -45.6688 H         1 UNK         0.0847 
     89 H89        26.9069  -27.9837  -45.8490 H         1 UNK         0.0847 
     90 H90        24.1946  -29.1035  -44.9438 H         1 UNK         0.3040 
     91 H91        25.0101  -31.0106  -42.9712 H         1 UNK         0.1015 
     92 H92        24.1352  -31.5982  -45.2568 H         1 UNK         0.0786 
     93 H93        22.5437  -30.9845  -44.7991 H         1 UNK         0.0786 
     94 H94        23.2242  -32.3853  -43.9835 H         1 UNK         0.0786 
     95 H95        22.8911  -28.3177  -42.6398 H         1 UNK         0.3172 
     96 H96        20.8273  -29.3108  -41.0208 H         1 UNK         0.0595 
     97 H97        20.8094  -27.0736  -42.0779 H         1 UNK         0.0839 
     98 H98        22.1165  -26.5344  -41.0302 H         1 UNK         0.0839 
     99 H99        20.5432  -26.9253  -40.3501 H         1 UNK         0.0839 
    100 H100       24.1509  -28.9579  -40.1408 H         1 UNK         0.2998 
    101 H101       23.8103  -28.8258  -37.2659 H         1 UNK         0.0822 
    102 H102       25.9222  -28.1173  -38.3735 H         1 UNK         0.0787 
    103 H103       26.2339  -29.4413  -37.2630 H         1 UNK         0.0787 
    104 H104       26.1737  -29.7494  -38.9935 H         1 UNK         0.0787 
    105 H105       23.5741  -31.3965  -39.6477 H         1 UNK         0.3055 
    106 H106       23.6353  -33.5154  -37.5293 H         1 UNK         0.1106 
    107 H107       24.0886  -33.7176  -40.5569 H         1 UNK         0.0828 
    108 H108       25.3365  -33.8230  -39.3163 H         1 UNK         0.0828 
    109 H109       24.0964  -35.0620  -39.4230 H         1 UNK         0.0828 
    110 H110       21.8588  -32.2769  -40.4025 H         1 UNK         0.2931 
    111 H111       19.7291  -34.1383  -40.3009 H         1 UNK         0.0412 
    112 H112       17.1060  -32.8522  -38.2781 H         1 UNK         0.3472 
    113 H113       17.5473  -33.9994  -39.5156 H         1 UNK         0.3472 
    114 H114       19.8265  -31.3377  -41.5433 H         1 UNK         0.0970 
    115 H115       18.5351  -32.4808  -41.7894 H         1 UNK         0.0970 
    116 H116       18.3941  -33.8567  -43.7937 H         1 UNK         0.0612 
    117 H117       19.6570  -34.0416  -44.9808 H         1 UNK         0.0612 
@<TRIPOS>BOND
     1    1    2 1    
     2    1   62 1    
     3    1   63 1    
     4    1   64 1    
     5    2    3 2    
     6    2    4 am   BACKBONE|DICT|INTERRES
     7    4    5 1    
     8    4   65 1    
     9    5    6 1    
    10    5   25 1    
    11    5   66 1    
    12    6    7 1    
    13    6   67 1    
    14    6   68 1    
    15    7    8 1    
    16    8    9 1    
    17    8   69 1    
    18    8   70 1    
    19    9   10 ar   
    20    9   14 ar   
    21   10   11 ar   
    22   10   71 1    
    23   11   12 ar   
    24   11   61 1    
    25   12   13 ar   
    26   12   72 1    
    27   13   14 ar   
    28   13   15 1    
    29   14   73 1    
    30   15   16 1    
    31   15   74 1    
    32   15   75 1    
    33   16   17 1    
    34   17   18 1    
    35   17   76 1    
    36   17   77 1    
    37   18   19 1    
    38   18   27 1    
    39   18   78 1    
    40   19   20 am   BACKBONE|DICT|INTERRES
    41   19   79 1    
    42   20   21 2    
    43   20   22 1    
    44   22   23 1    
    45   22   24 1    
    46   22   80 1    
    47   23   81 1    
    48   23   82 1    
    49   23   83 1    
    50   24   25 am   BACKBONE|DICT|INTERRES
    51   24   84 1    
    52   25   26 2    
    53   27   28 2    
    54   27   29 am   BACKBONE|DICT|INTERRES
    55   29   30 1    
    56   29   85 1    
    57   30   31 1    
    58   30   32 1    
    59   30   86 1    
    60   31   87 1    
    61   31   88 1    
    62   31   89 1    
    63   32   33 2    
    64   32   34 am   BACKBONE|DICT|INTERRES
    65   34   35 1    
    66   34   90 1    
    67   35   36 1    
    68   35   37 1    
    69   35   91 1    
    70   36   92 1    
    71   36   93 1    
    72   36   94 1    
    73   37   38 2    
    74   37   39 am   BACKBONE|DICT|INTERRES
    75   39   40 1    
    76   39   95 1    
    77   40   41 1    
    78   40   42 1    
    79   40   96 1    
    80   41   97 1    
    81   41   98 1    
    82   41   99 1    
    83   42   43 2    
    84   42   44 am   BACKBONE|DICT|INTERRES
    85   44   45 1    
    86   44  100 1    
    87   45   46 1    
    88   45   47 1    
    89   45  101 1    
    90   46  102 1    
    91   46  103 1    
    92   46  104 1    
    93   47   48 2    
    94   47   49 am   BACKBONE|DICT|INTERRES
    95   49   50 1    
    96   49  105 1    
    97   50   51 1    
    98   50   52 1    
    99   50  106 1    
   100   51  107 1    
   101   51  108 1    
   102   51  109 1    
   103   52   53 2    
   104   52   54 am   BACKBONE|DICT|INTERRES
   105   54   55 1    
   106   54  110 1    
   107   55   56 1    
   108   55   59 1    
   109   55  111 1    
   110   56   57 am   BACKBONE|DICT|INTERRES
   111   56   58 2    
   112   57  112 1    
   113   57  113 1    
   114   59   60 1    
   115   59  114 1    
   116   59  115 1    
   117   60   61 1    
   118   61  116 1    
   119   61  117 1    
@<TRIPOS>SUBSTRUCTURE
     1 UNK         1 GROUP             0       ****    0 ROOT    
