@<TRIPOS>MOLECULE
3R8
117   119    1
SMALL
USER_CHARGES


@<TRIPOS>ATOM
      1 CA         14.8982  -23.2328  -45.8116 C.3       0 UNK        -0.2013 
      2 C          15.8764  -24.3674  -45.5490 C.2       0 UNK         0.4866 
      3 O          16.6914  -24.6894  -46.4149 O.2       0 UNK        -0.5176 
      4 N          15.8155  -24.9747  -44.3565 N.am      1 UNK        -0.4884 
      5 CA         16.6783  -26.0779  -43.9176 C.3       1 UNK         0.0853 
      6 C6         15.9578  -26.9506  -42.8565 C.3       10 UNK        -0.0849 
      7 S7         16.7525  -28.5753  -42.6333 S.3       10 UNK        -0.2776 
      8 C8         15.9676  -29.5697  -43.9412 C.3       10 UNK         0.0316 
      9 C9         16.9693  -30.5618  -44.5092 C.ar      10 UNK        -0.0863 
     10 C10        17.0113  -31.8813  -44.0485 C.ar      10 UNK        -0.1009 
     11 C11        17.9785  -32.7710  -44.5294 C.ar      10 UNK        -0.0712 
     12 C12        18.9043  -32.3271  -45.4809 C.ar      10 UNK        -0.0894 
     13 C13        18.8642  -31.0135  -45.9620 C.ar      10 UNK        -0.0745 
     14 C14        17.8804  -30.1429  -45.4819 C.ar      10 UNK        -0.0972 
     15 C15        19.8851  -30.5504  -47.0015 C.3       10 UNK         0.0209 
     16 S16        20.5803  -28.8900  -46.6790 S.3       10 UNK        -0.2568 
     17 C17        21.2600  -29.1210  -45.0043 C.3       10 UNK        -0.0983 
     18 CA         21.8811  -27.8410  -44.3941 C.3       3 UNK         0.0876 
     19 N          20.9711  -26.6907  -44.4609 N.am      3 UNK        -0.4424 
     20 C          21.2376  -25.4433  -44.0457 C.2       2 UNK         0.4918 
     21 O          22.2992  -25.1075  -43.5193 O.2       2 UNK        -0.4875 
     22 CA         20.1351  -24.3869  -44.2455 C.3       2 UNK         0.0481 
     23 CB         20.4665  -23.4910  -45.4493 C.3       2 UNK        -0.1831 
     24 N          18.7961  -24.9555  -44.4287 N.am      2 UNK        -0.4498 
     25 C          18.0673  -25.5544  -43.4769 C.2       1 UNK         0.5027 
     26 O          18.4492  -25.6772  -42.3118 O.2       1 UNK        -0.4969 
     27 C          22.3570  -28.1507  -42.9618 C.2       3 UNK         0.5005 
     28 O          23.5029  -28.5675  -42.7846 O.2       3 UNK        -0.5279 
     29 N          21.4832  -27.9197  -41.9696 N.am      4 UNK        -0.4463 
     30 CA         21.6713  -28.2422  -40.5516 C.3       4 UNK         0.0283 
     31 CB         20.4054  -27.8472  -39.7759 C.3       4 UNK        -0.1875 
     32 C          22.9197  -27.6272  -39.8970 C.2       4 UNK         0.4949 
     33 O          23.3976  -28.1647  -38.8988 O.2       4 UNK        -0.5039 
     34 N          23.4491  -26.5455  -40.4836 N.am      5 UNK        -0.4663 
     35 CA         24.7061  -25.9093  -40.0892 C.3       5 UNK         0.0242 
     36 CB         24.8269  -24.5619  -40.8193 C.3       5 UNK        -0.1982 
     37 C          25.9575  -26.7732  -40.3468 C.2       5 UNK         0.5017 
     38 O          26.9845  -26.5152  -39.7175 O.2       5 UNK        -0.5012 
     39 N          25.8683  -27.7562  -41.2563 N.am      6 UNK        -0.4439 
     40 CA         26.9788  -28.6338  -41.6396 C.3       6 UNK         0.0297 
     41 CB         27.5077  -28.2133  -43.0212 C.3       6 UNK        -0.2006 
     42 C          26.5901  -30.1196  -41.6414 C.2       6 UNK         0.4892 
     43 O          27.3872  -30.9462  -41.1971 O.2       6 UNK        -0.5089 
     44 N          25.3928  -30.4434  -42.1458 N.am      7 UNK        -0.4243 
     45 CA         24.9028  -31.8131  -42.3209 C.3       7 UNK         0.0196 
     46 CB         23.9833  -31.8485  -43.5543 C.3       7 UNK        -0.2007 
     47 C          24.1461  -32.3529  -41.0972 C.2       7 UNK         0.5020 
     48 O          23.7703  -33.5252  -41.1076 O.2       7 UNK        -0.5147 
     49 N          23.8732  -31.4968  -40.1007 N.am      8 UNK        -0.4734 
     50 CA         23.0679  -31.7192  -38.8860 C.3       8 UNK         0.0238 
     51 CB         23.6423  -32.8551  -38.0169 C.3       8 UNK        -0.1912 
     52 C          21.5611  -31.9215  -39.1456 C.2       8 UNK         0.5038 
     53 O          20.7513  -31.4100  -38.3724 O.2       8 UNK        -0.5046 
     54 N          21.2116  -32.6309  -40.2250 N.am      9 UNK        -0.4200 
     55 CA         19.8561  -32.7606  -40.7702 C.3       9 UNK         0.0839 
     56 C          19.3076  -31.3916  -41.2502 C.2       9 UNK         0.5513 
     57 N          18.1238  -31.0007  -40.8010 N.am      9 UNK        -0.7519 
     58 O          19.9418  -30.7064  -42.0464 O.2       9 UNK        -0.4960 
     59 C59        19.8239  -33.8157  -41.9072 C.3       10 UNK        -0.0876 
     60 S60        18.1323  -34.4120  -42.2483 S.3       10 UNK        -0.2414 
     61 C61        18.0035  -34.2225  -44.0584 C.3       10 UNK         0.0169 
     62 H62        14.2340  -23.0618  -44.9647 H         1 UNK         0.0903 
     63 H63        15.4405  -22.3089  -46.0096 H         1 UNK         0.0903 
     64 H64        14.2848  -23.4612  -46.6826 H         1 UNK         0.0903 
     65 H65        15.1507  -24.6433  -43.6708 H         1 UNK         0.3096 
     66 H66        16.8567  -26.7167  -44.7860 H         1 UNK         0.1121 
     67 H67        15.9166  -26.4408  -41.8921 H         1 UNK         0.0849 
     68 H68        14.9192  -27.1205  -43.1454 H         1 UNK         0.0849 
     69 H69        15.0970  -30.0853  -43.5330 H         1 UNK         0.0865 
     70 H70        15.5984  -28.9268  -44.7417 H         1 UNK         0.0865 
     71 H71        16.3044  -32.2131  -43.3004 H         1 UNK         0.1346 
     72 H72        19.6542  -33.0101  -45.8557 H         1 UNK         0.1412 
     73 H73        17.8438  -29.1242  -45.8421 H         1 UNK         0.1426 
     74 H74        19.4070  -30.5452  -47.9817 H         1 UNK         0.0716 
     75 H75        20.7124  -31.2589  -47.0651 H         1 UNK         0.0716 
     76 H76        20.4586  -29.4881  -44.3610 H         1 UNK         0.0695 
     77 H77        22.0032  -29.9184  -45.0536 H         1 UNK         0.0695 
     78 H78        22.7671  -27.5792  -44.9761 H         1 UNK         0.0983 
     79 H79        20.0836  -26.8634  -44.9083 H         1 UNK         0.3095 
     80 H80        20.1169  -23.7613  -43.3507 H         1 UNK         0.0454 
     81 H81        21.4458  -23.0247  -45.3320 H         1 UNK         0.0851 
     82 H82        20.4845  -24.0570  -46.3816 H         1 UNK         0.0851 
     83 H83        19.7384  -22.6870  -45.5586 H         1 UNK         0.0851 
     84 H84        18.3677  -24.8514  -45.3443 H         1 UNK         0.2976 
     85 H85        20.5704  -27.5695  -42.2257 H         1 UNK         0.3116 
     86 H86        21.7837  -29.3248  -40.4910 H         1 UNK         0.0646 
     87 H87        20.4925  -28.1167  -38.7224 H         1 UNK         0.0847 
     88 H88        19.5258  -28.3601  -40.1658 H         1 UNK         0.0847 
     89 H89        20.2182  -26.7739  -39.8282 H         1 UNK         0.0847 
     90 H90        22.9946  -26.1814  -41.3111 H         1 UNK         0.3040 
     91 H91        24.6634  -25.7172  -39.0147 H         1 UNK         0.1015 
     92 H92        23.9922  -23.9034  -40.5785 H         1 UNK         0.0786 
     93 H93        24.8493  -24.6914  -41.9024 H         1 UNK         0.0786 
     94 H94        25.7417  -24.0411  -40.5331 H         1 UNK         0.0786 
     95 H95        24.9787  -27.9038  -41.7259 H         1 UNK         0.3172 
     96 H96        27.7982  -28.5338  -40.9248 H         1 UNK         0.0595 
     97 H97        28.3293  -28.8568  -43.3391 H         1 UNK         0.0839 
     98 H98        27.8858  -27.1911  -43.0046 H         1 UNK         0.0839 
     99 H99        26.7318  -28.2706  -43.7856 H         1 UNK         0.0839 
    100 H100       24.7686  -29.7076  -42.4765 H         1 UNK         0.2998 
    101 H101       25.7481  -32.4794  -42.5059 H         1 UNK         0.0822 
    102 H102       23.0679  -31.2800  -43.3864 H         1 UNK         0.0787 
    103 H103       24.4784  -31.4397  -44.4352 H         1 UNK         0.0787 
    104 H104       23.6887  -32.8711  -43.7940 H         1 UNK         0.0787 
    105 H105       24.2161  -30.5527  -40.2139 H         1 UNK         0.3055 
    106 H106       23.1534  -30.7978  -38.3073 H         1 UNK         0.1106 
    107 H107       23.5581  -33.8279  -38.5016 H         1 UNK         0.0828 
    108 H108       24.6937  -32.6847  -37.7862 H         1 UNK         0.0828 
    109 H109       23.1094  -32.9226  -37.0676 H         1 UNK         0.0828 
    110 H110       21.9666  -33.0270  -40.7756 H         1 UNK         0.2931 
    111 H111       19.2313  -33.1236  -39.9512 H         1 UNK         0.0412 
    112 H112       17.7390  -30.1371  -41.1556 H         1 UNK         0.3472 
    113 H113       17.5956  -31.5664  -40.1566 H         1 UNK         0.3472 
    114 H114       20.4157  -34.6878  -41.6248 H         1 UNK         0.0970 
    115 H115       20.2844  -33.4250  -42.8171 H         1 UNK         0.0970 
    116 H116       18.8226  -34.7712  -44.5258 H         1 UNK         0.0612 
    117 H117       17.0845  -34.7072  -44.3902 H         1 UNK         0.0612 
@<TRIPOS>BOND
     1    1    2 1    
     2    1   62 1    
     3    1   63 1    
     4    1   64 1    
     5    2    3 2    
     6    2    4 am   BACKBONE|DICT|INTERRES
     7    4    5 1    
     8    4   65 1    
     9    5    6 1    
    10    5   25 1    
    11    5   66 1    
    12    6    7 1    
    13    6   67 1    
    14    6   68 1    
    15    7    8 1    
    16    8    9 1    
    17    8   69 1    
    18    8   70 1    
    19    9   10 ar   
    20    9   14 ar   
    21   10   11 ar   
    22   10   71 1    
    23   11   12 ar   
    24   11   61 1    
    25   12   13 ar   
    26   12   72 1    
    27   13   14 ar   
    28   13   15 1    
    29   14   73 1    
    30   15   16 1    
    31   15   74 1    
    32   15   75 1    
    33   16   17 1    
    34   17   18 1    
    35   17   76 1    
    36   17   77 1    
    37   18   19 1    
    38   18   27 1    
    39   18   78 1    
    40   19   20 am   BACKBONE|DICT|INTERRES
    41   19   79 1    
    42   20   21 2    
    43   20   22 1    
    44   22   23 1    
    45   22   24 1    
    46   22   80 1    
    47   23   81 1    
    48   23   82 1    
    49   23   83 1    
    50   24   25 am   BACKBONE|DICT|INTERRES
    51   24   84 1    
    52   25   26 2    
    53   27   28 2    
    54   27   29 am   BACKBONE|DICT|INTERRES
    55   29   30 1    
    56   29   85 1    
    57   30   31 1    
    58   30   32 1    
    59   30   86 1    
    60   31   87 1    
    61   31   88 1    
    62   31   89 1    
    63   32   33 2    
    64   32   34 am   BACKBONE|DICT|INTERRES
    65   34   35 1    
    66   34   90 1    
    67   35   36 1    
    68   35   37 1    
    69   35   91 1    
    70   36   92 1    
    71   36   93 1    
    72   36   94 1    
    73   37   38 2    
    74   37   39 am   BACKBONE|DICT|INTERRES
    75   39   40 1    
    76   39   95 1    
    77   40   41 1    
    78   40   42 1    
    79   40   96 1    
    80   41   97 1    
    81   41   98 1    
    82   41   99 1    
    83   42   43 2    
    84   42   44 am   BACKBONE|DICT|INTERRES
    85   44   45 1    
    86   44  100 1    
    87   45   46 1    
    88   45   47 1    
    89   45  101 1    
    90   46  102 1    
    91   46  103 1    
    92   46  104 1    
    93   47   48 2    
    94   47   49 am   BACKBONE|DICT|INTERRES
    95   49   50 1    
    96   49  105 1    
    97   50   51 1    
    98   50   52 1    
    99   50  106 1    
   100   51  107 1    
   101   51  108 1    
   102   51  109 1    
   103   52   53 2    
   104   52   54 am   BACKBONE|DICT|INTERRES
   105   54   55 1    
   106   54  110 1    
   107   55   56 1    
   108   55   59 1    
   109   55  111 1    
   110   56   57 am   BACKBONE|DICT|INTERRES
   111   56   58 2    
   112   57  112 1    
   113   57  113 1    
   114   59   60 1    
   115   59  114 1    
   116   59  115 1    
   117   60   61 1    
   118   61  116 1    
   119   61  117 1    
@<TRIPOS>SUBSTRUCTURE
     1 UNK         1 GROUP             0       ****    0 ROOT    
