@<TRIPOS>MOLECULE
3R8
117   119    1
SMALL
USER_CHARGES


@<TRIPOS>ATOM
      1 CA         16.5978  -24.0258  -41.5356 C.3       0 UNK        -0.2013 
      2 C          15.7223  -24.2605  -42.7580 C.2       0 UNK         0.4866 
      3 O          14.5021  -24.1203  -42.6736 O.2       0 UNK        -0.5176 
      4 N          16.3353  -24.6179  -43.8909 N.am      1 UNK        -0.4884 
      5 CA         15.6632  -24.8405  -45.1728 C.3       1 UNK         0.0853 
      6 C6         14.9246  -26.2116  -45.2590 C.3       10 UNK        -0.0849 
      7 S7         15.9811  -27.7049  -45.1381 S.3       10 UNK        -0.2776 
      8 C8         15.9503  -28.1017  -43.3620 C.3       10 UNK         0.0316 
      9 C9         17.3289  -28.5432  -42.8878 C.ar      10 UNK        -0.0863 
     10 C10        17.8413  -29.7861  -43.2768 C.ar      10 UNK        -0.1009 
     11 C11        19.1148  -30.1890  -42.8646 C.ar      10 UNK        -0.0712 
     12 C12        19.8662  -29.3506  -42.0379 C.ar      10 UNK        -0.0894 
     13 C13        19.3692  -28.1053  -41.6424 C.ar      10 UNK        -0.0745 
     14 C14        18.0988  -27.7072  -42.0716 C.ar      10 UNK        -0.0972 
     15 C15        20.2134  -27.1875  -40.7668 C.3       10 UNK         0.0209 
     16 S16        21.8168  -26.7835  -41.5353 S.3       10 UNK        -0.2568 
     17 C17        21.3032  -25.7796  -42.9693 C.3       10 UNK        -0.0983 
     18 CA         21.1127  -26.6036  -44.2685 C.3       3 UNK         0.0876 
     19 N          20.3971  -25.8219  -45.2764 N.am      3 UNK        -0.4424 
     20 C          19.9322  -26.2869  -46.4432 C.2       2 UNK         0.4918 
     21 O          20.1554  -27.4151  -46.8840 O.2       2 UNK        -0.4875 
     22 CA         18.9244  -25.3694  -47.1454 C.3       2 UNK         0.0481 
     23 CB         18.5828  -25.8221  -48.5793 C.3       2 UNK        -0.1831 
     24 N          17.7419  -25.4000  -46.2939 N.am      2 UNK        -0.4498 
     25 C          16.6830  -24.5868  -46.2983 C.2       1 UNK         0.5027 
     26 O          16.5308  -23.6475  -47.0800 O.2       1 UNK        -0.4969 
     27 C          22.4392  -27.1835  -44.7980 C.2       3 UNK         0.5005 
     28 O          23.3023  -26.4282  -45.2538 O.2       3 UNK        -0.5279 
     29 N          22.5891  -28.5106  -44.6932 N.am      4 UNK        -0.4463 
     30 CA         23.7955  -29.2572  -45.0496 C.3       4 UNK         0.0283 
     31 CB         23.4069  -30.7014  -45.4152 C.3       4 UNK        -0.1875 
     32 C          24.8240  -29.1894  -43.9074 C.2       4 UNK         0.4949 
     33 O          25.1049  -30.2007  -43.2638 O.2       4 UNK        -0.5039 
     34 N          25.3308  -27.9755  -43.6570 N.am      5 UNK        -0.4663 
     35 CA         26.3261  -27.5659  -42.6547 C.3       5 UNK         0.0242 
     36 CB         27.6622  -28.3091  -42.8518 C.3       5 UNK        -0.1982 
     37 C          25.8649  -27.6450  -41.1866 C.2       5 UNK         0.5017 
     38 O          26.2457  -26.7726  -40.4046 O.2       5 UNK        -0.5012 
     39 N          25.0708  -28.6577  -40.8260 N.am      6 UNK        -0.4439 
     40 CA         24.5339  -28.8753  -39.4862 C.3       6 UNK         0.0297 
     41 CB         25.5732  -29.6155  -38.6234 C.3       6 UNK        -0.2006 
     42 C          23.2335  -29.6779  -39.5757 C.2       6 UNK         0.4892 
     43 O          23.0176  -30.3937  -40.5559 O.2       6 UNK        -0.5089 
     44 N          22.4194  -29.5894  -38.5148 N.am      7 UNK        -0.4243 
     45 CA         21.1267  -30.2711  -38.3562 C.3       7 UNK         0.0196 
     46 CB         20.4212  -29.7128  -37.1092 C.3       7 UNK        -0.2007 
     47 C          21.1987  -31.8104  -38.3006 C.2       7 UNK         0.5020 
     48 O          20.1575  -32.4623  -38.3756 O.2       7 UNK        -0.5147 
     49 N          22.4110  -32.3708  -38.1877 N.am      8 UNK        -0.4734 
     50 CA         22.6887  -33.7973  -38.3763 C.3       8 UNK         0.0238 
     51 CB         24.1014  -34.1071  -37.8544 C.3       8 UNK        -0.1912 
     52 C          22.5447  -34.2479  -39.8445 C.2       8 UNK         0.5038 
     53 O          22.3354  -35.4380  -40.0827 O.2       8 UNK        -0.5046 
     54 N          22.6562  -33.3003  -40.7881 N.am      9 UNK        -0.4200 
     55 CA         22.4857  -33.4756  -42.2397 C.3       9 UNK         0.0839 
     56 C          23.5737  -34.3515  -42.9309 C.2       9 UNK         0.5513 
     57 N          24.7210  -34.5937  -42.3081 N.am      9 UNK        -0.7519 
     58 O          23.3920  -34.7958  -44.0617 O.2       9 UNK        -0.4960 
     59 C59        21.0351  -33.8771  -42.6433 C.3       10 UNK        -0.0876 
     60 S60        19.7755  -32.7268  -41.9909 S.3       10 UNK        -0.2414 
     61 C61        19.7053  -31.5081  -43.3363 C.3       10 UNK         0.0169 
     62 H62        17.6570  -24.1539  -41.7584 H         1 UNK         0.0903 
     63 H63        16.4525  -23.0130  -41.1606 H         1 UNK         0.0903 
     64 H64        16.3295  -24.7232  -40.7425 H         1 UNK         0.0903 
     65 H65        17.3435  -24.6710  -43.9191 H         1 UNK         0.3096 
     66 H66        14.9048  -24.0614  -45.2839 H         1 UNK         0.1121 
     67 H67        14.1516  -26.2638  -44.4909 H         1 UNK         0.0849 
     68 H68        14.3852  -26.2696  -46.2060 H         1 UNK         0.0849 
     69 H69        15.6063  -27.2420  -42.7865 H         1 UNK         0.0865 
     70 H70        15.2254  -28.8971  -43.1834 H         1 UNK         0.0865 
     71 H71        17.2541  -30.4286  -43.9189 H         1 UNK         0.1346 
     72 H72        20.8505  -29.6619  -41.7169 H         1 UNK         0.1412 
     73 H73        17.7096  -26.7451  -41.7714 H         1 UNK         0.1426 
     74 H74        20.3962  -27.6775  -39.8106 H         1 UNK         0.0716 
     75 H75        19.6823  -26.2622  -40.5385 H         1 UNK         0.0716 
     76 H76        22.0426  -24.9906  -43.1198 H         1 UNK         0.0695 
     77 H77        20.3750  -25.2691  -42.7075 H         1 UNK         0.0695 
     78 H78        20.4524  -27.4416  -44.0426 H         1 UNK         0.0983 
     79 H79        20.1802  -24.8695  -45.0234 H         1 UNK         0.3095 
     80 H80        19.3304  -24.3563  -47.1728 H         1 UNK         0.0454 
     81 H81        18.1242  -26.8116  -48.5919 H         1 UNK         0.0851 
     82 H82        19.4808  -25.8688  -49.1963 H         1 UNK         0.0851 
     83 H83        17.8943  -25.1295  -49.0631 H         1 UNK         0.0851 
     84 H84        17.7150  -26.1763  -45.6423 H         1 UNK         0.2976 
     85 H85        21.8434  -29.0465  -44.2740 H         1 UNK         0.3116 
     86 H86        24.2511  -28.8046  -45.9331 H         1 UNK         0.0646 
     87 H87        22.9467  -31.2226  -44.5774 H         1 UNK         0.0847 
     88 H88        24.2849  -31.2773  -45.7107 H         1 UNK         0.0847 
     89 H89        22.7079  -30.7258  -46.2514 H         1 UNK         0.0847 
     90 H90        24.9494  -27.2171  -44.2148 H         1 UNK         0.3040 
     91 H91        26.5127  -26.5090  -42.8536 H         1 UNK         0.1015 
     92 H92        27.5702  -29.3765  -42.6488 H         1 UNK         0.0786 
     93 H93        28.4264  -27.9185  -42.1784 H         1 UNK         0.0786 
     94 H94        28.0362  -28.1911  -43.8688 H         1 UNK         0.0786 
     95 H95        24.7917  -29.3396  -41.5290 H         1 UNK         0.3172 
     96 H96        24.3017  -27.9089  -39.0332 H         1 UNK         0.0595 
     97 H97        25.1997  -29.7909  -37.6138 H         1 UNK         0.0839 
     98 H98        26.4930  -29.0383  -38.5274 H         1 UNK         0.0839 
     99 H99        25.8321  -30.5851  -39.0511 H         1 UNK         0.0839 
    100 H100       22.6996  -28.9936  -37.7485 H         1 UNK         0.2998 
    101 H101       20.5176  -30.0281  -39.2285 H         1 UNK         0.0822 
    102 H102       19.4362  -30.1641  -36.9810 H         1 UNK         0.0787 
    103 H103       20.9912  -29.9119  -36.2008 H         1 UNK         0.0787 
    104 H104       20.2717  -28.6356  -37.1854 H         1 UNK         0.0787 
    105 H105       23.2077  -31.7572  -38.1051 H         1 UNK         0.3055 
    106 H106       21.9678  -34.3699  -37.7882 H         1 UNK         0.1106 
    107 H107       24.3321  -35.1681  -37.9608 H         1 UNK         0.0828 
    108 H108       24.8660  -33.5513  -38.3985 H         1 UNK         0.0828 
    109 H109       24.1962  -33.8623  -36.7963 H         1 UNK         0.0828 
    110 H110       22.8222  -32.3406  -40.5011 H         1 UNK         0.2931 
    111 H111       22.6584  -32.4788  -42.6440 H         1 UNK         0.0412 
    112 H112       24.8891  -34.2207  -41.3879 H         1 UNK         0.3472 
    113 H113       25.4245  -35.1518  -42.7657 H         1 UNK         0.3472 
    114 H114       20.9319  -33.9230  -43.7290 H         1 UNK         0.0970 
    115 H115       20.8052  -34.8799  -42.2804 H         1 UNK         0.0970 
    116 H116       19.1294  -31.9216  -44.1656 H         1 UNK         0.0612 
    117 H117       20.7102  -31.3256  -43.7169 H         1 UNK         0.0612 
@<TRIPOS>BOND
     1    1    2 1    
     2    1   62 1    
     3    1   63 1    
     4    1   64 1    
     5    2    3 2    
     6    2    4 am   BACKBONE|DICT|INTERRES
     7    4    5 1    
     8    4   65 1    
     9    5    6 1    
    10    5   25 1    
    11    5   66 1    
    12    6    7 1    
    13    6   67 1    
    14    6   68 1    
    15    7    8 1    
    16    8    9 1    
    17    8   69 1    
    18    8   70 1    
    19    9   10 ar   
    20    9   14 ar   
    21   10   11 ar   
    22   10   71 1    
    23   11   12 ar   
    24   11   61 1    
    25   12   13 ar   
    26   12   72 1    
    27   13   14 ar   
    28   13   15 1    
    29   14   73 1    
    30   15   16 1    
    31   15   74 1    
    32   15   75 1    
    33   16   17 1    
    34   17   18 1    
    35   17   76 1    
    36   17   77 1    
    37   18   19 1    
    38   18   27 1    
    39   18   78 1    
    40   19   20 am   BACKBONE|DICT|INTERRES
    41   19   79 1    
    42   20   21 2    
    43   20   22 1    
    44   22   23 1    
    45   22   24 1    
    46   22   80 1    
    47   23   81 1    
    48   23   82 1    
    49   23   83 1    
    50   24   25 am   BACKBONE|DICT|INTERRES
    51   24   84 1    
    52   25   26 2    
    53   27   28 2    
    54   27   29 am   BACKBONE|DICT|INTERRES
    55   29   30 1    
    56   29   85 1    
    57   30   31 1    
    58   30   32 1    
    59   30   86 1    
    60   31   87 1    
    61   31   88 1    
    62   31   89 1    
    63   32   33 2    
    64   32   34 am   BACKBONE|DICT|INTERRES
    65   34   35 1    
    66   34   90 1    
    67   35   36 1    
    68   35   37 1    
    69   35   91 1    
    70   36   92 1    
    71   36   93 1    
    72   36   94 1    
    73   37   38 2    
    74   37   39 am   BACKBONE|DICT|INTERRES
    75   39   40 1    
    76   39   95 1    
    77   40   41 1    
    78   40   42 1    
    79   40   96 1    
    80   41   97 1    
    81   41   98 1    
    82   41   99 1    
    83   42   43 2    
    84   42   44 am   BACKBONE|DICT|INTERRES
    85   44   45 1    
    86   44  100 1    
    87   45   46 1    
    88   45   47 1    
    89   45  101 1    
    90   46  102 1    
    91   46  103 1    
    92   46  104 1    
    93   47   48 2    
    94   47   49 am   BACKBONE|DICT|INTERRES
    95   49   50 1    
    96   49  105 1    
    97   50   51 1    
    98   50   52 1    
    99   50  106 1    
   100   51  107 1    
   101   51  108 1    
   102   51  109 1    
   103   52   53 2    
   104   52   54 am   BACKBONE|DICT|INTERRES
   105   54   55 1    
   106   54  110 1    
   107   55   56 1    
   108   55   59 1    
   109   55  111 1    
   110   56   57 am   BACKBONE|DICT|INTERRES
   111   56   58 2    
   112   57  112 1    
   113   57  113 1    
   114   59   60 1    
   115   59  114 1    
   116   59  115 1    
   117   60   61 1    
   118   61  116 1    
   119   61  117 1    
@<TRIPOS>SUBSTRUCTURE
     1 UNK         1 GROUP             0       ****    0 ROOT    
