@<TRIPOS>MOLECULE
3R8
117   119    1
SMALL
USER_CHARGES


@<TRIPOS>ATOM
      1 CA         18.6262  -23.3257  -40.5897 C.3       0 UNK        -0.2013 
      2 C          18.6182  -23.5965  -42.0870 C.2       0 UNK         0.4866 
      3 O          18.7280  -22.6620  -42.8811 O.2       0 UNK        -0.5176 
      4 N          18.4873  -24.8705  -42.4748 N.am      1 UNK        -0.4884 
      5 CA         18.5377  -25.3454  -43.8630 C.3       1 UNK         0.0853 
      6 C6         18.0446  -26.8109  -43.9865 C.3       10 UNK        -0.0849 
      7 S7         16.3833  -27.0851  -43.2783 S.3       10 UNK        -0.2776 
      8 C8         15.8994  -28.6713  -44.0410 C.3       10 UNK         0.0316 
      9 C9         16.9680  -29.7441  -43.8746 C.ar      10 UNK        -0.0863 
     10 C10        17.2171  -30.3100  -42.6191 C.ar      10 UNK        -0.1009 
     11 C11        18.2371  -31.2534  -42.4579 C.ar      10 UNK        -0.0712 
     12 C12        18.9996  -31.6351  -43.5638 C.ar      10 UNK        -0.0894 
     13 C13        18.7450  -31.0956  -44.8259 C.ar      10 UNK        -0.0745 
     14 C14        17.7247  -30.1534  -44.9775 C.ar      10 UNK        -0.0972 
     15 C15        19.6008  -31.5090  -46.0140 C.3       10 UNK         0.0209 
     16 S16        20.7137  -30.1721  -46.5513 S.3       10 UNK        -0.2568 
     17 C17        21.6079  -29.8017  -45.0029 C.3       10 UNK        -0.0983 
     18 CA         22.5733  -28.5982  -45.1419 C.3       3 UNK         0.0876 
     19 N          21.8516  -27.4199  -45.6283 N.am      3 UNK        -0.4424 
     20 C          22.3625  -26.3108  -46.1746 C.2       2 UNK         0.4918 
     21 O          23.5640  -26.1497  -46.3923 O.2       2 UNK        -0.4875 
     22 CA         21.3709  -25.1728  -46.4991 C.3       2 UNK         0.0481 
     23 CB         21.0837  -25.1358  -48.0083 C.3       2 UNK        -0.1831 
     24 N          20.0950  -25.2301  -45.7661 N.am      2 UNK        -0.4498 
     25 C          19.9689  -25.2317  -44.4301 C.2       1 UNK         0.5027 
     26 O          20.9340  -25.2265  -43.6620 O.2       1 UNK        -0.4969 
     27 C          23.3234  -28.2986  -43.8195 C.2       3 UNK         0.5005 
     28 O          23.0645  -28.9414  -42.7977 O.2       3 UNK        -0.5279 
     29 N          24.2274  -27.3087  -43.8586 N.am      4 UNK        -0.4463 
     30 CA         25.0877  -26.8340  -42.7681 C.3       4 UNK         0.0283 
     31 CB         26.1371  -27.9088  -42.4093 C.3       4 UNK        -0.1875 
     32 C          24.2948  -26.3359  -41.5429 C.2       4 UNK         0.4949 
     33 O          24.5974  -26.7305  -40.4181 O.2       4 UNK        -0.5039 
     34 N          23.2787  -25.4941  -41.7884 N.am      5 UNK        -0.4663 
     35 CA         22.3175  -24.9643  -40.8072 C.3       5 UNK         0.0242 
     36 CB         23.0140  -24.0889  -39.7424 C.3       5 UNK        -0.1982 
     37 C          21.4340  -26.0747  -40.2042 C.2       5 UNK         0.5017 
     38 O          21.1619  -26.0647  -39.0029 O.2       5 UNK        -0.5012 
     39 N          21.0149  -27.0138  -41.0670 N.am      6 UNK        -0.4439 
     40 CA         20.2490  -28.2315  -40.7679 C.3       6 UNK         0.0297 
     41 CB         18.8298  -27.8877  -40.2649 C.3       6 UNK        -0.2006 
     42 C          20.9859  -29.2064  -39.8254 C.2       6 UNK         0.4892 
     43 O          20.3382  -29.9019  -39.0411 O.2       6 UNK        -0.5089 
     44 N          22.3213  -29.2523  -39.9166 N.am      7 UNK        -0.4243 
     45 CA         23.1587  -30.1776  -39.1527 C.3       7 UNK         0.0196 
     46 CB         24.5014  -29.5133  -38.8151 C.3       7 UNK        -0.2007 
     47 C          23.3923  -31.4869  -39.9154 C.2       7 UNK         0.5020 
     48 O          23.4346  -32.5472  -39.2901 O.2       7 UNK        -0.5147 
     49 N          23.5317  -31.4145  -41.2471 N.am      8 UNK        -0.4734 
     50 CA         23.8305  -32.5623  -42.1089 C.3       8 UNK         0.0238 
     51 CB         24.6464  -32.0874  -43.3257 C.3       8 UNK        -0.1912 
     52 C          22.5572  -33.3439  -42.4860 C.2       8 UNK         0.5038 
     53 O          22.2608  -33.5136  -43.6696 O.2       8 UNK        -0.5046 
     54 N          21.8273  -33.7984  -41.4601 N.am      9 UNK        -0.4200 
     55 CA         20.6269  -34.6448  -41.5652 C.3       9 UNK         0.0839 
     56 C          20.9304  -36.1652  -41.7111 C.2       9 UNK         0.5513 
     57 N          22.1781  -36.6109  -41.6209 N.am      9 UNK        -0.7519 
     58 O          20.0149  -36.9565  -41.9205 O.2       9 UNK        -0.4960 
     59 C59        19.6276  -34.3462  -40.4046 C.3       10 UNK        -0.0876 
     60 S60        18.0732  -33.5971  -40.9977 S.3       10 UNK        -0.2414 
     61 C61        18.5472  -31.8424  -41.0912 C.3       10 UNK         0.0169 
     62 H62        19.5398  -22.8028  -40.3079 H         1 UNK         0.0903 
     63 H63        18.5713  -24.2458  -40.0075 H         1 UNK         0.0903 
     64 H64        17.7770  -22.6996  -40.3169 H         1 UNK         0.0903 
     65 H65        18.3877  -25.5931  -41.7785 H         1 UNK         0.3096 
     66 H66        17.8857  -24.7030  -44.4592 H         1 UNK         0.1121 
     67 H67        18.7370  -27.4945  -43.4903 H         1 UNK         0.0849 
     68 H68        18.0176  -27.1130  -45.0352 H         1 UNK         0.0849 
     69 H69        14.9680  -29.0143  -43.5882 H         1 UNK         0.0865 
     70 H70        15.6801  -28.5046  -45.0968 H         1 UNK         0.0865 
     71 H71        16.6322  -29.9951  -41.7658 H         1 UNK         0.1346 
     72 H72        19.8014  -32.3479  -43.4401 H         1 UNK         0.1412 
     73 H73        17.5420  -29.7209  -45.9519 H         1 UNK         0.1426 
     74 H74        20.1981  -32.3905  -45.7736 H         1 UNK         0.0716 
     75 H75        18.9550  -31.7920  -46.8463 H         1 UNK         0.0716 
     76 H76        22.1380  -30.7041  -44.7006 H         1 UNK         0.0695 
     77 H77        20.8801  -29.5952  -44.2166 H         1 UNK         0.0695 
     78 H78        23.3319  -28.8611  -45.8822 H         1 UNK         0.0983 
     79 H79        20.8515  -27.4556  -45.5108 H         1 UNK         0.3095 
     80 H80        21.8599  -24.2366  -46.2229 H         1 UNK         0.0454 
     81 H81        20.4714  -24.2748  -48.2769 H         1 UNK         0.0851 
     82 H82        20.5664  -26.0358  -48.3433 H         1 UNK         0.0851 
     83 H83        22.0093  -25.0611  -48.5811 H         1 UNK         0.0851 
     84 H84        19.2586  -25.2508  -46.3326 H         1 UNK         0.2976 
     85 H85        24.3137  -26.8107  -44.7415 H         1 UNK         0.3116 
     86 H86        25.6251  -25.9663  -43.1535 H         1 UNK         0.0646 
     87 H87        26.7301  -28.1888  -43.2797 H         1 UNK         0.0847 
     88 H88        26.8306  -27.5431  -41.6511 H         1 UNK         0.0847 
     89 H89        25.6740  -28.8143  -42.0170 H         1 UNK         0.0847 
     90 H90        23.0698  -25.2636  -42.7524 H         1 UNK         0.3040 
     91 H91        21.6420  -24.3097  -41.3588 H         1 UNK         0.1015 
     92 H92        23.6494  -24.6774  -39.0801 H         1 UNK         0.0786 
     93 H93        22.2789  -23.5822  -39.1159 H         1 UNK         0.0786 
     94 H94        23.6312  -23.3183  -40.2040 H         1 UNK         0.0786 
     95 H95        21.3116  -26.9037  -42.0283 H         1 UNK         0.3172 
     96 H96        20.1421  -28.7614  -41.7158 H         1 UNK         0.0595 
     97 H97        18.2977  -27.2493  -40.9651 H         1 UNK         0.0839 
     98 H98        18.8516  -27.3847  -39.2979 H         1 UNK         0.0839 
     99 H99        18.2284  -28.7885  -40.1432 H         1 UNK         0.0839 
    100 H100       22.7805  -28.6805  -40.6159 H         1 UNK         0.2998 
    101 H101       22.6669  -30.4236  -38.2089 H         1 UNK         0.0822 
    102 H102       24.3558  -28.5808  -38.2693 H         1 UNK         0.0787 
    103 H103       25.1122  -30.1651  -38.1892 H         1 UNK         0.0787 
    104 H104       25.0794  -29.2891  -39.7117 H         1 UNK         0.0787 
    105 H105       23.4108  -30.5171  -41.7112 H         1 UNK         0.3055 
    106 H106       24.4670  -33.2606  -41.5601 H         1 UNK         0.1106 
    107 H107       25.5883  -31.6353  -43.0148 H         1 UNK         0.0828 
    108 H108       24.8918  -32.9218  -43.9841 H         1 UNK         0.0828 
    109 H109       24.1089  -31.3512  -43.9186 H         1 UNK         0.0828 
    110 H110       22.1679  -33.6051  -40.5247 H         1 UNK         0.2931 
    111 H111       20.1414  -34.3927  -42.5087 H         1 UNK         0.0412 
    112 H112       22.9402  -35.9758  -41.4482 H         1 UNK         0.3472 
    113 H113       22.3575  -37.5979  -41.7225 H         1 UNK         0.3472 
    114 H114       19.3544  -35.2513  -39.8582 H         1 UNK         0.0970 
    115 H115       20.0689  -33.6952  -39.6477 H         1 UNK         0.0970 
    116 H116       18.0344  -31.2932  -40.3005 H         1 UNK         0.0612 
    117 H117       19.6153  -31.7303  -40.9025 H         1 UNK         0.0612 
@<TRIPOS>BOND
     1    1    2 1    
     2    1   62 1    
     3    1   63 1    
     4    1   64 1    
     5    2    3 2    
     6    2    4 am   BACKBONE|DICT|INTERRES
     7    4    5 1    
     8    4   65 1    
     9    5    6 1    
    10    5   25 1    
    11    5   66 1    
    12    6    7 1    
    13    6   67 1    
    14    6   68 1    
    15    7    8 1    
    16    8    9 1    
    17    8   69 1    
    18    8   70 1    
    19    9   10 ar   
    20    9   14 ar   
    21   10   11 ar   
    22   10   71 1    
    23   11   12 ar   
    24   11   61 1    
    25   12   13 ar   
    26   12   72 1    
    27   13   14 ar   
    28   13   15 1    
    29   14   73 1    
    30   15   16 1    
    31   15   74 1    
    32   15   75 1    
    33   16   17 1    
    34   17   18 1    
    35   17   76 1    
    36   17   77 1    
    37   18   19 1    
    38   18   27 1    
    39   18   78 1    
    40   19   20 am   BACKBONE|DICT|INTERRES
    41   19   79 1    
    42   20   21 2    
    43   20   22 1    
    44   22   23 1    
    45   22   24 1    
    46   22   80 1    
    47   23   81 1    
    48   23   82 1    
    49   23   83 1    
    50   24   25 am   BACKBONE|DICT|INTERRES
    51   24   84 1    
    52   25   26 2    
    53   27   28 2    
    54   27   29 am   BACKBONE|DICT|INTERRES
    55   29   30 1    
    56   29   85 1    
    57   30   31 1    
    58   30   32 1    
    59   30   86 1    
    60   31   87 1    
    61   31   88 1    
    62   31   89 1    
    63   32   33 2    
    64   32   34 am   BACKBONE|DICT|INTERRES
    65   34   35 1    
    66   34   90 1    
    67   35   36 1    
    68   35   37 1    
    69   35   91 1    
    70   36   92 1    
    71   36   93 1    
    72   36   94 1    
    73   37   38 2    
    74   37   39 am   BACKBONE|DICT|INTERRES
    75   39   40 1    
    76   39   95 1    
    77   40   41 1    
    78   40   42 1    
    79   40   96 1    
    80   41   97 1    
    81   41   98 1    
    82   41   99 1    
    83   42   43 2    
    84   42   44 am   BACKBONE|DICT|INTERRES
    85   44   45 1    
    86   44  100 1    
    87   45   46 1    
    88   45   47 1    
    89   45  101 1    
    90   46  102 1    
    91   46  103 1    
    92   46  104 1    
    93   47   48 2    
    94   47   49 am   BACKBONE|DICT|INTERRES
    95   49   50 1    
    96   49  105 1    
    97   50   51 1    
    98   50   52 1    
    99   50  106 1    
   100   51  107 1    
   101   51  108 1    
   102   51  109 1    
   103   52   53 2    
   104   52   54 am   BACKBONE|DICT|INTERRES
   105   54   55 1    
   106   54  110 1    
   107   55   56 1    
   108   55   59 1    
   109   55  111 1    
   110   56   57 am   BACKBONE|DICT|INTERRES
   111   56   58 2    
   112   57  112 1    
   113   57  113 1    
   114   59   60 1    
   115   59  114 1    
   116   59  115 1    
   117   60   61 1    
   118   61  116 1    
   119   61  117 1    
@<TRIPOS>SUBSTRUCTURE
     1 UNK         1 GROUP             0       ****    0 ROOT    
