@<TRIPOS>MOLECULE
3R8
117   119    1
SMALL
USER_CHARGES


@<TRIPOS>ATOM
      1 CA         17.2587  -23.1685  -49.2045 C.3       0 UNK        -0.2013 
      2 C          18.2032  -24.0592  -48.4112 C.2       0 UNK         0.4866 
      3 O          19.1798  -24.5650  -48.9653 O.2       0 UNK        -0.5176 
      4 N          17.9243  -24.2513  -47.1194 N.am      1 UNK        -0.4884 
      5 CA         18.7101  -25.0626  -46.1912 C.3       1 UNK         0.0853 
      6 C6         18.4788  -26.5914  -46.3751 C.3       10 UNK        -0.0849 
      7 S7         16.7445  -27.1204  -46.1355 S.3       10 UNK        -0.2776 
      8 C8         16.8832  -28.9265  -46.3121 C.3       10 UNK         0.0316 
      9 C9         17.5223  -29.5914  -45.0988 C.ar      10 UNK        -0.0863 
     10 C10        18.7697  -30.2130  -45.2095 C.ar      10 UNK        -0.1009 
     11 C11        19.3210  -30.8955  -44.1207 C.ar      10 UNK        -0.0712 
     12 C12        18.6299  -30.9350  -42.9061 C.ar      10 UNK        -0.0894 
     13 C13        17.3843  -30.3131  -42.7811 C.ar      10 UNK        -0.0745 
     14 C14        16.8365  -29.6434  -43.8806 C.ar      10 UNK        -0.0972 
     15 C15        16.5992  -30.4109  -41.4809 C.3       10 UNK         0.0209 
     16 S16        16.6077  -28.8441  -40.5570 S.3       10 UNK        -0.2568 
     17 C17        18.2039  -28.9137  -39.6707 C.3       10 UNK        -0.0983 
     18 CA         19.3682  -28.2046  -40.4089 C.3       3 UNK         0.0876 
     19 N          18.9776  -26.8888  -40.9294 N.am      3 UNK        -0.4424 
     20 C          19.7151  -26.1424  -41.7567 C.2       2 UNK         0.4918 
     21 O          20.8875  -26.3870  -42.0528 O.2       2 UNK        -0.4875 
     22 CA         19.0239  -24.9292  -42.3778 C.3       2 UNK         0.0481 
     23 CB         19.5643  -23.6029  -41.8187 C.3       2 UNK        -0.1831 
     24 N          19.2512  -25.0218  -43.8129 N.am      2 UNK        -0.4498 
     25 C          18.4082  -24.5952  -44.7564 C.2       1 UNK         0.5027 
     26 O          17.4148  -23.8961  -44.5297 O.2       1 UNK        -0.4969 
     27 C          20.6229  -28.1637  -39.5114 C.2       3 UNK         0.5005 
     28 O          21.3637  -29.1454  -39.4666 O.2       3 UNK        -0.5279 
     29 N          20.8301  -27.0338  -38.8187 N.am      4 UNK        -0.4463 
     30 CA         21.9916  -26.7752  -37.9654 C.3       4 UNK         0.0283 
     31 CB         21.5872  -25.7928  -36.8538 C.3       4 UNK        -0.1875 
     32 C          23.2027  -26.2283  -38.7427 C.2       4 UNK         0.4949 
     33 O          24.3249  -26.3470  -38.2501 O.2       4 UNK        -0.5039 
     34 N          22.9694  -25.6214  -39.9165 N.am      5 UNK        -0.4663 
     35 CA         24.0254  -25.1092  -40.7959 C.3       5 UNK         0.0242 
     36 CB         23.4725  -23.9796  -41.6788 C.3       5 UNK        -0.1982 
     37 C          24.6146  -26.2313  -41.6613 C.2       5 UNK         0.5017 
     38 O          25.8308  -26.2787  -41.8513 O.2       5 UNK        -0.5012 
     39 N          23.7402  -27.1196  -42.1523 N.am      6 UNK        -0.4439 
     40 CA         24.1004  -28.3644  -42.8274 C.3       6 UNK         0.0297 
     41 CB         22.8374  -28.9524  -43.4764 C.3       6 UNK        -0.2006 
     42 C          24.7161  -29.3750  -41.8444 C.2       6 UNK         0.4892 
     43 O          24.4326  -29.3259  -40.6456 O.2       6 UNK        -0.5089 
     44 N          25.5060  -30.3184  -42.3710 N.am      7 UNK        -0.4243 
     45 CA         26.1478  -31.3986  -41.6114 C.3       7 UNK         0.0196 
     46 CB         27.3787  -31.8922  -42.3956 C.3       7 UNK        -0.2007 
     47 C          25.1673  -32.5406  -41.2667 C.2       7 UNK         0.5020 
     48 O          25.4580  -33.7048  -41.5469 O.2       7 UNK        -0.5147 
     49 N          24.0047  -32.1847  -40.7010 N.am      8 UNK        -0.4734 
     50 CA         22.8521  -33.0104  -40.3015 C.3       8 UNK         0.0238 
     51 CB         23.2416  -34.0171  -39.2017 C.3       8 UNK        -0.1912 
     52 C          22.1140  -33.7178  -41.4558 C.2       8 UNK         0.5038 
     53 O          20.8845  -33.7464  -41.4392 O.2       8 UNK        -0.5046 
     54 N          22.8737  -34.2690  -42.4098 N.am      9 UNK        -0.4200 
     55 CA         22.4773  -34.9796  -43.6376 C.3       9 UNK         0.0839 
     56 C          21.5886  -36.2510  -43.4711 C.2       9 UNK         0.5513 
     57 N          21.3833  -36.7669  -42.2658 N.am      9 UNK        -0.7519 
     58 O          21.1222  -36.8153  -44.4578 O.2       9 UNK        -0.4960 
     59 C59        22.0467  -34.0245  -44.7904 C.3       10 UNK        -0.0876 
     60 S60        20.3430  -33.3750  -44.6999 S.3       10 UNK        -0.2414 
     61 C61        20.6395  -31.6344  -44.2699 C.3       10 UNK         0.0169 
     62 H62        16.4403  -22.7933  -48.5901 H         1 UNK         0.0903 
     63 H63        17.7994  -22.3133  -49.6087 H         1 UNK         0.0903 
     64 H64        16.8292  -23.7253  -50.0370 H         1 UNK         0.0903 
     65 H65        17.1344  -23.7931  -46.6797 H         1 UNK         0.3096 
     66 H66        19.7658  -24.8473  -46.3734 H         1 UNK         0.1121 
     67 H67        19.1144  -27.1575  -45.6918 H         1 UNK         0.0849 
     68 H68        18.7903  -26.8900  -47.3771 H         1 UNK         0.0849 
     69 H69        15.8834  -29.3401  -46.4525 H         1 UNK         0.0865 
     70 H70        17.4350  -29.1591  -47.2243 H         1 UNK         0.0865 
     71 H71        19.2980  -30.1974  -46.1531 H         1 UNK         0.1346 
     72 H72        19.0509  -31.4784  -42.0704 H         1 UNK         0.1412 
     73 H73        15.8657  -29.1744  -43.7928 H         1 UNK         0.1426 
     74 H74        16.9770  -31.2184  -40.8518 H         1 UNK         0.0716 
     75 H75        15.5649  -30.6703  -41.7117 H         1 UNK         0.0716 
     76 H76        18.4602  -29.9557  -39.4698 H         1 UNK         0.0695 
     77 H77        18.0403  -28.4534  -38.6942 H         1 UNK         0.0695 
     78 H78        19.6319  -28.8123  -41.2769 H         1 UNK         0.0983 
     79 H79        18.0173  -26.6263  -40.7573 H         1 UNK         0.3095 
     80 H80        17.9527  -24.9919  -42.1726 H         1 UNK         0.0454 
     81 H81        20.6152  -23.4572  -42.0620 H         1 UNK         0.0851 
     82 H82        19.4679  -23.5650  -40.7331 H         1 UNK         0.0851 
     83 H83        19.0123  -22.7540  -42.2222 H         1 UNK         0.0851 
     84 H84        20.0434  -25.5983  -44.0674 H         1 UNK         0.2976 
     85 H85        20.1487  -26.2931  -38.9030 H         1 UNK         0.3116 
     86 H86        22.3006  -27.7105  -37.4932 H         1 UNK         0.0646 
     87 H87        21.2709  -24.8302  -37.2577 H         1 UNK         0.0847 
     88 H88        22.4230  -25.6027  -36.1789 H         1 UNK         0.0847 
     89 H89        20.7710  -26.1897  -36.2500 H         1 UNK         0.0847 
     90 H90        22.0277  -25.6133  -40.2825 H         1 UNK         0.3040 
     91 H91        24.8307  -24.6963  -40.1836 H         1 UNK         0.1015 
     92 H92        22.7305  -24.3467  -42.3881 H         1 UNK         0.0786 
     93 H93        24.2721  -23.5194  -42.2607 H         1 UNK         0.0786 
     94 H94        23.0134  -23.1926  -41.0803 H         1 UNK         0.0786 
     95 H95        22.7539  -26.9781  -41.9581 H         1 UNK         0.3172 
     96 H96        24.8305  -28.1376  -43.6071 H         1 UNK         0.0595 
     97 H97        22.0826  -29.2063  -42.7301 H         1 UNK         0.0839 
     98 H98        23.0726  -29.8610  -44.0311 H         1 UNK         0.0839 
     99 H99        22.3867  -28.2516  -44.1795 H         1 UNK         0.0839 
    100 H100       25.6616  -30.3192  -43.3691 H         1 UNK         0.2998 
    101 H101       26.5044  -30.9932  -40.6618 H         1 UNK         0.0822 
    102 H102       28.0808  -31.0800  -42.5850 H         1 UNK         0.0787 
    103 H103       27.9183  -32.6580  -41.8365 H         1 UNK         0.0787 
    104 H104       27.0985  -32.3259  -43.3564 H         1 UNK         0.0787 
    105 H105       23.8901  -31.1867  -40.5358 H         1 UNK         0.3055 
    106 H106       22.1348  -32.3117  -39.8659 H         1 UNK         0.1106 
    107 H107       22.3663  -34.5615  -38.8449 H         1 UNK         0.0828 
    108 H108       23.9595  -34.7565  -39.5580 H         1 UNK         0.0828 
    109 H109       23.6803  -33.5123  -38.3411 H         1 UNK         0.0828 
    110 H110       23.8780  -34.2038  -42.2572 H         1 UNK         0.2931 
    111 H111       23.4260  -35.4034  -43.9692 H         1 UNK         0.0412 
    112 H112       21.7508  -36.3082  -41.4481 H         1 UNK         0.3472 
    113 H113       20.8231  -37.5997  -42.1722 H         1 UNK         0.3472 
    114 H114       22.1336  -34.5521  -45.7418 H         1 UNK         0.0970 
    115 H115       22.7509  -33.1946  -44.8643 H         1 UNK         0.0970 
    116 H116       21.2091  -31.5764  -43.3419 H         1 UNK         0.0612 
    117 H117       21.2487  -31.1691  -45.0460 H         1 UNK         0.0612 
@<TRIPOS>BOND
     1    1    2 1    
     2    1   62 1    
     3    1   63 1    
     4    1   64 1    
     5    2    3 2    
     6    2    4 am   BACKBONE|DICT|INTERRES
     7    4    5 1    
     8    4   65 1    
     9    5    6 1    
    10    5   25 1    
    11    5   66 1    
    12    6    7 1    
    13    6   67 1    
    14    6   68 1    
    15    7    8 1    
    16    8    9 1    
    17    8   69 1    
    18    8   70 1    
    19    9   10 ar   
    20    9   14 ar   
    21   10   11 ar   
    22   10   71 1    
    23   11   12 ar   
    24   11   61 1    
    25   12   13 ar   
    26   12   72 1    
    27   13   14 ar   
    28   13   15 1    
    29   14   73 1    
    30   15   16 1    
    31   15   74 1    
    32   15   75 1    
    33   16   17 1    
    34   17   18 1    
    35   17   76 1    
    36   17   77 1    
    37   18   19 1    
    38   18   27 1    
    39   18   78 1    
    40   19   20 am   BACKBONE|DICT|INTERRES
    41   19   79 1    
    42   20   21 2    
    43   20   22 1    
    44   22   23 1    
    45   22   24 1    
    46   22   80 1    
    47   23   81 1    
    48   23   82 1    
    49   23   83 1    
    50   24   25 am   BACKBONE|DICT|INTERRES
    51   24   84 1    
    52   25   26 2    
    53   27   28 2    
    54   27   29 am   BACKBONE|DICT|INTERRES
    55   29   30 1    
    56   29   85 1    
    57   30   31 1    
    58   30   32 1    
    59   30   86 1    
    60   31   87 1    
    61   31   88 1    
    62   31   89 1    
    63   32   33 2    
    64   32   34 am   BACKBONE|DICT|INTERRES
    65   34   35 1    
    66   34   90 1    
    67   35   36 1    
    68   35   37 1    
    69   35   91 1    
    70   36   92 1    
    71   36   93 1    
    72   36   94 1    
    73   37   38 2    
    74   37   39 am   BACKBONE|DICT|INTERRES
    75   39   40 1    
    76   39   95 1    
    77   40   41 1    
    78   40   42 1    
    79   40   96 1    
    80   41   97 1    
    81   41   98 1    
    82   41   99 1    
    83   42   43 2    
    84   42   44 am   BACKBONE|DICT|INTERRES
    85   44   45 1    
    86   44  100 1    
    87   45   46 1    
    88   45   47 1    
    89   45  101 1    
    90   46  102 1    
    91   46  103 1    
    92   46  104 1    
    93   47   48 2    
    94   47   49 am   BACKBONE|DICT|INTERRES
    95   49   50 1    
    96   49  105 1    
    97   50   51 1    
    98   50   52 1    
    99   50  106 1    
   100   51  107 1    
   101   51  108 1    
   102   51  109 1    
   103   52   53 2    
   104   52   54 am   BACKBONE|DICT|INTERRES
   105   54   55 1    
   106   54  110 1    
   107   55   56 1    
   108   55   59 1    
   109   55  111 1    
   110   56   57 am   BACKBONE|DICT|INTERRES
   111   56   58 2    
   112   57  112 1    
   113   57  113 1    
   114   59   60 1    
   115   59  114 1    
   116   59  115 1    
   117   60   61 1    
   118   61  116 1    
   119   61  117 1    
@<TRIPOS>SUBSTRUCTURE
     1 UNK         1 GROUP             0       ****    0 ROOT    
