@<TRIPOS>MOLECULE
3R8
117   119    1
SMALL
USER_CHARGES


@<TRIPOS>ATOM
      1 CA         17.3011  -21.4884  -48.3341 C.3       0 UNK        -0.2013 
      2 C          18.2883  -22.2798  -47.4890 C.2       0 UNK         0.4866 
      3 O          19.2447  -21.7061  -46.9666 O.2       0 UNK        -0.5176 
      4 N          18.0699  -23.5943  -47.3565 N.am      1 UNK        -0.4884 
      5 CA         18.8763  -24.4927  -46.5240 C.3       1 UNK         0.0853 
      6 C6         18.6469  -25.9747  -46.9211 C.3       10 UNK        -0.0849 
      7 S7         20.0738  -27.0428  -46.5228 S.3       10 UNK        -0.2776 
      8 C8         19.5745  -28.6244  -47.2880 C.3       10 UNK         0.0316 
      9 C9         18.9041  -29.5419  -46.2755 C.ar      10 UNK        -0.0863 
     10 C10        19.6177  -30.5942  -45.6926 C.ar      10 UNK        -0.1009 
     11 C11        19.0273  -31.4009  -44.7139 C.ar      10 UNK        -0.0712 
     12 C12        17.7174  -31.1326  -44.3000 C.ar      10 UNK        -0.0894 
     13 C13        16.9994  -30.0729  -44.8685 C.ar      10 UNK        -0.0745 
     14 C14        17.5815  -29.3149  -45.8887 C.ar      10 UNK        -0.0972 
     15 C15        15.6452  -29.6589  -44.3096 C.3       10 UNK         0.0209 
     16 S16        15.7331  -28.0101  -43.5158 S.3       10 UNK        -0.2568 
     17 C17        16.8991  -28.3079  -42.1422 C.3       10 UNK        -0.0983 
     18 CA         18.3822  -28.0854  -42.5601 C.3       3 UNK         0.0876 
     19 N          18.7362  -26.7163  -42.9252 N.am      3 UNK        -0.4424 
     20 C          18.8603  -25.6637  -42.1086 C.2       2 UNK         0.4918 
     21 O          18.5516  -25.6768  -40.9165 O.2       2 UNK        -0.4875 
     22 CA         19.4818  -24.3880  -42.7139 C.3       2 UNK         0.0481 
     23 CB         20.8790  -24.1500  -42.1155 C.3       2 UNK        -0.1831 
     24 N          19.5967  -24.4344  -44.1775 N.am      2 UNK        -0.4498 
     25 C          18.5751  -24.2622  -45.0273 C.2       1 UNK         0.5027 
     26 O          17.4277  -23.9835  -44.6690 O.2       1 UNK        -0.4969 
     27 C          19.4341  -28.6834  -41.6139 C.2       3 UNK         0.5005 
     28 O          20.6045  -28.6705  -41.9867 O.2       3 UNK        -0.5279 
     29 N          19.0232  -29.2048  -40.4484 N.am      4 UNK        -0.4463 
     30 CA         19.7904  -30.0890  -39.5588 C.3       4 UNK         0.0283 
     31 CB         18.9759  -30.3397  -38.2795 C.3       4 UNK        -0.1875 
     32 C          21.2279  -29.6670  -39.1954 C.2       4 UNK         0.4949 
     33 O          22.0359  -30.5379  -38.8728 O.2       4 UNK        -0.5039 
     34 N          21.5258  -28.3633  -39.2472 N.am      5 UNK        -0.4663 
     35 CA         22.8657  -27.8113  -39.0476 C.3       5 UNK         0.0242 
     36 CB         22.7446  -26.3087  -38.7470 C.3       5 UNK        -0.1982 
     37 C          23.8166  -28.0393  -40.2390 C.2       5 UNK         0.5017 
     38 O          25.0283  -28.0881  -40.0226 O.2       5 UNK        -0.5012 
     39 N          23.2805  -28.1591  -41.4639 N.am      6 UNK        -0.4439 
     40 CA         24.0387  -28.2978  -42.7110 C.3       6 UNK         0.0297 
     41 CB         23.0966  -28.1216  -43.9159 C.3       6 UNK        -0.2006 
     42 C          24.7630  -29.6502  -42.7599 C.2       6 UNK         0.4892 
     43 O          24.1175  -30.6812  -42.9487 O.2       6 UNK        -0.5089 
     44 N          26.0816  -29.6208  -42.5144 N.am      7 UNK        -0.4243 
     45 CA         26.9745  -30.7796  -42.3576 C.3       7 UNK         0.0196 
     46 CB         27.1585  -31.5093  -43.7056 C.3       7 UNK        -0.2007 
     47 C          26.5476  -31.7368  -41.2217 C.2       7 UNK         0.5020 
     48 O          26.8970  -32.9175  -41.2580 O.2       7 UNK        -0.5147 
     49 N          25.7956  -31.2083  -40.2424 N.am      8 UNK        -0.4734 
     50 CA         25.1648  -31.9129  -39.1213 C.3       8 UNK         0.0238 
     51 CB         26.2337  -32.3824  -38.1107 C.3       8 UNK        -0.1912 
     52 C          24.2126  -33.0472  -39.5635 C.2       8 UNK         0.5038 
     53 O          24.2136  -34.1117  -38.9408 O.2       8 UNK        -0.5046 
     54 N          23.4263  -32.8172  -40.6286 N.am      9 UNK        -0.4200 
     55 CA         22.4485  -33.7856  -41.1576 C.3       9 UNK         0.0839 
     56 C          21.2354  -34.1038  -40.2326 C.2       9 UNK         0.5513 
     57 N          20.9886  -33.3485  -39.1693 N.am      9 UNK        -0.7519 
     58 O          20.5177  -35.0705  -40.4770 O.2       9 UNK        -0.4960 
     59 C59        22.0234  -33.4625  -42.6159 C.3       10 UNK        -0.0876 
     60 S60        20.9639  -31.9849  -42.8115 S.3       10 UNK        -0.2414 
     61 C61        19.8160  -32.5533  -44.1056 C.3       10 UNK         0.0169 
     62 H62        17.8183  -21.0081  -49.1643 H         1 UNK         0.0903 
     63 H63        16.5157  -22.1222  -48.7455 H         1 UNK         0.0903 
     64 H64        16.8297  -20.7126  -47.7314 H         1 UNK         0.0903 
     65 H65        17.2473  -24.0035  -47.7768 H         1 UNK         0.3096 
     66 H66        19.9240  -24.2405  -46.7072 H         1 UNK         0.1121 
     67 H67        18.4932  -26.0466  -47.9993 H         1 UNK         0.0849 
     68 H68        17.7393  -26.3706  -46.4631 H         1 UNK         0.0849 
     69 H69        18.9097  -28.4489  -48.1350 H         1 UNK         0.0865 
     70 H70        20.4631  -29.1061  -47.6990 H         1 UNK         0.0865 
     71 H71        20.6423  -30.7787  -45.9861 H         1 UNK         0.1346 
     72 H72        17.2736  -31.7245  -43.5112 H         1 UNK         0.1412 
     73 H73        17.0254  -28.4965  -46.3225 H         1 UNK         0.1426 
     74 H74        15.2764  -30.3902  -43.5887 H         1 UNK         0.0716 
     75 H75        14.9156  -29.6265  -45.1199 H         1 UNK         0.0716 
     76 H76        16.7346  -29.3307  -41.7988 H         1 UNK         0.0695 
     77 H77        16.6300  -27.6546  -41.3108 H         1 UNK         0.0695 
     78 H78        18.5640  -28.6383  -43.4742 H         1 UNK         0.0983 
     79 H79        19.0529  -26.6029  -43.8765 H         1 UNK         0.3095 
     80 H80        18.8433  -23.5462  -42.4383 H         1 UNK         0.0454 
     81 H81        21.5601  -24.9733  -42.3362 H         1 UNK         0.0851 
     82 H82        20.8275  -24.0540  -41.0301 H         1 UNK         0.0851 
     83 H83        21.3247  -23.2314  -42.4973 H         1 UNK         0.0851 
     84 H84        20.5059  -24.6696  -44.5512 H         1 UNK         0.2976 
     85 H85        18.0454  -29.1035  -40.2185 H         1 UNK         0.3116 
     86 H86        19.8766  -31.0363  -40.0921 H         1 UNK         0.0646 
     87 H87        18.0140  -30.8014  -38.5022 H         1 UNK         0.0847 
     88 H88        19.5038  -31.0136  -37.6031 H         1 UNK         0.0847 
     89 H89        18.7889  -29.4137  -37.7344 H         1 UNK         0.0847 
     90 H90        20.8020  -27.7244  -39.5442 H         1 UNK         0.3040 
     91 H91        23.3123  -28.2990  -38.1779 H         1 UNK         0.1015 
     92 H92        22.2902  -25.7662  -39.5770 H         1 UNK         0.0786 
     93 H93        23.7254  -25.8663  -38.5660 H         1 UNK         0.0786 
     94 H94        22.1410  -26.1292  -37.8570 H         1 UNK         0.0786 
     95 H95        22.2664  -28.2421  -41.5530 H         1 UNK         0.3172 
     96 H96        24.7777  -27.4946  -42.7468 H         1 UNK         0.0595 
     97 H97        22.3444  -28.9109  -43.9621 H         1 UNK         0.0839 
     98 H98        23.6529  -28.1523  -44.8532 H         1 UNK         0.0839 
     99 H99        22.5725  -27.1666  -43.8784 H         1 UNK         0.0839 
    100 H100       26.5015  -28.7215  -42.3199 H         1 UNK         0.2998 
    101 H101       27.9455  -30.3794  -42.0624 H         1 UNK         0.0822 
    102 H102       27.9277  -32.2792  -43.6338 H         1 UNK         0.0787 
    103 H103       26.2389  -31.9985  -44.0287 H         1 UNK         0.0787 
    104 H104       27.4659  -30.8197  -44.4918 H         1 UNK         0.0787 
    105 H105       25.5794  -30.2199  -40.3099 H         1 UNK         0.3055 
    106 H106       24.5402  -31.1782  -38.6119 H         1 UNK         0.1106 
    107 H107       25.7698  -32.7920  -37.2125 H         1 UNK         0.0828 
    108 H108       26.8732  -33.1600  -38.5294 H         1 UNK         0.0828 
    109 H109       26.8714  -31.5569  -37.7950 H         1 UNK         0.0828 
    110 H110       23.4839  -31.9306  -41.1142 H         1 UNK         0.2931 
    111 H111       22.9933  -34.7297  -41.2214 H         1 UNK         0.0412 
    112 H112       20.2132  -33.5790  -38.5696 H         1 UNK         0.3472 
    113 H113       21.5500  -32.5249  -38.9873 H         1 UNK         0.3472 
    114 H114       21.5101  -34.3273  -43.0402 H         1 UNK         0.0970 
    115 H115       22.9114  -33.3209  -43.2341 H         1 UNK         0.0970 
    116 H116       19.1418  -33.3001  -43.6833 H         1 UNK         0.0612 
    117 H117       20.3803  -33.0550  -44.8933 H         1 UNK         0.0612 
@<TRIPOS>BOND
     1    1    2 1    
     2    1   62 1    
     3    1   63 1    
     4    1   64 1    
     5    2    3 2    
     6    2    4 am   BACKBONE|DICT|INTERRES
     7    4    5 1    
     8    4   65 1    
     9    5    6 1    
    10    5   25 1    
    11    5   66 1    
    12    6    7 1    
    13    6   67 1    
    14    6   68 1    
    15    7    8 1    
    16    8    9 1    
    17    8   69 1    
    18    8   70 1    
    19    9   10 ar   
    20    9   14 ar   
    21   10   11 ar   
    22   10   71 1    
    23   11   12 ar   
    24   11   61 1    
    25   12   13 ar   
    26   12   72 1    
    27   13   14 ar   
    28   13   15 1    
    29   14   73 1    
    30   15   16 1    
    31   15   74 1    
    32   15   75 1    
    33   16   17 1    
    34   17   18 1    
    35   17   76 1    
    36   17   77 1    
    37   18   19 1    
    38   18   27 1    
    39   18   78 1    
    40   19   20 am   BACKBONE|DICT|INTERRES
    41   19   79 1    
    42   20   21 2    
    43   20   22 1    
    44   22   23 1    
    45   22   24 1    
    46   22   80 1    
    47   23   81 1    
    48   23   82 1    
    49   23   83 1    
    50   24   25 am   BACKBONE|DICT|INTERRES
    51   24   84 1    
    52   25   26 2    
    53   27   28 2    
    54   27   29 am   BACKBONE|DICT|INTERRES
    55   29   30 1    
    56   29   85 1    
    57   30   31 1    
    58   30   32 1    
    59   30   86 1    
    60   31   87 1    
    61   31   88 1    
    62   31   89 1    
    63   32   33 2    
    64   32   34 am   BACKBONE|DICT|INTERRES
    65   34   35 1    
    66   34   90 1    
    67   35   36 1    
    68   35   37 1    
    69   35   91 1    
    70   36   92 1    
    71   36   93 1    
    72   36   94 1    
    73   37   38 2    
    74   37   39 am   BACKBONE|DICT|INTERRES
    75   39   40 1    
    76   39   95 1    
    77   40   41 1    
    78   40   42 1    
    79   40   96 1    
    80   41   97 1    
    81   41   98 1    
    82   41   99 1    
    83   42   43 2    
    84   42   44 am   BACKBONE|DICT|INTERRES
    85   44   45 1    
    86   44  100 1    
    87   45   46 1    
    88   45   47 1    
    89   45  101 1    
    90   46  102 1    
    91   46  103 1    
    92   46  104 1    
    93   47   48 2    
    94   47   49 am   BACKBONE|DICT|INTERRES
    95   49   50 1    
    96   49  105 1    
    97   50   51 1    
    98   50   52 1    
    99   50  106 1    
   100   51  107 1    
   101   51  108 1    
   102   51  109 1    
   103   52   53 2    
   104   52   54 am   BACKBONE|DICT|INTERRES
   105   54   55 1    
   106   54  110 1    
   107   55   56 1    
   108   55   59 1    
   109   55  111 1    
   110   56   57 am   BACKBONE|DICT|INTERRES
   111   56   58 2    
   112   57  112 1    
   113   57  113 1    
   114   59   60 1    
   115   59  114 1    
   116   59  115 1    
   117   60   61 1    
   118   61  116 1    
   119   61  117 1    
@<TRIPOS>SUBSTRUCTURE
     1 UNK         1 GROUP             0       ****    0 ROOT    
