@<TRIPOS>MOLECULE
3R8
117   119    1
SMALL
USER_CHARGES


@<TRIPOS>ATOM
      1 CA         12.5316  -24.9555  -43.6344 C.3       0 UNK        -0.2013 
      2 C          13.7506  -25.6951  -44.1657 C.2       0 UNK         0.4866 
      3 O          13.8045  -26.0030  -45.3568 O.2       0 UNK        -0.5176 
      4 N          14.7190  -25.9844  -43.2888 N.am      1 UNK        -0.4884 
      5 CA         15.9798  -26.6534  -43.6189 C.3       1 UNK         0.0853 
      6 C6         16.2802  -27.8436  -42.6660 C.3       10 UNK        -0.0849 
      7 S7         14.9920  -29.1393  -42.6805 S.3       10 UNK        -0.2776 
      8 C8         15.0412  -29.7549  -44.3992 C.3       10 UNK         0.0316 
      9 C9         16.4445  -30.1390  -44.8499 C.ar      10 UNK        -0.0863 
     10 C10        17.1488  -31.1442  -44.1819 C.ar      10 UNK        -0.1009 
     11 C11        18.4466  -31.4870  -44.5714 C.ar      10 UNK        -0.0712 
     12 C12        19.0250  -30.8378  -45.6691 C.ar      10 UNK        -0.0894 
     13 C13        18.3406  -29.8139  -46.3299 C.ar      10 UNK        -0.0745 
     14 C14        17.0460  -29.4779  -45.9246 C.ar      10 UNK        -0.0972 
     15 C15        19.0015  -29.0547  -47.4706 C.3       10 UNK         0.0209 
     16 S16        19.4936  -27.3741  -46.9655 S.3       10 UNK        -0.2568 
     17 C17        20.9634  -27.7036  -45.9364 C.3       10 UNK        -0.0983 
     18 CA         21.3723  -26.4663  -45.0989 C.3       3 UNK         0.0876 
     19 N          20.3344  -26.0779  -44.1374 N.am      3 UNK        -0.4424 
     20 C          20.2089  -24.8560  -43.6025 C.2       2 UNK         0.4918 
     21 O          20.9104  -23.8956  -43.9239 O.2       2 UNK        -0.4875 
     22 CA         19.1438  -24.6971  -42.4987 C.3       2 UNK         0.0481 
     23 CB         18.6933  -23.2338  -42.3001 C.3       2 UNK        -0.1831 
     24 N          17.9938  -25.5967  -42.6635 N.am      2 UNK        -0.4498 
     25 C          17.0890  -25.5843  -43.6561 C.2       1 UNK         0.5027 
     26 O          17.0962  -24.7666  -44.5776 O.2       1 UNK        -0.4969 
     27 C          22.7299  -26.6925  -44.3981 C.2       3 UNK         0.5005 
     28 O          23.7663  -26.5947  -45.0550 O.2       3 UNK        -0.5279 
     29 N          22.7010  -26.9839  -43.0855 N.am      4 UNK        -0.4463 
     30 CA         23.8332  -27.1176  -42.1534 C.3       4 UNK         0.0283 
     31 CB         24.6067  -25.7879  -42.0407 C.3       4 UNK        -0.1875 
     32 C          24.7828  -28.3052  -42.4113 C.2       4 UNK         0.4949 
     33 O          25.7800  -28.4352  -41.6988 O.2       4 UNK        -0.5039 
     34 N          24.4626  -29.1631  -43.3904 N.am      5 UNK        -0.4663 
     35 CA         25.2172  -30.3627  -43.7600 C.3       5 UNK         0.0242 
     36 CB         24.5175  -31.0682  -44.9315 C.3       5 UNK        -0.1982 
     37 C          25.4003  -31.3199  -42.5705 C.2       5 UNK         0.5017 
     38 O          24.4200  -31.6504  -41.8950 O.2       5 UNK        -0.5012 
     39 N          26.6657  -31.6816  -42.3077 N.am      6 UNK        -0.4439 
     40 CA         27.1565  -32.5082  -41.1939 C.3       6 UNK         0.0297 
     41 CB         26.6651  -33.9625  -41.3579 C.3       6 UNK        -0.2006 
     42 C          26.8358  -31.9545  -39.7869 C.2       6 UNK         0.4892 
     43 O          26.9382  -32.7033  -38.8145 O.2       6 UNK        -0.5089 
     44 N          26.4102  -30.6816  -39.7050 N.am      7 UNK        -0.4243 
     45 CA         25.7844  -30.0163  -38.5532 C.3       7 UNK         0.0196 
     46 CB         26.7729  -29.8884  -37.3749 C.3       7 UNK        -0.2007 
     47 C          24.4378  -30.6458  -38.1273 C.2       7 UNK         0.5020 
     48 O          23.9315  -30.3168  -37.0540 O.2       7 UNK        -0.5147 
     49 N          23.8721  -31.5256  -38.9653 N.am      8 UNK        -0.4734 
     50 CA         22.6177  -32.2368  -38.7234 C.3       8 UNK         0.0238 
     51 CB         22.7357  -33.6664  -39.2777 C.3       8 UNK        -0.1912 
     52 C          21.4389  -31.5062  -39.3745 C.2       8 UNK         0.5038 
     53 O          20.3718  -31.4183  -38.7669 O.2       8 UNK        -0.5046 
     54 N          21.6607  -30.9808  -40.5853 N.am      9 UNK        -0.4200 
     55 CA         20.6734  -30.2311  -41.3760 C.3       9 UNK         0.0839 
     56 C          20.5503  -28.7262  -40.9872 C.2       9 UNK         0.5513 
     57 N          21.0498  -28.2878  -39.8396 N.am      9 UNK        -0.7519 
     58 O          20.0235  -27.9263  -41.7585 O.2       9 UNK        -0.4960 
     59 C59        20.9209  -30.4029  -42.8937 C.3       10 UNK        -0.0876 
     60 S60        20.9675  -32.1401  -43.4622 S.3       10 UNK        -0.2414 
     61 C61        19.2107  -32.5390  -43.7713 C.3       10 UNK         0.0169 
     62 H62        11.6315  -25.5454  -43.8053 H         1 UNK         0.0903 
     63 H63        12.6076  -24.7561  -42.5656 H         1 UNK         0.0903 
     64 H64        12.4174  -24.0022  -44.1498 H         1 UNK         0.0903 
     65 H65        14.6218  -25.6865  -42.3281 H         1 UNK         0.3096 
     66 H66        15.9380  -27.0499  -44.6344 H         1 UNK         0.1121 
     67 H67        17.2364  -28.3087  -42.9153 H         1 UNK         0.0849 
     68 H68        16.3682  -27.5009  -41.6335 H         1 UNK         0.0849 
     69 H69        14.3930  -30.6288  -44.4775 H         1 UNK         0.0865 
     70 H70        14.6093  -29.0013  -45.0596 H         1 UNK         0.0865 
     71 H71        16.6893  -31.6423  -43.3388 H         1 UNK         0.1346 
     72 H72        20.0271  -31.0995  -45.9800 H         1 UNK         0.1412 
     73 H73        16.5165  -28.6889  -46.4416 H         1 UNK         0.1426 
     74 H74        18.3022  -28.9810  -48.3047 H         1 UNK         0.0716 
     75 H75        19.8728  -29.5919  -47.8484 H         1 UNK         0.0716 
     76 H76        21.7731  -28.0025  -46.6052 H         1 UNK         0.0695 
     77 H77        20.7670  -28.5572  -45.2889 H         1 UNK         0.0695 
     78 H78        21.5206  -25.6336  -45.7907 H         1 UNK         0.0983 
     79 H79        19.7336  -26.8136  -43.7920 H         1 UNK         0.3095 
     80 H80        19.6312  -25.0112  -41.5747 H         1 UNK         0.0454 
     81 H81        19.5349  -22.6019  -42.0141 H         1 UNK         0.0851 
     82 H82        17.9466  -23.1512  -41.5107 H         1 UNK         0.0851 
     83 H83        18.2685  -22.8108  -43.2107 H         1 UNK         0.0851 
     84 H84        17.9248  -26.3236  -41.9639 H         1 UNK         0.2976 
     85 H85        21.7852  -27.0638  -42.6575 H         1 UNK         0.3116 
     86 H86        23.3881  -27.3124  -41.1772 H         1 UNK         0.0646 
     87 H87        25.1360  -25.5471  -42.9630 H         1 UNK         0.0847 
     88 H88        23.9387  -24.9579  -41.8105 H         1 UNK         0.0847 
     89 H89        25.3506  -25.8320  -41.2442 H         1 UNK         0.0847 
     90 H90        23.6496  -28.9520  -43.9470 H         1 UNK         0.3040 
     91 H91        26.1989  -30.0287  -44.1024 H         1 UNK         0.1015 
     92 H92        25.0798  -31.9474  -45.2490 H         1 UNK         0.0786 
     93 H93        24.4286  -30.4113  -45.7971 H         1 UNK         0.0786 
     94 H94        23.5174  -31.4047  -44.6614 H         1 UNK         0.0786 
     95 H95        27.3898  -31.3188  -42.9135 H         1 UNK         0.3172 
     96 H96        28.2445  -32.5131  -41.2744 H         1 UNK         0.0595 
     97 H97        25.5860  -34.0427  -41.2207 H         1 UNK         0.0839 
     98 H98        27.1341  -34.6224  -40.6270 H         1 UNK         0.0839 
     99 H99        26.9073  -34.3552  -42.3453 H         1 UNK         0.0839 
    100 H100       26.3719  -30.1437  -40.5648 H         1 UNK         0.2998 
    101 H101       25.5445  -29.0068  -38.8907 H         1 UNK         0.0822 
    102 H102       26.3639  -29.2519  -36.5893 H         1 UNK         0.0787 
    103 H103       27.7146  -29.4418  -37.6937 H         1 UNK         0.0787 
    104 H104       26.9949  -30.8553  -36.9227 H         1 UNK         0.0787 
    105 H105       24.3236  -31.6989  -39.8575 H         1 UNK         0.3055 
    106 H106       22.4258  -32.2998  -37.6496 H         1 UNK         0.1106 
    107 H107       23.5488  -34.2104  -38.7966 H         1 UNK         0.0828 
    108 H108       21.8186  -34.2303  -39.1014 H         1 UNK         0.0828 
    109 H109       22.9212  -33.6718  -40.3530 H         1 UNK         0.0828 
    110 H110       22.5650  -31.1231  -41.0203 H         1 UNK         0.2931 
    111 H111       19.6892  -30.6568  -41.1723 H         1 UNK         0.0412 
    112 H112       21.4628  -28.9316  -39.1843 H         1 UNK         0.3472 
    113 H113       20.9574  -27.3138  -39.6003 H         1 UNK         0.3472 
    114 H114       20.1655  -29.8568  -43.4554 H         1 UNK         0.0970 
    115 H115       21.8718  -29.9490  -43.1663 H         1 UNK         0.0970 
    116 H116       19.1564  -33.4907  -44.3008 H         1 UNK         0.0612 
    117 H117       18.7334  -32.6967  -42.8028 H         1 UNK         0.0612 
@<TRIPOS>BOND
     1    1    2 1    
     2    1   62 1    
     3    1   63 1    
     4    1   64 1    
     5    2    3 2    
     6    2    4 am   BACKBONE|DICT|INTERRES
     7    4    5 1    
     8    4   65 1    
     9    5    6 1    
    10    5   25 1    
    11    5   66 1    
    12    6    7 1    
    13    6   67 1    
    14    6   68 1    
    15    7    8 1    
    16    8    9 1    
    17    8   69 1    
    18    8   70 1    
    19    9   10 ar   
    20    9   14 ar   
    21   10   11 ar   
    22   10   71 1    
    23   11   12 ar   
    24   11   61 1    
    25   12   13 ar   
    26   12   72 1    
    27   13   14 ar   
    28   13   15 1    
    29   14   73 1    
    30   15   16 1    
    31   15   74 1    
    32   15   75 1    
    33   16   17 1    
    34   17   18 1    
    35   17   76 1    
    36   17   77 1    
    37   18   19 1    
    38   18   27 1    
    39   18   78 1    
    40   19   20 am   BACKBONE|DICT|INTERRES
    41   19   79 1    
    42   20   21 2    
    43   20   22 1    
    44   22   23 1    
    45   22   24 1    
    46   22   80 1    
    47   23   81 1    
    48   23   82 1    
    49   23   83 1    
    50   24   25 am   BACKBONE|DICT|INTERRES
    51   24   84 1    
    52   25   26 2    
    53   27   28 2    
    54   27   29 am   BACKBONE|DICT|INTERRES
    55   29   30 1    
    56   29   85 1    
    57   30   31 1    
    58   30   32 1    
    59   30   86 1    
    60   31   87 1    
    61   31   88 1    
    62   31   89 1    
    63   32   33 2    
    64   32   34 am   BACKBONE|DICT|INTERRES
    65   34   35 1    
    66   34   90 1    
    67   35   36 1    
    68   35   37 1    
    69   35   91 1    
    70   36   92 1    
    71   36   93 1    
    72   36   94 1    
    73   37   38 2    
    74   37   39 am   BACKBONE|DICT|INTERRES
    75   39   40 1    
    76   39   95 1    
    77   40   41 1    
    78   40   42 1    
    79   40   96 1    
    80   41   97 1    
    81   41   98 1    
    82   41   99 1    
    83   42   43 2    
    84   42   44 am   BACKBONE|DICT|INTERRES
    85   44   45 1    
    86   44  100 1    
    87   45   46 1    
    88   45   47 1    
    89   45  101 1    
    90   46  102 1    
    91   46  103 1    
    92   46  104 1    
    93   47   48 2    
    94   47   49 am   BACKBONE|DICT|INTERRES
    95   49   50 1    
    96   49  105 1    
    97   50   51 1    
    98   50   52 1    
    99   50  106 1    
   100   51  107 1    
   101   51  108 1    
   102   51  109 1    
   103   52   53 2    
   104   52   54 am   BACKBONE|DICT|INTERRES
   105   54   55 1    
   106   54  110 1    
   107   55   56 1    
   108   55   59 1    
   109   55  111 1    
   110   56   57 am   BACKBONE|DICT|INTERRES
   111   56   58 2    
   112   57  112 1    
   113   57  113 1    
   114   59   60 1    
   115   59  114 1    
   116   59  115 1    
   117   60   61 1    
   118   61  116 1    
   119   61  117 1    
@<TRIPOS>SUBSTRUCTURE
     1 UNK         1 GROUP             0       ****    0 ROOT    
