@<TRIPOS>MOLECULE
3R8
117   119    1
SMALL
USER_CHARGES


@<TRIPOS>ATOM
      1 CA         16.5577  -27.9687  -42.7665 C.3       0 UNK        -0.2013 
      2 C          16.3120  -27.2815  -44.0989 C.2       0 UNK         0.4866 
      3 O          15.3593  -26.5106  -44.2230 O.2       0 UNK        -0.5176 
      4 N          17.1635  -27.5364  -45.1007 N.am      1 UNK        -0.4884 
      5 CA         17.0302  -27.0296  -46.4754 C.3       1 UNK         0.0853 
      6 C6         17.6626  -27.9855  -47.5254 C.3       10 UNK        -0.0849 
      7 S7         17.1606  -29.7326  -47.3161 S.3       10 UNK        -0.2776 
      8 C8         18.7541  -30.5645  -46.9950 C.3       10 UNK         0.0316 
      9 C9         19.4334  -30.0608  -45.7278 C.ar      10 UNK        -0.0863 
     10 C10        19.0376  -30.5339  -44.4732 C.ar      10 UNK        -0.1009 
     11 C11        19.6627  -30.0692  -43.3113 C.ar      10 UNK        -0.0712 
     12 C12        20.6800  -29.1148  -43.4099 C.ar      10 UNK        -0.0894 
     13 C13        21.0732  -28.6216  -44.6571 C.ar      10 UNK        -0.0745 
     14 C14        20.4643  -29.1206  -45.8114 C.ar      10 UNK        -0.0972 
     15 C15        22.1546  -27.5548  -44.7704 C.3       10 UNK         0.0209 
     16 S16        21.4990  -26.0245  -45.5142 S.3       10 UNK        -0.2568 
     17 C17        21.7419  -24.7652  -44.2106 C.3       10 UNK        -0.0983 
     18 CA         20.5006  -24.4797  -43.3161 C.3       3 UNK         0.0876 
     19 N          19.2605  -24.2998  -44.0636 N.am      3 UNK        -0.4424 
     20 C          18.9190  -23.2577  -44.8263 C.2       2 UNK         0.4918 
     21 O          19.6404  -22.2740  -44.9998 O.2       2 UNK        -0.4875 
     22 CA         17.5194  -23.3173  -45.4775 C.3       2 UNK         0.0481 
     23 CB         17.4023  -22.4360  -46.7393 C.3       2 UNK        -0.1831 
     24 N          17.0616  -24.6918  -45.7286 N.am      2 UNK        -0.4498 
     25 C          17.5780  -25.5870  -46.5852 C.2       1 UNK         0.5027 
     26 O          18.4629  -25.3217  -47.4003 O.2       1 UNK        -0.4969 
     27 C          20.2531  -25.5826  -42.2739 C.2       3 UNK         0.5005 
     28 O          19.2618  -26.3093  -42.3791 O.2       3 UNK        -0.5279 
     29 N          21.1491  -25.6872  -41.2861 N.am      4 UNK        -0.4463 
     30 CA         21.1013  -26.6911  -40.2185 C.3       4 UNK         0.0283 
     31 CB         20.2731  -26.1602  -39.0326 C.3       4 UNK        -0.1875 
     32 C          22.5161  -27.1316  -39.8047 C.2       4 UNK         0.4949 
     33 O          22.7119  -27.5607  -38.6677 O.2       4 UNK        -0.5039 
     34 N          23.4824  -27.0263  -40.7256 N.am      5 UNK        -0.4663 
     35 CA         24.8978  -27.3217  -40.4951 C.3       5 UNK         0.0242 
     36 CB         25.6865  -25.9980  -40.4507 C.3       5 UNK        -0.1982 
     37 C          25.4174  -28.2955  -41.5633 C.2       5 UNK         0.5017 
     38 O          26.4306  -28.0214  -42.2090 O.2       5 UNK        -0.5012 
     39 N          24.7051  -29.4130  -41.7423 N.am      6 UNK        -0.4439 
     40 CA         25.0617  -30.5000  -42.6490 C.3       6 UNK         0.0297 
     41 CB         24.5494  -30.1930  -44.0677 C.3       6 UNK        -0.2006 
     42 C          24.4603  -31.8093  -42.1293 C.2       6 UNK         0.4892 
     43 O          23.5155  -31.7732  -41.3336 O.2       6 UNK        -0.5089 
     44 N          25.0136  -32.9276  -42.6222 N.am      7 UNK        -0.4243 
     45 CA         24.6123  -34.3294  -42.4351 C.3       7 UNK         0.0196 
     46 CB         23.2285  -34.5921  -43.0659 C.3       7 UNK        -0.2007 
     47 C          24.6695  -34.8318  -40.9819 C.2       7 UNK         0.5020 
     48 O          25.4532  -35.7304  -40.6766 O.2       7 UNK        -0.5147 
     49 N          23.8266  -34.2434  -40.1331 N.am      8 UNK        -0.4734 
     50 CA         23.5948  -34.5343  -38.7164 C.3       8 UNK         0.0238 
     51 CB         23.1814  -36.0041  -38.4903 C.3       8 UNK        -0.1912 
     52 C          22.4993  -33.6031  -38.1780 C.2       8 UNK         0.5038 
     53 O          22.5437  -33.2318  -37.0050 O.2       8 UNK        -0.5046 
     54 N          21.5429  -33.2447  -39.0467 N.am      9 UNK        -0.4200 
     55 CA         20.4499  -32.3003  -38.7819 C.3       9 UNK         0.0839 
     56 C          20.8913  -30.8234  -38.5712 C.2       9 UNK         0.5513 
     57 N          22.0703  -30.4147  -39.0229 N.am      9 UNK        -0.7519 
     58 O          20.1524  -30.0450  -37.9748 O.2       9 UNK        -0.4960 
     59 C59        19.3307  -32.4267  -39.8490 C.3       10 UNK        -0.0876 
     60 S60        19.9221  -32.1972  -41.5651 S.3       10 UNK        -0.2414 
     61 C61        19.2129  -30.5699  -41.9476 C.3       10 UNK         0.0169 
     62 H62        16.4133  -27.2654  -41.9468 H         1 UNK         0.0903 
     63 H63        15.8670  -28.8006  -42.6346 H         1 UNK         0.0903 
     64 H64        17.5747  -28.3472  -42.6987 H         1 UNK         0.0903 
     65 H65        17.9471  -28.1586  -44.9460 H         1 UNK         0.3096 
     66 H66        15.9650  -26.9701  -46.7113 H         1 UNK         0.1121 
     67 H67        17.3672  -27.6749  -48.5292 H         1 UNK         0.0849 
     68 H68        18.7492  -27.9133  -47.5119 H         1 UNK         0.0849 
     69 H69        18.5799  -31.6382  -46.9105 H         1 UNK         0.0865 
     70 H70        19.4081  -30.4339  -47.8587 H         1 UNK         0.0865 
     71 H71        18.2423  -31.2634  -44.3997 H         1 UNK         0.1346 
     72 H72        21.1570  -28.7480  -42.5135 H         1 UNK         0.1412 
     73 H73        20.7826  -28.7515  -46.7769 H         1 UNK         0.1426 
     74 H74        22.6014  -27.3497  -43.7976 H         1 UNK         0.0716 
     75 H75        22.9590  -27.9303  -45.4038 H         1 UNK         0.0716 
     76 H76        22.6187  -25.0148  -43.6116 H         1 UNK         0.0695 
     77 H77        22.0126  -23.8421  -44.7251 H         1 UNK         0.0695 
     78 H78        20.6804  -23.5580  -42.7584 H         1 UNK         0.0983 
     79 H79        18.6132  -25.0684  -43.9388 H         1 UNK         0.3095 
     80 H80        16.8308  -22.9109  -44.7357 H         1 UNK         0.0454 
     81 H81        18.1317  -22.7140  -47.5003 H         1 UNK         0.0851 
     82 H82        16.4093  -22.5055  -47.1828 H         1 UNK         0.0851 
     83 H83        17.5749  -21.3865  -46.4981 H         1 UNK         0.0851 
     84 H84        16.3392  -25.0396  -45.1028 H         1 UNK         0.2976 
     85 H85        21.9147  -25.0277  -41.2382 H         1 UNK         0.3116 
     86 H86        20.6078  -27.5916  -40.5882 H         1 UNK         0.0646 
     87 H87        20.1764  -26.9164  -38.2519 H         1 UNK         0.0847 
     88 H88        19.2632  -25.8917  -39.3428 H         1 UNK         0.0847 
     89 H89        20.7331  -25.2798  -38.5830 H         1 UNK         0.0847 
     90 H90        23.2380  -26.7351  -41.6605 H         1 UNK         0.3040 
     91 H91        25.0367  -27.8251  -39.5356 H         1 UNK         0.1015 
     92 H92        25.3179  -25.3453  -39.6591 H         1 UNK         0.0786 
     93 H93        25.6168  -25.4541  -41.3935 H         1 UNK         0.0786 
     94 H94        26.7441  -26.1777  -40.2527 H         1 UNK         0.0786 
     95 H95        23.9003  -29.6025  -41.1584 H         1 UNK         0.3172 
     96 H96        26.1484  -30.6088  -42.6683 H         1 UNK         0.0595 
     97 H97        24.8592  -30.9638  -44.7742 H         1 UNK         0.0839 
     98 H98        24.9376  -29.2440  -44.4374 H         1 UNK         0.0839 
     99 H99        23.4606  -30.1490  -44.0959 H         1 UNK         0.0839 
    100 H100       25.8077  -32.8064  -43.2358 H         1 UNK         0.2998 
    101 H101       25.3379  -34.9231  -42.9939 H         1 UNK         0.0822 
    102 H102       23.2363  -34.3758  -44.1341 H         1 UNK         0.0787 
    103 H103       22.9379  -35.6372  -42.9499 H         1 UNK         0.0787 
    104 H104       22.4444  -33.9846  -42.6127 H         1 UNK         0.0787 
    105 H105       23.3755  -33.4027  -40.4902 H         1 UNK         0.3055 
    106 H106       24.5153  -34.3272  -38.1670 H         1 UNK         0.1106 
    107 H107       22.9113  -36.1777  -37.4476 H         1 UNK         0.0828 
    108 H108       22.3206  -36.2793  -39.1005 H         1 UNK         0.0828 
    109 H109       23.9917  -36.6943  -38.7228 H         1 UNK         0.0828 
    110 H110       21.5724  -33.6111  -39.9862 H         1 UNK         0.2931 
    111 H111       20.0084  -32.6076  -37.8318 H         1 UNK         0.0412 
    112 H112       22.3573  -29.4614  -38.8322 H         1 UNK         0.3472 
    113 H113       22.6432  -31.0310  -39.5841 H         1 UNK         0.3472 
    114 H114       18.5126  -31.7360  -39.6351 H         1 UNK         0.0970 
    115 H115       18.8869  -33.4214  -39.7866 H         1 UNK         0.0970 
    116 H116       19.4977  -29.8583  -41.1710 H         1 UNK         0.0612 
    117 H117       18.1246  -30.6401  -41.9207 H         1 UNK         0.0612 
@<TRIPOS>BOND
     1    1    2 1    
     2    1   62 1    
     3    1   63 1    
     4    1   64 1    
     5    2    3 2    
     6    2    4 am   BACKBONE|DICT|INTERRES
     7    4    5 1    
     8    4   65 1    
     9    5    6 1    
    10    5   25 1    
    11    5   66 1    
    12    6    7 1    
    13    6   67 1    
    14    6   68 1    
    15    7    8 1    
    16    8    9 1    
    17    8   69 1    
    18    8   70 1    
    19    9   10 ar   
    20    9   14 ar   
    21   10   11 ar   
    22   10   71 1    
    23   11   12 ar   
    24   11   61 1    
    25   12   13 ar   
    26   12   72 1    
    27   13   14 ar   
    28   13   15 1    
    29   14   73 1    
    30   15   16 1    
    31   15   74 1    
    32   15   75 1    
    33   16   17 1    
    34   17   18 1    
    35   17   76 1    
    36   17   77 1    
    37   18   19 1    
    38   18   27 1    
    39   18   78 1    
    40   19   20 am   BACKBONE|DICT|INTERRES
    41   19   79 1    
    42   20   21 2    
    43   20   22 1    
    44   22   23 1    
    45   22   24 1    
    46   22   80 1    
    47   23   81 1    
    48   23   82 1    
    49   23   83 1    
    50   24   25 am   BACKBONE|DICT|INTERRES
    51   24   84 1    
    52   25   26 2    
    53   27   28 2    
    54   27   29 am   BACKBONE|DICT|INTERRES
    55   29   30 1    
    56   29   85 1    
    57   30   31 1    
    58   30   32 1    
    59   30   86 1    
    60   31   87 1    
    61   31   88 1    
    62   31   89 1    
    63   32   33 2    
    64   32   34 am   BACKBONE|DICT|INTERRES
    65   34   35 1    
    66   34   90 1    
    67   35   36 1    
    68   35   37 1    
    69   35   91 1    
    70   36   92 1    
    71   36   93 1    
    72   36   94 1    
    73   37   38 2    
    74   37   39 am   BACKBONE|DICT|INTERRES
    75   39   40 1    
    76   39   95 1    
    77   40   41 1    
    78   40   42 1    
    79   40   96 1    
    80   41   97 1    
    81   41   98 1    
    82   41   99 1    
    83   42   43 2    
    84   42   44 am   BACKBONE|DICT|INTERRES
    85   44   45 1    
    86   44  100 1    
    87   45   46 1    
    88   45   47 1    
    89   45  101 1    
    90   46  102 1    
    91   46  103 1    
    92   46  104 1    
    93   47   48 2    
    94   47   49 am   BACKBONE|DICT|INTERRES
    95   49   50 1    
    96   49  105 1    
    97   50   51 1    
    98   50   52 1    
    99   50  106 1    
   100   51  107 1    
   101   51  108 1    
   102   51  109 1    
   103   52   53 2    
   104   52   54 am   BACKBONE|DICT|INTERRES
   105   54   55 1    
   106   54  110 1    
   107   55   56 1    
   108   55   59 1    
   109   55  111 1    
   110   56   57 am   BACKBONE|DICT|INTERRES
   111   56   58 2    
   112   57  112 1    
   113   57  113 1    
   114   59   60 1    
   115   59  114 1    
   116   59  115 1    
   117   60   61 1    
   118   61  116 1    
   119   61  117 1    
@<TRIPOS>SUBSTRUCTURE
     1 UNK         1 GROUP             0       ****    0 ROOT    
