@<TRIPOS>MOLECULE
3R8
117   119    1
SMALL
USER_CHARGES


@<TRIPOS>ATOM
      1 CA         13.7928  -23.5583  -43.3284 C.3       0 UNK        -0.2013 
      2 C          14.7358  -24.3842  -44.1903 C.2       0 UNK         0.4866 
      3 O          15.4893  -23.8217  -44.9847 O.2       0 UNK        -0.5176 
      4 N          14.6993  -25.7155  -44.0412 N.am      1 UNK        -0.4884 
      5 CA         15.5514  -26.6618  -44.7756 C.3       1 UNK         0.0853 
      6 C6         14.9668  -28.0968  -44.7111 C.3       10 UNK        -0.0849 
      7 S7         15.5835  -29.1799  -46.0464 S.3       10 UNK        -0.2776 
      8 C8         16.1957  -30.6290  -45.1253 C.3       10 UNK         0.0316 
      9 C9         17.4716  -30.3467  -44.3399 C.ar      10 UNK        -0.0863 
     10 C10        17.4280  -30.2133  -42.9492 C.ar      10 UNK        -0.1009 
     11 C11        18.6025  -30.0268  -42.2150 C.ar      10 UNK        -0.0712 
     12 C12        19.8285  -29.9547  -42.8864 C.ar      10 UNK        -0.0894 
     13 C13        19.8915  -30.0989  -44.2771 C.ar      10 UNK        -0.0745 
     14 C14        18.7057  -30.2871  -44.9960 C.ar      10 UNK        -0.0972 
     15 C15        21.2322  -30.1703  -45.0048 C.3       10 UNK         0.0209 
     16 S16        22.4853  -28.9845  -44.4094 S.3       10 UNK        -0.2568 
     17 C17        22.0573  -27.4656  -45.3329 C.3       10 UNK        -0.0983 
     18 CA         21.6890  -26.2562  -44.4366 C.3       3 UNK         0.0876 
     19 N          20.5141  -26.5559  -43.6255 N.am      3 UNK        -0.4424 
     20 C          19.6954  -25.6545  -43.0765 C.2       2 UNK         0.4918 
     21 O          19.8227  -24.4335  -43.1900 O.2       2 UNK        -0.4875 
     22 CA         18.5071  -26.2387  -42.2931 C.3       2 UNK         0.0481 
     23 CB         18.3033  -25.5033  -40.9579 C.3       2 UNK        -0.1831 
     24 N          17.2396  -26.2532  -43.0328 N.am      2 UNK        -0.4498 
     25 C          17.0237  -26.6247  -44.3076 C.2       1 UNK         0.5027 
     26 O          17.9072  -26.9313  -45.1074 O.2       1 UNK        -0.4969 
     27 C          22.8764  -25.7886  -43.5692 C.2       3 UNK         0.5005 
     28 O          22.9019  -26.0345  -42.3595 O.2       3 UNK        -0.5279 
     29 N          23.8731  -25.1697  -44.2193 N.am      4 UNK        -0.4463 
     30 CA         25.1041  -24.6589  -43.6013 C.3       4 UNK         0.0283 
     31 CB         25.9153  -23.8881  -44.6555 C.3       4 UNK        -0.1875 
     32 C          25.9837  -25.7322  -42.9296 C.2       4 UNK         0.4949 
     33 O          26.7853  -25.3891  -42.0606 O.2       4 UNK        -0.5039 
     34 N          25.8150  -27.0039  -43.3218 N.am      5 UNK        -0.4663 
     35 CA         26.4641  -28.1583  -42.6939 C.3       5 UNK         0.0242 
     36 CB         26.3472  -29.3762  -43.6235 C.3       5 UNK        -0.1982 
     37 C          25.9063  -28.4872  -41.2959 C.2       5 UNK         0.5017 
     38 O          26.6008  -29.1519  -40.5267 O.2       5 UNK        -0.5012 
     39 N          24.6802  -28.0284  -40.9932 N.am      6 UNK        -0.4439 
     40 CA         23.9480  -28.0809  -39.7180 C.3       6 UNK         0.0297 
     41 CB         24.6841  -27.2723  -38.6328 C.3       6 UNK        -0.2006 
     42 C          23.5751  -29.4802  -39.1905 C.2       6 UNK         0.4892 
     43 O          22.4772  -29.6368  -38.6592 O.2       6 UNK        -0.5089 
     44 N          24.4786  -30.4571  -39.3159 N.am      7 UNK        -0.4243 
     45 CA         24.3233  -31.8284  -38.8223 C.3       7 UNK         0.0196 
     46 CB         25.6670  -32.2833  -38.2275 C.3       7 UNK        -0.2007 
     47 C          23.8622  -32.8132  -39.9108 C.2       7 UNK         0.5020 
     48 O          23.5658  -33.9637  -39.5898 O.2       7 UNK        -0.5147 
     49 N          23.8167  -32.3714  -41.1744 N.am      8 UNK        -0.4734 
     50 CA         23.5293  -33.1999  -42.3530 C.3       8 UNK         0.0238 
     51 CB         24.2433  -32.5817  -43.5690 C.3       8 UNK        -0.1912 
     52 C          22.0265  -33.4268  -42.6270 C.2       8 UNK         0.5038 
     53 O          21.6760  -33.8186  -43.7414 O.2       8 UNK        -0.5046 
     54 N          21.1685  -33.1613  -41.6348 N.am      9 UNK        -0.4200 
     55 CA         19.7046  -33.2832  -41.7032 C.3       9 UNK         0.0839 
     56 C          19.2171  -34.7271  -42.0004 C.2       9 UNK         0.5513 
     57 N          18.1424  -34.8737  -42.7633 N.am      9 UNK        -0.7519 
     58 O          19.7716  -35.7067  -41.5060 O.2       9 UNK        -0.4960 
     59 C59        19.0144  -32.7343  -40.4230 C.3       10 UNK        -0.0876 
     60 S60        19.6541  -31.1158  -39.8672 S.3       10 UNK        -0.2414 
     61 C61        18.5412  -29.9341  -40.6945 C.3       10 UNK         0.0169 
     62 H62        13.1804  -24.1825  -42.6778 H         1 UNK         0.0903 
     63 H63        14.3618  -22.8717  -42.7020 H         1 UNK         0.0903 
     64 H64        13.1261  -22.9707  -43.9591 H         1 UNK         0.0903 
     65 H65        14.0483  -26.1227  -43.3837 H         1 UNK         0.3096 
     66 H66        15.5494  -26.3453  -45.8217 H         1 UNK         0.1121 
     67 H67        15.1431  -28.5489  -43.7338 H         1 UNK         0.0849 
     68 H68        13.8821  -28.0590  -44.8253 H         1 UNK         0.0849 
     69 H69        15.4076  -30.9968  -44.4663 H         1 UNK         0.0865 
     70 H70        16.3882  -31.4346  -45.8354 H         1 UNK         0.0865 
     71 H71        16.4794  -30.2795  -42.4343 H         1 UNK         0.1346 
     72 H72        20.7393  -29.8416  -42.3144 H         1 UNK         0.1412 
     73 H73        18.7416  -30.4176  -46.0690 H         1 UNK         0.1426 
     74 H74        21.1002  -30.0418  -46.0802 H         1 UNK         0.0716 
     75 H75        21.6270  -31.1776  -44.8706 H         1 UNK         0.0716 
     76 H76        22.8954  -27.2191  -45.9868 H         1 UNK         0.0695 
     77 H77        21.2230  -27.6761  -46.0042 H         1 UNK         0.0695 
     78 H78        21.4260  -25.4237  -45.0934 H         1 UNK         0.0983 
     79 H79        20.3161  -27.5383  -43.5004 H         1 UNK         0.3095 
     80 H80        18.7432  -27.2751  -42.0586 H         1 UNK         0.0454 
     81 H81        19.2308  -25.4728  -40.3845 H         1 UNK         0.0851 
     82 H82        17.9810  -24.4724  -41.1103 H         1 UNK         0.0851 
     83 H83        17.5582  -26.0014  -40.3374 H         1 UNK         0.0851 
     84 H84        16.4238  -25.9868  -42.5021 H         1 UNK         0.2976 
     85 H85        23.7822  -25.0224  -45.2148 H         1 UNK         0.3116 
     86 H86        24.8075  -23.9563  -42.8197 H         1 UNK         0.0646 
     87 H87        26.8224  -23.4670  -44.2194 H         1 UNK         0.0847 
     88 H88        25.3441  -23.0569  -45.0694 H         1 UNK         0.0847 
     89 H89        26.2211  -24.5323  -45.4809 H         1 UNK         0.0847 
     90 H90        25.1409  -27.1965  -44.0486 H         1 UNK         0.3040 
     91 H91        27.5244  -27.9269  -42.5687 H         1 UNK         0.1015 
     92 H92        26.8117  -29.1836  -44.5907 H         1 UNK         0.0786 
     93 H93        25.3082  -29.6514  -43.7995 H         1 UNK         0.0786 
     94 H94        26.8466  -30.2458  -43.1937 H         1 UNK         0.0786 
     95 H95        24.2013  -27.4897  -41.7095 H         1 UNK         0.3172 
     96 H96        23.0040  -27.5702  -39.9160 H         1 UNK         0.0595 
     97 H97        24.8593  -26.2459  -38.9556 H         1 UNK         0.0839 
     98 H98        25.6486  -27.7136  -38.3795 H         1 UNK         0.0839 
     99 H99        24.0971  -27.2274  -37.7144 H         1 UNK         0.0839 
    100 H100       25.3726  -30.2087  -39.7365 H         1 UNK         0.2998 
    101 H101       23.5749  -31.8533  -38.0273 H         1 UNK         0.0822 
    102 H102       25.9825  -31.6273  -37.4160 H         1 UNK         0.0787 
    103 H103       25.5947  -33.2915  -37.8171 H         1 UNK         0.0787 
    104 H104       26.4581  -32.2915  -38.9785 H         1 UNK         0.0787 
    105 H105       24.0342  -31.4002  -41.3429 H         1 UNK         0.3055 
    106 H106       23.9583  -34.1913  -42.1895 H         1 UNK         0.1106 
    107 H107       24.1326  -33.2080  -44.4551 H         1 UNK         0.0828 
    108 H108       23.8404  -31.5998  -43.8130 H         1 UNK         0.0828 
    109 H109       25.3128  -32.4722  -43.3892 H         1 UNK         0.0828 
    110 H110       21.5434  -32.8579  -40.7489 H         1 UNK         0.2931 
    111 H111       19.3924  -32.6657  -42.5456 H         1 UNK         0.0412 
    112 H112       17.6779  -34.0745  -43.1659 H         1 UNK         0.3472 
    113 H113       17.7983  -35.8021  -42.9539 H         1 UNK         0.3472 
    114 H114       17.9364  -32.6571  -40.5764 H         1 UNK         0.0970 
    115 H115       19.1495  -33.4323  -39.5944 H         1 UNK         0.0970 
    116 H116       17.5252  -30.0974  -40.3321 H         1 UNK         0.0612 
    117 H117       18.8203  -28.9263  -40.3864 H         1 UNK         0.0612 
@<TRIPOS>BOND
     1    1    2 1    
     2    1   62 1    
     3    1   63 1    
     4    1   64 1    
     5    2    3 2    
     6    2    4 am   BACKBONE|DICT|INTERRES
     7    4    5 1    
     8    4   65 1    
     9    5    6 1    
    10    5   25 1    
    11    5   66 1    
    12    6    7 1    
    13    6   67 1    
    14    6   68 1    
    15    7    8 1    
    16    8    9 1    
    17    8   69 1    
    18    8   70 1    
    19    9   10 ar   
    20    9   14 ar   
    21   10   11 ar   
    22   10   71 1    
    23   11   12 ar   
    24   11   61 1    
    25   12   13 ar   
    26   12   72 1    
    27   13   14 ar   
    28   13   15 1    
    29   14   73 1    
    30   15   16 1    
    31   15   74 1    
    32   15   75 1    
    33   16   17 1    
    34   17   18 1    
    35   17   76 1    
    36   17   77 1    
    37   18   19 1    
    38   18   27 1    
    39   18   78 1    
    40   19   20 am   BACKBONE|DICT|INTERRES
    41   19   79 1    
    42   20   21 2    
    43   20   22 1    
    44   22   23 1    
    45   22   24 1    
    46   22   80 1    
    47   23   81 1    
    48   23   82 1    
    49   23   83 1    
    50   24   25 am   BACKBONE|DICT|INTERRES
    51   24   84 1    
    52   25   26 2    
    53   27   28 2    
    54   27   29 am   BACKBONE|DICT|INTERRES
    55   29   30 1    
    56   29   85 1    
    57   30   31 1    
    58   30   32 1    
    59   30   86 1    
    60   31   87 1    
    61   31   88 1    
    62   31   89 1    
    63   32   33 2    
    64   32   34 am   BACKBONE|DICT|INTERRES
    65   34   35 1    
    66   34   90 1    
    67   35   36 1    
    68   35   37 1    
    69   35   91 1    
    70   36   92 1    
    71   36   93 1    
    72   36   94 1    
    73   37   38 2    
    74   37   39 am   BACKBONE|DICT|INTERRES
    75   39   40 1    
    76   39   95 1    
    77   40   41 1    
    78   40   42 1    
    79   40   96 1    
    80   41   97 1    
    81   41   98 1    
    82   41   99 1    
    83   42   43 2    
    84   42   44 am   BACKBONE|DICT|INTERRES
    85   44   45 1    
    86   44  100 1    
    87   45   46 1    
    88   45   47 1    
    89   45  101 1    
    90   46  102 1    
    91   46  103 1    
    92   46  104 1    
    93   47   48 2    
    94   47   49 am   BACKBONE|DICT|INTERRES
    95   49   50 1    
    96   49  105 1    
    97   50   51 1    
    98   50   52 1    
    99   50  106 1    
   100   51  107 1    
   101   51  108 1    
   102   51  109 1    
   103   52   53 2    
   104   52   54 am   BACKBONE|DICT|INTERRES
   105   54   55 1    
   106   54  110 1    
   107   55   56 1    
   108   55   59 1    
   109   55  111 1    
   110   56   57 am   BACKBONE|DICT|INTERRES
   111   56   58 2    
   112   57  112 1    
   113   57  113 1    
   114   59   60 1    
   115   59  114 1    
   116   59  115 1    
   117   60   61 1    
   118   61  116 1    
   119   61  117 1    
@<TRIPOS>SUBSTRUCTURE
     1 UNK         1 GROUP             0       ****    0 ROOT    
