@<TRIPOS>MOLECULE
3R8
117   119    1
SMALL
USER_CHARGES


@<TRIPOS>ATOM
      1 CA         15.4013  -25.1624  -46.5435 C.3       0 UNK        -0.2013 
      2 C          16.4889  -25.5231  -45.5431 C.2       0 UNK         0.4866 
      3 O          16.1875  -26.1025  -44.4993 O.2       0 UNK        -0.5176 
      4 N          17.7456  -25.1689  -45.8488 N.am      1 UNK        -0.4884 
      5 CA         18.9867  -25.4241  -45.0950 C.3       1 UNK         0.0853 
      6 C6         19.2720  -26.9253  -44.8161 C.3       10 UNK        -0.0849 
      7 S7         19.3731  -27.9622  -46.3082 S.3       10 UNK        -0.2776 
      8 C8         20.4040  -29.3330  -45.6902 C.3       10 UNK         0.0316 
      9 C9         19.7423  -30.0885  -44.5421 C.ar      10 UNK        -0.0863 
     10 C10        18.7799  -31.0646  -44.8108 C.ar      10 UNK        -0.1009 
     11 C11        18.1929  -31.7885  -43.7690 C.ar      10 UNK        -0.0712 
     12 C12        18.5475  -31.5065  -42.4461 C.ar      10 UNK        -0.0894 
     13 C13        19.5187  -30.5426  -42.1614 C.ar      10 UNK        -0.0745 
     14 C14        20.1143  -29.8405  -43.2157 C.ar      10 UNK        -0.0972 
     15 C15        19.9568  -30.3086  -40.7205 C.3       10 UNK         0.0209 
     16 S16        18.9801  -29.0040  -39.9065 S.3       10 UNK        -0.2568 
     17 C17        20.2794  -27.8083  -39.4306 C.3       10 UNK        -0.0983 
     18 CA         20.6438  -26.8738  -40.6104 C.3       3 UNK         0.0876 
     19 N          19.5006  -26.1140  -41.1265 N.am      3 UNK        -0.4424 
     20 C          18.9224  -25.0196  -40.6105 C.2       2 UNK         0.4918 
     21 O          19.1673  -24.5767  -39.4880 O.2       2 UNK        -0.4875 
     22 CA         17.9455  -24.2621  -41.5419 C.3       2 UNK         0.0481 
     23 CB         18.1114  -22.7333  -41.4218 C.3       2 UNK        -0.1831 
     24 N          18.0286  -24.6798  -42.9533 N.am      2 UNK        -0.4498 
     25 C          19.0982  -24.6517  -43.7649 C.2       1 UNK         0.5027 
     26 O          20.1820  -24.1575  -43.4478 O.2       1 UNK        -0.4969 
     27 C          21.9029  -26.0009  -40.3831 C.2       3 UNK         0.5005 
     28 O          22.7310  -26.3200  -39.5281 O.2       3 UNK        -0.5279 
     29 N          22.0346  -24.9224  -41.1736 N.am      4 UNK        -0.4463 
     30 CA         23.2075  -24.0468  -41.2150 C.3       4 UNK         0.0283 
     31 CB         22.7481  -22.6112  -41.5178 C.3       4 UNK        -0.1875 
     32 C          24.2301  -24.5155  -42.2648 C.2       4 UNK         0.4949 
     33 O          25.4097  -24.1851  -42.1431 O.2       4 UNK        -0.5039 
     34 N          23.7605  -25.2638  -43.2732 N.am      5 UNK        -0.4663 
     35 CA         24.5684  -25.9062  -44.3079 C.3       5 UNK         0.0242 
     36 CB         23.7316  -26.0036  -45.6018 C.3       5 UNK        -0.1982 
     37 C          25.0739  -27.2636  -43.7863 C.2       5 UNK         0.5017 
     38 O          26.0336  -27.2959  -43.0144 O.2       5 UNK        -0.5012 
     39 N          24.4183  -28.3562  -44.2001 N.am      6 UNK        -0.4439 
     40 CA         24.6331  -29.7050  -43.6712 C.3       6 UNK         0.0297 
     41 CB         23.9829  -30.7300  -44.6170 C.3       6 UNK        -0.2006 
     42 C          24.0526  -29.8484  -42.2539 C.2       6 UNK         0.4892 
     43 O          23.1562  -29.0901  -41.8770 O.2       6 UNK        -0.5089 
     44 N          24.5470  -30.8498  -41.5208 N.am      7 UNK        -0.4243 
     45 CA         24.0385  -31.2613  -40.2148 C.3       7 UNK         0.0196 
     46 CB         25.2041  -31.3133  -39.2139 C.3       7 UNK        -0.2007 
     47 C          23.3929  -32.6452  -40.3509 C.2       7 UNK         0.5020 
     48 O          23.8603  -33.4598  -41.1514 O.2       7 UNK        -0.5147 
     49 N          22.3367  -32.8862  -39.5607 N.am      8 UNK        -0.4734 
     50 CA         21.6052  -34.1573  -39.4084 C.3       8 UNK         0.0238 
     51 CB         22.4862  -35.1788  -38.6576 C.3       8 UNK        -0.1912 
     52 C          21.0225  -34.7523  -40.7108 C.2       8 UNK         0.5038 
     53 O          20.7345  -35.9498  -40.7509 O.2       8 UNK        -0.5046 
     54 N          20.8598  -33.9180  -41.7465 N.am      9 UNK        -0.4200 
     55 CA         20.4704  -34.3057  -43.1115 C.3       9 UNK         0.0839 
     56 C          21.5477  -35.1461  -43.8651 C.2       9 UNK         0.5513 
     57 N          22.8130  -35.1055  -43.4595 N.am      9 UNK        -0.7519 
     58 O          21.2476  -35.8263  -44.8427 O.2       9 UNK        -0.4960 
     59 C59        19.0290  -34.9019  -43.1686 C.3       10 UNK        -0.0876 
     60 S60        18.0987  -34.4045  -44.6605 S.3       10 UNK        -0.2414 
     61 C61        17.2197  -32.9149  -44.0804 C.3       10 UNK         0.0169 
     62 H62        14.6632  -24.5107  -46.0766 H         1 UNK         0.0903 
     63 H63        15.8026  -24.6497  -47.4175 H         1 UNK         0.0903 
     64 H64        14.8930  -26.0642  -46.8838 H         1 UNK         0.0903 
     65 H65        17.8930  -24.6722  -46.7172 H         1 UNK         0.3096 
     66 H66        19.7941  -25.0491  -45.7271 H         1 UNK         0.1121 
     67 H67        18.5094  -27.3572  -44.1650 H         1 UNK         0.0849 
     68 H68        20.2192  -27.0257  -44.2824 H         1 UNK         0.0849 
     69 H69        20.6053  -30.0220  -46.5120 H         1 UNK         0.0865 
     70 H70        21.3733  -28.9396  -45.3837 H         1 UNK         0.0865 
     71 H71        18.5062  -31.2816  -45.8345 H         1 UNK         0.1346 
     72 H72        18.0973  -32.0674  -41.6385 H         1 UNK         0.1412 
     73 H73        20.8797  -29.1091  -43.0082 H         1 UNK         0.1426 
     74 H74        19.8498  -31.2288  -40.1446 H         1 UNK         0.0716 
     75 H75        21.0178  -30.0634  -40.6960 H         1 UNK         0.0716 
     76 H76        21.1515  -28.3618  -39.0777 H         1 UNK         0.0695 
     77 H77        19.9237  -27.2243  -38.5804 H         1 UNK         0.0695 
     78 H78        20.9451  -27.5214  -41.4318 H         1 UNK         0.0983 
     79 H79        19.1603  -26.4138  -42.0262 H         1 UNK         0.3095 
     80 H80        16.9399  -24.5189  -41.2065 H         1 UNK         0.0454 
     81 H81        19.1228  -22.4132  -41.6744 H         1 UNK         0.0851 
     82 H82        17.9101  -22.3955  -40.4045 H         1 UNK         0.0851 
     83 H83        17.4191  -22.2063  -42.0781 H         1 UNK         0.0851 
     84 H84        17.2060  -25.1555  -43.3239 H         1 UNK         0.2976 
     85 H85        21.2938  -24.7041  -41.8329 H         1 UNK         0.3116 
     86 H86        23.7018  -24.0475  -40.2411 H         1 UNK         0.0646 
     87 H87        22.0460  -22.2527  -40.7648 H         1 UNK         0.0847 
     88 H88        23.5953  -21.9241  -41.5243 H         1 UNK         0.0847 
     89 H89        22.2614  -22.5376  -42.4913 H         1 UNK         0.0847 
     90 H90        22.7755  -25.4786  -43.2743 H         1 UNK         0.3040 
     91 H91        25.4478  -25.2935  -44.5197 H         1 UNK         0.1015 
     92 H92        22.7840  -26.5225  -45.4516 H         1 UNK         0.0786 
     93 H93        24.2799  -26.5251  -46.3879 H         1 UNK         0.0786 
     94 H94        23.4984  -25.0101  -45.9857 H         1 UNK         0.0786 
     95 H95        23.6365  -28.2327  -44.8238 H         1 UNK         0.3172 
     96 H96        25.7080  -29.8948  -43.6326 H         1 UNK         0.0595 
     97 H97        22.8965  -30.6422  -44.6279 H         1 UNK         0.0839 
     98 H98        24.2156  -31.7499  -44.3071 H         1 UNK         0.0839 
     99 H99        24.3426  -30.6164  -45.6398 H         1 UNK         0.0839 
    100 H100       25.2214  -31.4762  -41.9391 H         1 UNK         0.2998 
    101 H101       23.2946  -30.5515  -39.8467 H         1 UNK         0.0822 
    102 H102       24.8572  -31.6117  -38.2237 H         1 UNK         0.0787 
    103 H103       25.9702  -32.0271  -39.5205 H         1 UNK         0.0787 
    104 H104       25.6787  -30.3372  -39.1105 H         1 UNK         0.0787 
    105 H105       22.0359  -32.1465  -38.9402 H         1 UNK         0.3055 
    106 H106       20.7421  -33.9405  -38.7766 H         1 UNK         0.1106 
    107 H107       21.9228  -36.0778  -38.4044 H         1 UNK         0.0828 
    108 H108       23.3420  -35.4898  -39.2579 H         1 UNK         0.0828 
    109 H109       22.8652  -34.7659  -37.7227 H         1 UNK         0.0828 
    110 H110       21.1460  -32.9580  -41.6312 H         1 UNK         0.2931 
    111 H111       20.4634  -33.3598  -43.6520 H         1 UNK         0.0412 
    112 H112       23.0882  -34.5490  -42.6565 H         1 UNK         0.3472 
    113 H113       23.5051  -35.6449  -43.9546 H         1 UNK         0.3472 
    114 H114       18.4495  -34.5894  -42.2990 H         1 UNK         0.0970 
    115 H115       19.0573  -35.9916  -43.1132 H         1 UNK         0.0970 
    116 H116       16.6147  -33.1626  -43.2068 H         1 UNK         0.0612 
    117 H117       16.5234  -32.5904  -44.8549 H         1 UNK         0.0612 
@<TRIPOS>BOND
     1    1    2 1    
     2    1   62 1    
     3    1   63 1    
     4    1   64 1    
     5    2    3 2    
     6    2    4 am   BACKBONE|DICT|INTERRES
     7    4    5 1    
     8    4   65 1    
     9    5    6 1    
    10    5   25 1    
    11    5   66 1    
    12    6    7 1    
    13    6   67 1    
    14    6   68 1    
    15    7    8 1    
    16    8    9 1    
    17    8   69 1    
    18    8   70 1    
    19    9   10 ar   
    20    9   14 ar   
    21   10   11 ar   
    22   10   71 1    
    23   11   12 ar   
    24   11   61 1    
    25   12   13 ar   
    26   12   72 1    
    27   13   14 ar   
    28   13   15 1    
    29   14   73 1    
    30   15   16 1    
    31   15   74 1    
    32   15   75 1    
    33   16   17 1    
    34   17   18 1    
    35   17   76 1    
    36   17   77 1    
    37   18   19 1    
    38   18   27 1    
    39   18   78 1    
    40   19   20 am   BACKBONE|DICT|INTERRES
    41   19   79 1    
    42   20   21 2    
    43   20   22 1    
    44   22   23 1    
    45   22   24 1    
    46   22   80 1    
    47   23   81 1    
    48   23   82 1    
    49   23   83 1    
    50   24   25 am   BACKBONE|DICT|INTERRES
    51   24   84 1    
    52   25   26 2    
    53   27   28 2    
    54   27   29 am   BACKBONE|DICT|INTERRES
    55   29   30 1    
    56   29   85 1    
    57   30   31 1    
    58   30   32 1    
    59   30   86 1    
    60   31   87 1    
    61   31   88 1    
    62   31   89 1    
    63   32   33 2    
    64   32   34 am   BACKBONE|DICT|INTERRES
    65   34   35 1    
    66   34   90 1    
    67   35   36 1    
    68   35   37 1    
    69   35   91 1    
    70   36   92 1    
    71   36   93 1    
    72   36   94 1    
    73   37   38 2    
    74   37   39 am   BACKBONE|DICT|INTERRES
    75   39   40 1    
    76   39   95 1    
    77   40   41 1    
    78   40   42 1    
    79   40   96 1    
    80   41   97 1    
    81   41   98 1    
    82   41   99 1    
    83   42   43 2    
    84   42   44 am   BACKBONE|DICT|INTERRES
    85   44   45 1    
    86   44  100 1    
    87   45   46 1    
    88   45   47 1    
    89   45  101 1    
    90   46  102 1    
    91   46  103 1    
    92   46  104 1    
    93   47   48 2    
    94   47   49 am   BACKBONE|DICT|INTERRES
    95   49   50 1    
    96   49  105 1    
    97   50   51 1    
    98   50   52 1    
    99   50  106 1    
   100   51  107 1    
   101   51  108 1    
   102   51  109 1    
   103   52   53 2    
   104   52   54 am   BACKBONE|DICT|INTERRES
   105   54   55 1    
   106   54  110 1    
   107   55   56 1    
   108   55   59 1    
   109   55  111 1    
   110   56   57 am   BACKBONE|DICT|INTERRES
   111   56   58 2    
   112   57  112 1    
   113   57  113 1    
   114   59   60 1    
   115   59  114 1    
   116   59  115 1    
   117   60   61 1    
   118   61  116 1    
   119   61  117 1    
@<TRIPOS>SUBSTRUCTURE
     1 UNK         1 GROUP             0       ****    0 ROOT    
