@<TRIPOS>MOLECULE
3R8
117   119    1
SMALL
USER_CHARGES


@<TRIPOS>ATOM
      1 CA         16.4828  -21.7900  -42.4431 C.3       0 UNK        -0.2013 
      2 C          16.6047  -22.6072  -43.7204 C.2       0 UNK         0.4866 
      3 O          16.7124  -22.0348  -44.8055 O.2       0 UNK        -0.5176 
      4 N          16.5790  -23.9400  -43.6008 N.am      1 UNK        -0.4884 
      5 CA         16.7737  -24.8878  -44.7027 C.3       1 UNK         0.0853 
      6 C6         16.0993  -26.2522  -44.4043 C.3       10 UNK        -0.0849 
      7 S7         16.6317  -27.0484  -42.8481 S.3       10 UNK        -0.2776 
      8 C8         15.7516  -28.6439  -42.9663 C.3       10 UNK         0.0316 
      9 C9         16.6804  -29.7988  -43.3235 C.ar      10 UNK        -0.0863 
     10 C10        16.7355  -30.9325  -42.5060 C.ar      10 UNK        -0.1009 
     11 C11        17.5892  -31.9992  -42.8065 C.ar      10 UNK        -0.0712 
     12 C12        18.3938  -31.9190  -43.9509 C.ar      10 UNK        -0.0894 
     13 C13        18.3693  -30.7812  -44.7608 C.ar      10 UNK        -0.0745 
     14 C14        17.4905  -29.7390  -44.4602 C.ar      10 UNK        -0.0972 
     15 C15        19.3580  -30.6340  -45.9074 C.3       10 UNK         0.0209 
     16 S16        21.0929  -30.5783  -45.3316 S.3       10 UNK        -0.2568 
     17 C17        21.0478  -29.4809  -43.8669 C.3       10 UNK        -0.0983 
     18 CA         21.4804  -28.0269  -44.1759 C.3       3 UNK         0.0876 
     19 N          20.5800  -27.3798  -45.1344 N.am      3 UNK        -0.4424 
     20 C          20.9428  -26.4294  -46.0032 C.2       2 UNK         0.4918 
     21 O          22.0959  -26.0118  -46.1079 O.2       2 UNK        -0.4875 
     22 CA         19.8369  -25.8074  -46.8742 C.3       2 UNK         0.0481 
     23 CB         19.6887  -26.5976  -48.1837 C.3       2 UNK        -0.1831 
     24 N          18.5228  -25.6846  -46.2291 N.am      2 UNK        -0.4498 
     25 C          18.2649  -25.0165  -45.0931 C.2       1 UNK         0.5027 
     26 O          19.1397  -24.5085  -44.3866 O.2       1 UNK        -0.4969 
     27 C          21.5820  -27.1671  -42.8967 C.2       3 UNK         0.5005 
     28 O          21.2944  -27.6509  -41.8007 O.2       3 UNK        -0.5279 
     29 N          21.9878  -25.8983  -43.0522 N.am      4 UNK        -0.4463 
     30 CA         22.0415  -24.8773  -41.9967 C.3       4 UNK         0.0283 
     31 CB         22.4432  -23.5313  -42.6197 C.3       4 UNK        -0.1875 
     32 C          22.9614  -25.2207  -40.8092 C.2       4 UNK         0.4949 
     33 O          22.7469  -24.7085  -39.7108 O.2       4 UNK        -0.5039 
     34 N          23.9480  -26.0969  -41.0403 N.am      5 UNK        -0.4663 
     35 CA         24.8351  -26.6548  -40.0175 C.3       5 UNK         0.0242 
     36 CB         26.0869  -27.2209  -40.7103 C.3       5 UNK        -0.1982 
     37 C          24.1747  -27.7399  -39.1430 C.2       5 UNK         0.5017 
     38 O          24.7908  -28.1554  -38.1610 O.2       5 UNK        -0.5012 
     39 N          22.9785  -28.2200  -39.5241 N.am      6 UNK        -0.4439 
     40 CA         22.1841  -29.3092  -38.9336 C.3       6 UNK         0.0297 
     41 CB         21.8275  -29.0385  -37.4592 C.3       6 UNK        -0.2006 
     42 C          22.8139  -30.7001  -39.1188 C.2       6 UNK         0.4892 
     43 O          22.1465  -31.6046  -39.6214 O.2       6 UNK        -0.5089 
     44 N          24.1010  -30.8342  -38.7709 N.am      7 UNK        -0.4243 
     45 CA         24.9268  -32.0335  -38.9515 C.3       7 UNK         0.0196 
     46 CB         26.3065  -31.7923  -38.3195 C.3       7 UNK        -0.2007 
     47 C          25.0777  -32.4659  -40.4214 C.2       7 UNK         0.5020 
     48 O          25.3019  -33.6471  -40.6845 O.2       7 UNK        -0.5147 
     49 N          24.8995  -31.5178  -41.3532 N.am      8 UNK        -0.4734 
     50 CA         24.8478  -31.7383  -42.8016 C.3       8 UNK         0.0238 
     51 CB         24.8135  -30.3764  -43.5161 C.3       8 UNK        -0.1912 
     52 C          23.6904  -32.6471  -43.2676 C.2       8 UNK         0.5038 
     53 O          23.7766  -33.1909  -44.3693 O.2       8 UNK        -0.5046 
     54 N          22.6612  -32.8324  -42.4251 N.am      9 UNK        -0.4200 
     55 CA         21.6249  -33.8627  -42.5974 C.3       9 UNK         0.0839 
     56 C          22.1651  -35.3228  -42.4666 C.2       9 UNK         0.5513 
     57 N          23.3099  -35.5607  -41.8344 N.am      9 UNK        -0.7519 
     58 O          21.5494  -36.2587  -42.9693 O.2       9 UNK        -0.4960 
     59 C59        20.4226  -33.6009  -41.6477 C.3       10 UNK        -0.0876 
     60 S60        18.8905  -34.4610  -42.1569 S.3       10 UNK        -0.2414 
     61 C61        17.6064  -33.1973  -41.8538 C.3       10 UNK         0.0169 
     62 H62        17.3743  -21.1796  -42.3028 H         1 UNK         0.0903 
     63 H63        15.6208  -21.1263  -42.5021 H         1 UNK         0.0903 
     64 H64        16.3636  -22.4232  -41.5643 H         1 UNK         0.0903 
     65 H65        16.5241  -24.3616  -42.6841 H         1 UNK         0.3096 
     66 H66        16.2726  -24.4719  -45.5801 H         1 UNK         0.1121 
     67 H67        16.2365  -26.9438  -45.2357 H         1 UNK         0.0849 
     68 H68        15.0208  -26.1006  -44.3382 H         1 UNK         0.0849 
     69 H69        15.2661  -28.8301  -42.0075 H         1 UNK         0.0865 
     70 H70        14.9491  -28.5865  -43.7022 H         1 UNK         0.0865 
     71 H71        16.1136  -30.9853  -41.6225 H         1 UNK         0.1346 
     72 H72        19.0795  -32.7137  -44.2032 H         1 UNK         0.1412 
     73 H73        17.4691  -28.8614  -45.0882 H         1 UNK         0.1426 
     74 H74        19.1530  -29.7311  -46.4840 H         1 UNK         0.0716 
     75 H75        19.2395  -31.4709  -46.5968 H         1 UNK         0.0716 
     76 H76        20.0704  -29.4902  -43.3874 H         1 UNK         0.0695 
     77 H77        21.7176  -29.9264  -43.1307 H         1 UNK         0.0695 
     78 H78        22.4845  -28.0722  -44.6038 H         1 UNK         0.0983 
     79 H79        19.6055  -27.6254  -45.0658 H         1 UNK         0.3095 
     80 H80        20.1611  -24.7960  -47.1277 H         1 UNK         0.0454 
     81 H81        20.6472  -26.6864  -48.6970 H         1 UNK         0.0851 
     82 H82        19.3202  -27.6088  -48.0080 H         1 UNK         0.0851 
     83 H83        19.0029  -26.1037  -48.8719 H         1 UNK         0.0851 
     84 H84        17.7437  -26.0623  -46.7487 H         1 UNK         0.2976 
     85 H85        22.1877  -25.5874  -43.9961 H         1 UNK         0.3116 
     86 H86        21.0298  -24.7770  -41.5982 H         1 UNK         0.0646 
     87 H87        22.4626  -22.7419  -41.8670 H         1 UNK         0.0847 
     88 H88        21.7338  -23.2243  -43.3889 H         1 UNK         0.0847 
     89 H89        23.4345  -23.5753  -43.0724 H         1 UNK         0.0847 
     90 H90        24.0572  -26.4469  -41.9808 H         1 UNK         0.3040 
     91 H91        25.1460  -25.8490  -39.3486 H         1 UNK         0.1015 
     92 H92        26.6071  -26.4507  -41.2802 H         1 UNK         0.0786 
     93 H93        25.8400  -28.0350  -41.3926 H         1 UNK         0.0786 
     94 H94        26.7968  -27.6123  -39.9801 H         1 UNK         0.0786 
     95 H95        22.5543  -27.8200  -40.3586 H         1 UNK         0.3172 
     96 H96        21.2477  -29.3165  -39.4940 H         1 UNK         0.0595 
     97 H97        21.3305  -28.0753  -37.3438 H         1 UNK         0.0839 
     98 H98        22.7054  -29.0419  -36.8129 H         1 UNK         0.0839 
     99 H99        21.1467  -29.8018  -37.0803 H         1 UNK         0.0839 
    100 H100       24.5570  -30.0116  -38.3834 H         1 UNK         0.2998 
    101 H101       24.4392  -32.8534  -38.4202 H         1 UNK         0.0822 
    102 H102       26.2221  -31.5710  -37.2554 H         1 UNK         0.0787 
    103 H103       26.9411  -32.6744  -38.4166 H         1 UNK         0.0787 
    104 H104       26.8276  -30.9600  -38.7949 H         1 UNK         0.0787 
    105 H105       24.7214  -30.5787  -41.0309 H         1 UNK         0.3055 
    106 H106       25.7700  -32.2485  -43.0888 H         1 UNK         0.1106 
    107 H107       24.0042  -29.7459  -43.1518 H         1 UNK         0.0828 
    108 H108       25.7478  -29.8338  -43.3718 H         1 UNK         0.0828 
    109 H109       24.6761  -30.4973  -44.5919 H         1 UNK         0.0828 
    110 H110       22.6667  -32.3560  -41.5308 H         1 UNK         0.2931 
    111 H111       21.2617  -33.7574  -43.6216 H         1 UNK         0.0412 
    112 H112       23.6435  -36.5094  -41.7713 H         1 UNK         0.3472 
    113 H113       23.8663  -34.8090  -41.4418 H         1 UNK         0.3472 
    114 H114       20.2140  -32.5300  -41.6131 H         1 UNK         0.0970 
    115 H115       20.6681  -33.8844  -40.6225 H         1 UNK         0.0970 
    116 H116       17.7123  -32.8413  -40.8280 H         1 UNK         0.0612 
    117 H117       16.6347  -33.6894  -41.9101 H         1 UNK         0.0612 
@<TRIPOS>BOND
     1    1    2 1    
     2    1   62 1    
     3    1   63 1    
     4    1   64 1    
     5    2    3 2    
     6    2    4 am   BACKBONE|DICT|INTERRES
     7    4    5 1    
     8    4   65 1    
     9    5    6 1    
    10    5   25 1    
    11    5   66 1    
    12    6    7 1    
    13    6   67 1    
    14    6   68 1    
    15    7    8 1    
    16    8    9 1    
    17    8   69 1    
    18    8   70 1    
    19    9   10 ar   
    20    9   14 ar   
    21   10   11 ar   
    22   10   71 1    
    23   11   12 ar   
    24   11   61 1    
    25   12   13 ar   
    26   12   72 1    
    27   13   14 ar   
    28   13   15 1    
    29   14   73 1    
    30   15   16 1    
    31   15   74 1    
    32   15   75 1    
    33   16   17 1    
    34   17   18 1    
    35   17   76 1    
    36   17   77 1    
    37   18   19 1    
    38   18   27 1    
    39   18   78 1    
    40   19   20 am   BACKBONE|DICT|INTERRES
    41   19   79 1    
    42   20   21 2    
    43   20   22 1    
    44   22   23 1    
    45   22   24 1    
    46   22   80 1    
    47   23   81 1    
    48   23   82 1    
    49   23   83 1    
    50   24   25 am   BACKBONE|DICT|INTERRES
    51   24   84 1    
    52   25   26 2    
    53   27   28 2    
    54   27   29 am   BACKBONE|DICT|INTERRES
    55   29   30 1    
    56   29   85 1    
    57   30   31 1    
    58   30   32 1    
    59   30   86 1    
    60   31   87 1    
    61   31   88 1    
    62   31   89 1    
    63   32   33 2    
    64   32   34 am   BACKBONE|DICT|INTERRES
    65   34   35 1    
    66   34   90 1    
    67   35   36 1    
    68   35   37 1    
    69   35   91 1    
    70   36   92 1    
    71   36   93 1    
    72   36   94 1    
    73   37   38 2    
    74   37   39 am   BACKBONE|DICT|INTERRES
    75   39   40 1    
    76   39   95 1    
    77   40   41 1    
    78   40   42 1    
    79   40   96 1    
    80   41   97 1    
    81   41   98 1    
    82   41   99 1    
    83   42   43 2    
    84   42   44 am   BACKBONE|DICT|INTERRES
    85   44   45 1    
    86   44  100 1    
    87   45   46 1    
    88   45   47 1    
    89   45  101 1    
    90   46  102 1    
    91   46  103 1    
    92   46  104 1    
    93   47   48 2    
    94   47   49 am   BACKBONE|DICT|INTERRES
    95   49   50 1    
    96   49  105 1    
    97   50   51 1    
    98   50   52 1    
    99   50  106 1    
   100   51  107 1    
   101   51  108 1    
   102   51  109 1    
   103   52   53 2    
   104   52   54 am   BACKBONE|DICT|INTERRES
   105   54   55 1    
   106   54  110 1    
   107   55   56 1    
   108   55   59 1    
   109   55  111 1    
   110   56   57 am   BACKBONE|DICT|INTERRES
   111   56   58 2    
   112   57  112 1    
   113   57  113 1    
   114   59   60 1    
   115   59  114 1    
   116   59  115 1    
   117   60   61 1    
   118   61  116 1    
   119   61  117 1    
@<TRIPOS>SUBSTRUCTURE
     1 UNK         1 GROUP             0       ****    0 ROOT    
