@<TRIPOS>MOLECULE
3R8
117   119    1
SMALL
USER_CHARGES


@<TRIPOS>ATOM
      1 CA         15.2598  -21.9685  -42.7187 C.3       0 UNK        -0.2013 
      2 C          15.9863  -22.6694  -43.8569 C.2       0 UNK         0.4866 
      3 O          16.4794  -22.0064  -44.7701 O.2       0 UNK        -0.5176 
      4 N          16.0481  -24.0054  -43.8152 N.am      1 UNK        -0.4884 
      5 CA         16.7703  -24.8473  -44.7728 C.3       1 UNK         0.0853 
      6 C6         16.3222  -26.3317  -44.7036 C.3       10 UNK        -0.0849 
      7 S7         16.1785  -27.0117  -43.0099 S.3       10 UNK        -0.2776 
      8 C8         15.5357  -28.6902  -43.3139 C.3       10 UNK         0.0316 
      9 C9         16.6397  -29.6753  -43.6770 C.ar      10 UNK        -0.0863 
     10 C10        17.1560  -30.5577  -42.7209 C.ar      10 UNK        -0.1009 
     11 C11        18.1382  -31.4918  -43.0714 C.ar      10 UNK        -0.0712 
     12 C12        18.6336  -31.5105  -44.3798 C.ar      10 UNK        -0.0894 
     13 C13        18.1384  -30.6212  -45.3368 C.ar      10 UNK        -0.0745 
     14 C14        17.1214  -29.7313  -44.9857 C.ar      10 UNK        -0.0972 
     15 C15        18.6616  -30.6381  -46.7640 C.3       10 UNK         0.0209 
     16 S16        19.3601  -29.0255  -47.2461 S.3       10 UNK        -0.2568 
     17 C17        21.0789  -29.1258  -46.6308 C.3       10 UNK        -0.0983 
     18 CA         21.5053  -28.0205  -45.6211 C.3       3 UNK         0.0876 
     19 N          20.8423  -26.7300  -45.8494 N.am      3 UNK        -0.4424 
     20 C          21.2758  -25.5512  -45.3835 C.2       2 UNK         0.4918 
     21 O          22.2655  -25.4261  -44.6641 O.2       2 UNK        -0.4875 
     22 CA         20.4586  -24.3080  -45.7672 C.3       2 UNK         0.0481 
     23 CB         20.8710  -23.8029  -47.1589 C.3       2 UNK        -0.1831 
     24 N          19.0104  -24.5338  -45.7336 N.am      2 UNK        -0.4498 
     25 C          18.2979  -24.6924  -44.6084 C.2       1 UNK         0.5027 
     26 O          18.7998  -24.7212  -43.4825 O.2       1 UNK        -0.4969 
     27 C          21.4820  -28.4901  -44.1505 C.2       3 UNK         0.5005 
     28 O          22.3336  -29.2977  -43.7759 O.2       3 UNK        -0.5279 
     29 N          20.5894  -27.9298  -43.3187 N.am      4 UNK        -0.4463 
     30 CA         20.5684  -28.1431  -41.8675 C.3       4 UNK         0.0283 
     31 CB         19.2719  -27.5842  -41.2694 C.3       4 UNK        -0.1875 
     32 C          21.7939  -27.5764  -41.1277 C.2       4 UNK         0.4949 
     33 O          22.0747  -28.0237  -40.0154 O.2       4 UNK        -0.5039 
     34 N          22.5347  -26.6461  -41.7533 N.am      5 UNK        -0.4663 
     35 CA         23.7747  -26.0617  -41.2236 C.3       5 UNK         0.0242 
     36 CB         24.2329  -24.9178  -42.1415 C.3       5 UNK        -0.1982 
     37 C          24.9167  -27.0770  -41.0196 C.2       5 UNK         0.5017 
     38 O          25.8529  -26.7825  -40.2762 O.2       5 UNK        -0.5012 
     39 N          24.8107  -28.2573  -41.6487 N.am      6 UNK        -0.4439 
     40 CA         25.6901  -29.4076  -41.4311 C.3       6 UNK         0.0297 
     41 CB         25.4408  -30.4417  -42.5415 C.3       6 UNK        -0.2006 
     42 C          25.5230  -30.0658  -40.0462 C.2       6 UNK         0.4892 
     43 O          26.3991  -30.8391  -39.6560 O.2       6 UNK        -0.5089 
     44 N          24.4118  -29.7799  -39.3446 N.am      7 UNK        -0.4243 
     45 CA         23.9734  -30.3174  -38.0477 C.3       7 UNK         0.0196 
     46 CB         24.9880  -30.0283  -36.9234 C.3       7 UNK        -0.2007 
     47 C          23.5962  -31.8056  -38.1152 C.2       7 UNK         0.5020 
     48 O          22.4465  -32.1556  -37.8508 O.2       7 UNK        -0.5147 
     49 N          24.5436  -32.6502  -38.5353 N.am      8 UNK        -0.4734 
     50 CA         24.3351  -34.0527  -38.8974 C.3       8 UNK         0.0238 
     51 CB         25.6244  -34.8410  -38.6009 C.3       8 UNK        -0.1912 
     52 C          23.9079  -34.1389  -40.3748 C.2       8 UNK         0.5038 
     53 O          24.5967  -34.7585  -41.1873 O.2       8 UNK        -0.5046 
     54 N          22.8023  -33.4598  -40.7004 N.am      9 UNK        -0.4200 
     55 CA         22.2712  -33.2891  -42.0590 C.3       9 UNK         0.0839 
     56 C          21.5682  -34.5355  -42.6694 C.2       9 UNK         0.5513 
     57 N          21.3286  -35.6025  -41.9166 N.am      9 UNK        -0.7519 
     58 O          21.2408  -34.5342  -43.8531 O.2       9 UNK        -0.4960 
     59 C59        21.4085  -32.0046  -42.1613 C.3       10 UNK        -0.0876 
     60 S60        19.9840  -31.9470  -41.0155 S.3       10 UNK        -0.2414 
     61 C61        18.6081  -32.5274  -42.0575 C.3       10 UNK         0.0169 
     62 H62        14.4276  -21.3828  -43.1085 H         1 UNK         0.0903 
     63 H63        14.8644  -22.6764  -41.9903 H         1 UNK         0.0903 
     64 H64        15.9394  -21.2926  -42.2002 H         1 UNK         0.0903 
     65 H65        15.6605  -24.5047  -43.0261 H         1 UNK         0.3096 
     66 H66        16.5134  -24.4823  -45.7702 H         1 UNK         0.1121 
     67 H67        17.0016  -26.9511  -45.2886 H         1 UNK         0.0849 
     68 H68        15.3460  -26.4297  -45.1810 H         1 UNK         0.0849 
     69 H69        14.7807  -28.6627  -44.1011 H         1 UNK         0.0865 
     70 H70        15.0180  -29.0293  -42.4154 H         1 UNK         0.0865 
     71 H71        16.7742  -30.5384  -41.7092 H         1 UNK         0.1346 
     72 H72        19.3858  -32.2352  -44.6601 H         1 UNK         0.1412 
     73 H73        16.7084  -29.0796  -45.7417 H         1 UNK         0.1426 
     74 H74        17.8333  -30.8720  -47.4342 H         1 UNK         0.0716 
     75 H75        19.4032  -31.4250  -46.9104 H         1 UNK         0.0716 
     76 H76        21.7146  -29.0478  -47.5142 H         1 UNK         0.0695 
     77 H77        21.2766  -30.1243  -46.2357 H         1 UNK         0.0695 
     78 H78        22.5662  -27.8409  -45.8127 H         1 UNK         0.0983 
     79 H79        20.0162  -26.7615  -46.4297 H         1 UNK         0.3095 
     80 H80        20.6938  -23.5234  -45.0446 H         1 UNK         0.0454 
     81 H81        20.6417  -24.5280  -47.9407 H         1 UNK         0.0851 
     82 H82        21.9438  -23.6088  -47.2003 H         1 UNK         0.0851 
     83 H83        20.3666  -22.8692  -47.4079 H         1 UNK         0.0851 
     84 H84        18.5295  -24.5142  -46.6219 H         1 UNK         0.2976 
     85 H85        19.9317  -27.2600  -43.6915 H         1 UNK         0.3116 
     86 H86        20.5697  -29.2184  -41.6956 H         1 UNK         0.0646 
     87 H87        18.4101  -28.1355  -41.6402 H         1 UNK         0.0847 
     88 H88        19.1331  -26.5289  -41.5047 H         1 UNK         0.0847 
     89 H89        19.2643  -27.6819  -40.1829 H         1 UNK         0.0847 
     90 H90        22.2490  -26.3328  -42.6743 H         1 UNK         0.3040 
     91 H91        23.5444  -25.6416  -40.2421 H         1 UNK         0.1015 
     92 H92        25.1081  -24.4130  -41.7302 H         1 UNK         0.0786 
     93 H93        23.4527  -24.1657  -42.2617 H         1 UNK         0.0786 
     94 H94        24.5040  -25.2821  -43.1331 H         1 UNK         0.0786 
     95 H95        24.0115  -28.4045  -42.2526 H         1 UNK         0.3172 
     96 H96        26.7239  -29.0644  -41.5075 H         1 UNK         0.0595 
     97 H97        24.4168  -30.8155  -42.5229 H         1 UNK         0.0839 
     98 H98        26.1024  -31.3023  -42.4323 H         1 UNK         0.0839 
     99 H99        25.6231  -30.0175  -43.5290 H         1 UNK         0.0839 
    100 H100       23.7443  -29.1415  -39.7673 H         1 UNK         0.2998 
    101 H101       23.0585  -29.7742  -37.8044 H         1 UNK         0.0822 
    102 H102       25.2021  -28.9619  -36.8511 H         1 UNK         0.0787 
    103 H103       24.5947  -30.3465  -35.9572 H         1 UNK         0.0787 
    104 H104       25.9340  -30.5491  -37.0727 H         1 UNK         0.0787 
    105 H105       25.4287  -32.2333  -38.8158 H         1 UNK         0.3055 
    106 H106       23.5304  -34.4785  -38.2935 H         1 UNK         0.1106 
    107 H107       25.5024  -35.8968  -38.8463 H         1 UNK         0.0828 
    108 H108       25.8893  -34.7832  -37.5451 H         1 UNK         0.0828 
    109 H109       26.4701  -34.4658  -39.1790 H         1 UNK         0.0828 
    110 H110       22.2894  -32.9909  -39.9642 H         1 UNK         0.2931 
    111 H111       23.1360  -33.1199  -42.7038 H         1 UNK         0.0412 
    112 H112       21.5924  -35.6116  -40.9448 H         1 UNK         0.3472 
    113 H113       20.8773  -36.4055  -42.3259 H         1 UNK         0.3472 
    114 H114       22.0373  -31.1477  -41.9188 H         1 UNK         0.0970 
    115 H115       21.0870  -31.8306  -43.1870 H         1 UNK         0.0970 
    116 H116       17.7761  -32.7929  -41.4037 H         1 UNK         0.0612 
    117 H117       18.8902  -33.4508  -42.5634 H         1 UNK         0.0612 
@<TRIPOS>BOND
     1    1    2 1    
     2    1   62 1    
     3    1   63 1    
     4    1   64 1    
     5    2    3 2    
     6    2    4 am   BACKBONE|DICT|INTERRES
     7    4    5 1    
     8    4   65 1    
     9    5    6 1    
    10    5   25 1    
    11    5   66 1    
    12    6    7 1    
    13    6   67 1    
    14    6   68 1    
    15    7    8 1    
    16    8    9 1    
    17    8   69 1    
    18    8   70 1    
    19    9   10 ar   
    20    9   14 ar   
    21   10   11 ar   
    22   10   71 1    
    23   11   12 ar   
    24   11   61 1    
    25   12   13 ar   
    26   12   72 1    
    27   13   14 ar   
    28   13   15 1    
    29   14   73 1    
    30   15   16 1    
    31   15   74 1    
    32   15   75 1    
    33   16   17 1    
    34   17   18 1    
    35   17   76 1    
    36   17   77 1    
    37   18   19 1    
    38   18   27 1    
    39   18   78 1    
    40   19   20 am   BACKBONE|DICT|INTERRES
    41   19   79 1    
    42   20   21 2    
    43   20   22 1    
    44   22   23 1    
    45   22   24 1    
    46   22   80 1    
    47   23   81 1    
    48   23   82 1    
    49   23   83 1    
    50   24   25 am   BACKBONE|DICT|INTERRES
    51   24   84 1    
    52   25   26 2    
    53   27   28 2    
    54   27   29 am   BACKBONE|DICT|INTERRES
    55   29   30 1    
    56   29   85 1    
    57   30   31 1    
    58   30   32 1    
    59   30   86 1    
    60   31   87 1    
    61   31   88 1    
    62   31   89 1    
    63   32   33 2    
    64   32   34 am   BACKBONE|DICT|INTERRES
    65   34   35 1    
    66   34   90 1    
    67   35   36 1    
    68   35   37 1    
    69   35   91 1    
    70   36   92 1    
    71   36   93 1    
    72   36   94 1    
    73   37   38 2    
    74   37   39 am   BACKBONE|DICT|INTERRES
    75   39   40 1    
    76   39   95 1    
    77   40   41 1    
    78   40   42 1    
    79   40   96 1    
    80   41   97 1    
    81   41   98 1    
    82   41   99 1    
    83   42   43 2    
    84   42   44 am   BACKBONE|DICT|INTERRES
    85   44   45 1    
    86   44  100 1    
    87   45   46 1    
    88   45   47 1    
    89   45  101 1    
    90   46  102 1    
    91   46  103 1    
    92   46  104 1    
    93   47   48 2    
    94   47   49 am   BACKBONE|DICT|INTERRES
    95   49   50 1    
    96   49  105 1    
    97   50   51 1    
    98   50   52 1    
    99   50  106 1    
   100   51  107 1    
   101   51  108 1    
   102   51  109 1    
   103   52   53 2    
   104   52   54 am   BACKBONE|DICT|INTERRES
   105   54   55 1    
   106   54  110 1    
   107   55   56 1    
   108   55   59 1    
   109   55  111 1    
   110   56   57 am   BACKBONE|DICT|INTERRES
   111   56   58 2    
   112   57  112 1    
   113   57  113 1    
   114   59   60 1    
   115   59  114 1    
   116   59  115 1    
   117   60   61 1    
   118   61  116 1    
   119   61  117 1    
@<TRIPOS>SUBSTRUCTURE
     1 UNK         1 GROUP             0       ****    0 ROOT    
