@<TRIPOS>MOLECULE
3R8
117   119    1
SMALL
USER_CHARGES


@<TRIPOS>ATOM
      1 CA         19.1610  -24.3406  -49.3018 C.3       0 UNK        -0.2013 
      2 C          19.7663  -25.5226  -48.5599 C.2       0 UNK         0.4866 
      3 O          20.9892  -25.6198  -48.4574 O.2       0 UNK        -0.5176 
      4 N          18.9193  -26.4236  -48.0459 N.am      1 UNK        -0.4884 
      5 CA         19.3128  -27.6052  -47.2667 C.3       1 UNK         0.0853 
      6 C6         18.1569  -28.6295  -47.1445 C.3       10 UNK        -0.0849 
      7 S7         16.5868  -27.9122  -46.5415 S.3       10 UNK        -0.2776 
      8 C8         15.6252  -29.4170  -46.2020 C.3       10 UNK         0.0316 
      9 C9         15.8998  -29.9619  -44.8083 C.ar      10 UNK        -0.0863 
     10 C10        16.8520  -30.9660  -44.6103 C.ar      10 UNK        -0.1009 
     11 C11        17.0666  -31.4996  -43.3357 C.ar      10 UNK        -0.0712 
     12 C12        16.3122  -31.0277  -42.2566 C.ar      10 UNK        -0.0894 
     13 C13        15.3678  -30.0122  -42.4396 C.ar      10 UNK        -0.0745 
     14 C14        15.1693  -29.4821  -43.7176 C.ar      10 UNK        -0.0972 
     15 C15        14.5354  -29.5082  -41.2675 C.3       10 UNK         0.0209 
     16 S16        15.5459  -28.7518  -39.9547 S.3       10 UNK        -0.2568 
     17 C17        16.3257  -27.3418  -40.8145 C.3       10 UNK        -0.0983 
     18 CA         17.8200  -27.5843  -41.1561 C.3       3 UNK         0.0876 
     19 N          18.2582  -26.6855  -42.2390 N.am      3 UNK        -0.4424 
     20 C          19.4675  -26.6739  -42.8180 C.2       2 UNK         0.4918 
     21 O          20.3944  -27.4062  -42.4752 O.2       2 UNK        -0.4875 
     22 CA         19.6789  -25.6442  -43.9415 C.3       2 UNK         0.0481 
     23 CB         21.1073  -25.0613  -43.9277 C.3       2 UNK        -0.1831 
     24 N          19.3476  -26.1918  -45.2604 N.am      2 UNK        -0.4498 
     25 C          19.8990  -27.2465  -45.8853 C.2       1 UNK         0.5027 
     26 O          20.8351  -27.9126  -45.4447 O.2       1 UNK        -0.4969 
     27 C          18.7165  -27.5453  -39.8894 C.2       3 UNK         0.5005 
     28 O          18.7665  -28.5289  -39.1495 O.2       3 UNK        -0.5279 
     29 N          19.4494  -26.4382  -39.6834 N.am      4 UNK        -0.4463 
     30 CA         20.4996  -26.2906  -38.6671 C.3       4 UNK         0.0283 
     31 CB         20.9944  -24.8353  -38.6624 C.3       4 UNK        -0.1875 
     32 C          21.6905  -27.2568  -38.8465 C.2       4 UNK         0.4949 
     33 O          22.4017  -27.5139  -37.8740 O.2       4 UNK        -0.5039 
     34 N          21.8781  -27.7774  -40.0690 N.am      5 UNK        -0.4663 
     35 CA         22.8243  -28.8065  -40.5087 C.3       5 UNK         0.0242 
     36 CB         22.5963  -30.1343  -39.7577 C.3       5 UNK        -0.1982 
     37 C          24.3003  -28.3914  -40.4729 C.2       5 UNK         0.5017 
     38 O          24.9726  -28.4906  -41.5000 O.2       5 UNK        -0.5012 
     39 N          24.7902  -27.9881  -39.2933 N.am      6 UNK        -0.4439 
     40 CA         26.1855  -27.7131  -38.9168 C.3       6 UNK         0.0297 
     41 CB         26.7749  -26.5354  -39.7182 C.3       6 UNK        -0.2006 
     42 C          27.0918  -28.9588  -38.9839 C.2       6 UNK         0.4892 
     43 O          27.6971  -29.3197  -37.9741 O.2       6 UNK        -0.5089 
     44 N          27.1390  -29.6002  -40.1561 N.am      7 UNK        -0.4243 
     45 CA         27.7582  -30.8989  -40.4053 C.3       7 UNK         0.0196 
     46 CB         28.7667  -30.7818  -41.5616 C.3       7 UNK        -0.2007 
     47 C          26.6627  -31.9274  -40.7183 C.2       7 UNK         0.5020 
     48 O          26.5572  -32.9305  -40.0128 O.2       7 UNK        -0.5147 
     49 N          25.8474  -31.6501  -41.7443 N.am      8 UNK        -0.4734 
     50 CA         24.7101  -32.4621  -42.1739 C.3       8 UNK         0.0238 
     51 CB         25.1925  -33.7188  -42.9242 C.3       8 UNK        -0.1912 
     52 C          23.8187  -31.6025  -43.0780 C.2       8 UNK         0.5038 
     53 O          24.3494  -30.8506  -43.8984 O.2       8 UNK        -0.5046 
     54 N          22.4963  -31.7416  -42.9272 N.am      9 UNK        -0.4200 
     55 CA         21.4788  -31.0646  -43.7513 C.3       9 UNK         0.0839 
     56 C          21.1360  -31.7957  -45.0833 C.2       9 UNK         0.5513 
     57 N          21.7133  -32.9556  -45.3748 N.am      9 UNK        -0.7519 
     58 O          20.3356  -31.3029  -45.8729 O.2       9 UNK        -0.4960 
     59 C59        20.2116  -30.7092  -42.9275 C.3       10 UNK        -0.0876 
     60 S60        19.4605  -32.1138  -42.0315 S.3       10 UNK        -0.2414 
     61 C61        18.0954  -32.6048  -43.1345 C.3       10 UNK         0.0169 
     62 H62        19.5175  -24.3215  -50.3314 H         1 UNK         0.0903 
     63 H63        18.0722  -24.3846  -49.3212 H         1 UNK         0.0903 
     64 H64        19.4541  -23.4070  -48.8223 H         1 UNK         0.0903 
     65 H65        17.9224  -26.3009  -48.1630 H         1 UNK         0.3096 
     66 H66        20.1203  -28.0967  -47.8150 H         1 UNK         0.1121 
     67 H67        18.4515  -29.4577  -46.4982 H         1 UNK         0.0849 
     68 H68        17.9661  -29.0747  -48.1222 H         1 UNK         0.0849 
     69 H69        14.5641  -29.1821  -46.2989 H         1 UNK         0.0865 
     70 H70        15.8334  -30.1734  -46.9606 H         1 UNK         0.0865 
     71 H71        17.4208  -31.3406  -45.4506 H         1 UNK         0.1346 
     72 H72        16.4681  -31.4443  -41.2707 H         1 UNK         0.1412 
     73 H73        14.4330  -28.7045  -43.8700 H         1 UNK         0.1426 
     74 H74        13.7883  -28.7852  -41.5990 H         1 UNK         0.0716 
     75 H75        13.9809  -30.3463  -40.8432 H         1 UNK         0.0716 
     76 H76        16.2077  -26.4472  -40.2000 H         1 UNK         0.0695 
     77 H77        15.7572  -27.1489  -41.7257 H         1 UNK         0.0695 
     78 H78        17.9142  -28.5944  -41.5617 H         1 UNK         0.0983 
     79 H79        17.5586  -26.0456  -42.5862 H         1 UNK         0.3095 
     80 H80        18.9899  -24.8161  -43.7687 H         1 UNK         0.0454 
     81 H81        21.2298  -24.2958  -44.6938 H         1 UNK         0.0851 
     82 H82        21.3289  -24.5976  -42.9659 H         1 UNK         0.0851 
     83 H83        21.8655  -25.8265  -44.0978 H         1 UNK         0.0851 
     84 H84        18.5738  -25.7463  -45.7336 H         1 UNK         0.2976 
     85 H85        19.3375  -25.6729  -40.3320 H         1 UNK         0.3116 
     86 H86        20.0518  -26.5052  -37.6946 H         1 UNK         0.0646 
     87 H87        20.1829  -24.1388  -38.4506 H         1 UNK         0.0847 
     88 H88        21.7548  -24.6846  -37.8947 H         1 UNK         0.0847 
     89 H89        21.4389  -24.5560  -39.6186 H         1 UNK         0.0847 
     90 H90        21.2486  -27.4715  -40.8078 H         1 UNK         0.3040 
     91 H91        22.5910  -28.9827  -41.5602 H         1 UNK         0.1015 
     92 H92        22.7308  -30.0297  -38.6811 H         1 UNK         0.0786 
     93 H93        23.2976  -30.8985  -40.0889 H         1 UNK         0.0786 
     94 H94        21.5901  -30.5167  -39.9302 H         1 UNK         0.0786 
     95 H95        24.1090  -27.9206  -38.5387 H         1 UNK         0.3172 
     96 H96        26.1493  -27.4058  -37.8703 H         1 UNK         0.0595 
     97 H97        26.8527  -26.7554  -40.7831 H         1 UNK         0.0839 
     98 H98        27.7779  -26.2913  -39.3659 H         1 UNK         0.0839 
     99 H99        26.1657  -25.6385  -39.6069 H         1 UNK         0.0839 
    100 H100       26.5361  -29.2309  -40.8880 H         1 UNK         0.2998 
    101 H101       28.2950  -31.2423  -39.5182 H         1 UNK         0.0822 
    102 H102       29.2128  -31.7509  -41.7892 H         1 UNK         0.0787 
    103 H103       28.3032  -30.4110  -42.4765 H         1 UNK         0.0787 
    104 H104       29.5802  -30.1034  -41.3041 H         1 UNK         0.0787 
    105 H105       25.9695  -30.7967  -42.2768 H         1 UNK         0.3055 
    106 H106       24.1425  -32.7686  -41.2927 H         1 UNK         0.1106 
    107 H107       24.3488  -34.3190  -43.2668 H         1 UNK         0.0828 
    108 H108       25.7875  -33.4594  -43.8008 H         1 UNK         0.0828 
    109 H109       25.8011  -34.3590  -42.2857 H         1 UNK         0.0828 
    110 H110       22.1327  -32.3977  -42.2508 H         1 UNK         0.2931 
    111 H111       21.9007  -30.1082  -44.0663 H         1 UNK         0.0412 
    112 H112       22.3729  -33.3753  -44.7412 H         1 UNK         0.3472 
    113 H113       21.4834  -33.4144  -46.2424 H         1 UNK         0.3472 
    114 H114       19.4709  -30.2053  -43.5506 H         1 UNK         0.0970 
    115 H115       20.4798  -29.9735  -42.1706 H         1 UNK         0.0970 
    116 H116       18.5106  -32.9304  -44.0892 H         1 UNK         0.0612 
    117 H117       17.5978  -33.4757  -42.7061 H         1 UNK         0.0612 
@<TRIPOS>BOND
     1    1    2 1    
     2    1   62 1    
     3    1   63 1    
     4    1   64 1    
     5    2    3 2    
     6    2    4 am   BACKBONE|DICT|INTERRES
     7    4    5 1    
     8    4   65 1    
     9    5    6 1    
    10    5   25 1    
    11    5   66 1    
    12    6    7 1    
    13    6   67 1    
    14    6   68 1    
    15    7    8 1    
    16    8    9 1    
    17    8   69 1    
    18    8   70 1    
    19    9   10 ar   
    20    9   14 ar   
    21   10   11 ar   
    22   10   71 1    
    23   11   12 ar   
    24   11   61 1    
    25   12   13 ar   
    26   12   72 1    
    27   13   14 ar   
    28   13   15 1    
    29   14   73 1    
    30   15   16 1    
    31   15   74 1    
    32   15   75 1    
    33   16   17 1    
    34   17   18 1    
    35   17   76 1    
    36   17   77 1    
    37   18   19 1    
    38   18   27 1    
    39   18   78 1    
    40   19   20 am   BACKBONE|DICT|INTERRES
    41   19   79 1    
    42   20   21 2    
    43   20   22 1    
    44   22   23 1    
    45   22   24 1    
    46   22   80 1    
    47   23   81 1    
    48   23   82 1    
    49   23   83 1    
    50   24   25 am   BACKBONE|DICT|INTERRES
    51   24   84 1    
    52   25   26 2    
    53   27   28 2    
    54   27   29 am   BACKBONE|DICT|INTERRES
    55   29   30 1    
    56   29   85 1    
    57   30   31 1    
    58   30   32 1    
    59   30   86 1    
    60   31   87 1    
    61   31   88 1    
    62   31   89 1    
    63   32   33 2    
    64   32   34 am   BACKBONE|DICT|INTERRES
    65   34   35 1    
    66   34   90 1    
    67   35   36 1    
    68   35   37 1    
    69   35   91 1    
    70   36   92 1    
    71   36   93 1    
    72   36   94 1    
    73   37   38 2    
    74   37   39 am   BACKBONE|DICT|INTERRES
    75   39   40 1    
    76   39   95 1    
    77   40   41 1    
    78   40   42 1    
    79   40   96 1    
    80   41   97 1    
    81   41   98 1    
    82   41   99 1    
    83   42   43 2    
    84   42   44 am   BACKBONE|DICT|INTERRES
    85   44   45 1    
    86   44  100 1    
    87   45   46 1    
    88   45   47 1    
    89   45  101 1    
    90   46  102 1    
    91   46  103 1    
    92   46  104 1    
    93   47   48 2    
    94   47   49 am   BACKBONE|DICT|INTERRES
    95   49   50 1    
    96   49  105 1    
    97   50   51 1    
    98   50   52 1    
    99   50  106 1    
   100   51  107 1    
   101   51  108 1    
   102   51  109 1    
   103   52   53 2    
   104   52   54 am   BACKBONE|DICT|INTERRES
   105   54   55 1    
   106   54  110 1    
   107   55   56 1    
   108   55   59 1    
   109   55  111 1    
   110   56   57 am   BACKBONE|DICT|INTERRES
   111   56   58 2    
   112   57  112 1    
   113   57  113 1    
   114   59   60 1    
   115   59  114 1    
   116   59  115 1    
   117   60   61 1    
   118   61  116 1    
   119   61  117 1    
@<TRIPOS>SUBSTRUCTURE
     1 UNK         1 GROUP             0       ****    0 ROOT    
