@<TRIPOS>MOLECULE
3R8
117   119    1
SMALL
USER_CHARGES


@<TRIPOS>ATOM
      1 CA         13.7445  -25.6461  -45.4277 C.3       0 UNK        -0.2013 
      2 C          15.0256  -24.8604  -45.6656 C.2       0 UNK         0.4866 
      3 O          14.9905  -23.6297  -45.7032 O.2       0 UNK        -0.5176 
      4 N          16.1526  -25.5634  -45.8333 N.am      1 UNK        -0.4884 
      5 CA         17.4907  -24.9813  -45.9865 C.3       1 UNK         0.0853 
      6 C6         18.3856  -25.8653  -46.9109 C.3       10 UNK        -0.0849 
      7 S7         19.3571  -27.1871  -46.1014 S.3       10 UNK        -0.2776 
      8 C8         18.2236  -28.6036  -46.1694 C.3       10 UNK         0.0316 
      9 C9         18.5716  -29.5792  -45.0596 C.ar      10 UNK        -0.0863 
     10 C10        19.5434  -30.5625  -45.2653 C.ar      10 UNK        -0.1009 
     11 C11        19.9154  -31.4188  -44.2254 C.ar      10 UNK        -0.0712 
     12 C12        19.3039  -31.2849  -42.9747 C.ar      10 UNK        -0.0894 
     13 C13        18.3060  -30.3288  -42.7682 C.ar      10 UNK        -0.0745 
     14 C14        17.9475  -29.4731  -43.8130 C.ar      10 UNK        -0.0972 
     15 C15        17.6084  -30.2354  -41.4194 C.3       10 UNK         0.0209 
     16 S16        18.6487  -29.4282  -40.1649 S.3       10 UNK        -0.2568 
     17 C17        18.6330  -27.6879  -40.7157 C.3       10 UNK        -0.0983 
     18 CA         19.9328  -27.2493  -41.4359 C.3       3 UNK         0.0876 
     19 N          19.7405  -25.9557  -42.1045 N.am      3 UNK        -0.4424 
     20 C          20.6522  -25.2796  -42.8149 C.2       2 UNK         0.4918 
     21 O          21.8082  -25.6683  -42.9878 O.2       2 UNK        -0.4875 
     22 CA         20.1841  -23.9424  -43.4247 C.3       2 UNK         0.0481 
     23 CB         21.3665  -23.0298  -43.7971 C.3       2 UNK        -0.1831 
     24 N          19.3557  -24.1581  -44.6122 N.am      2 UNK        -0.4498 
     25 C          18.1091  -24.6508  -44.6050 C.2       1 UNK         0.5027 
     26 O          17.4791  -24.8718  -43.5648 O.2       1 UNK        -0.4969 
     27 C          21.1516  -27.2625  -40.4848 C.2       3 UNK         0.5005 
     28 O          21.9058  -28.2360  -40.4734 O.2       3 UNK        -0.5279 
     29 N          21.3549  -26.1586  -39.7497 N.am      4 UNK        -0.4463 
     30 CA         22.4901  -25.9536  -38.8453 C.3       4 UNK         0.0283 
     31 CB         22.2491  -24.6874  -38.0080 C.3       4 UNK        -0.1875 
     32 C          23.8520  -25.8712  -39.5603 C.2       4 UNK         0.4949 
     33 O          24.8634  -26.2303  -38.9577 O.2       4 UNK        -0.5039 
     34 N          23.8611  -25.4066  -40.8180 N.am      5 UNK        -0.4663 
     35 CA         25.0515  -25.3771  -41.6701 C.3       5 UNK         0.0242 
     36 CB         24.9284  -24.2421  -42.7000 C.3       5 UNK        -0.1982 
     37 C          25.2733  -26.7276  -42.3685 C.2       5 UNK         0.5017 
     38 O          26.4242  -27.1340  -42.5308 O.2       5 UNK        -0.5012 
     39 N          24.1765  -27.3957  -42.7599 N.am      6 UNK        -0.4439 
     40 CA         24.1753  -28.7329  -43.3583 C.3       6 UNK         0.0297 
     41 CB         22.7683  -29.0746  -43.8769 C.3       6 UNK        -0.2006 
     42 C          24.6888  -29.8078  -42.3835 C.2       6 UNK         0.4892 
     43 O          25.5867  -30.5663  -42.7505 O.2       6 UNK        -0.5089 
     44 N          24.1340  -29.8144  -41.1595 N.am      7 UNK        -0.4243 
     45 CA         24.5332  -30.6159  -39.9942 C.3       7 UNK         0.0196 
     46 CB         25.8436  -30.0552  -39.4032 C.3       7 UNK        -0.2007 
     47 C          24.6013  -32.1335  -40.2665 C.2       7 UNK         0.5020 
     48 O          25.5615  -32.7933  -39.8632 O.2       7 UNK        -0.5147 
     49 N          23.5858  -32.6608  -40.9580 N.am      8 UNK        -0.4734 
     50 CA         23.4851  -34.0587  -41.3785 C.3       8 UNK         0.0238 
     51 CB         24.3430  -34.2834  -42.6451 C.3       8 UNK        -0.1912 
     52 C          22.0037  -34.4256  -41.5683 C.2       8 UNK         0.5038 
     53 O          21.1419  -33.7956  -40.9509 O.2       8 UNK        -0.5046 
     54 N          21.7327  -35.4077  -42.4390 N.am      9 UNK        -0.4200 
     55 CA         20.3930  -35.8700  -42.8493 C.3       9 UNK         0.0839 
     56 C          19.5886  -36.6058  -41.7333 C.2       9 UNK         0.5513 
     57 N          20.2186  -37.0666  -40.6592 N.am      9 UNK        -0.7519 
     58 O          18.3806  -36.7944  -41.8538 O.2       9 UNK        -0.4960 
     59 C59        19.5533  -34.7688  -43.5644 C.3       10 UNK        -0.0876 
     60 S60        20.3720  -34.0558  -45.0370 S.3       10 UNK        -0.2414 
     61 C61        21.0102  -32.4526  -44.4451 C.3       10 UNK         0.0169 
     62 H62        13.9168  -26.7222  -45.4376 H         1 UNK         0.0903 
     63 H63        13.3166  -25.3805  -44.4614 H         1 UNK         0.0903 
     64 H64        13.0123  -25.4133  -46.2004 H         1 UNK         0.0903 
     65 H65        16.1220  -26.5676  -45.7446 H         1 UNK         0.3096 
     66 H66        17.3738  -24.0198  -46.4927 H         1 UNK         0.1121 
     67 H67        19.1104  -25.2220  -47.4125 H         1 UNK         0.0849 
     68 H68        17.7949  -26.2952  -47.7220 H         1 UNK         0.0849 
     69 H69        17.1909  -28.2715  -46.0631 H         1 UNK         0.0865 
     70 H70        18.2963  -29.0861  -47.1453 H         1 UNK         0.0865 
     71 H71        20.0298  -30.6435  -46.2279 H         1 UNK         0.1346 
     72 H72        19.6031  -31.9212  -42.1535 H         1 UNK         0.1412 
     73 H73        17.1932  -28.7148  -43.6520 H         1 UNK         0.1426 
     74 H74        16.6581  -29.7061  -41.5053 H         1 UNK         0.0716 
     75 H75        17.3633  -31.2409  -41.0740 H         1 UNK         0.0716 
     76 H76        18.4431  -27.0555  -39.8464 H         1 UNK         0.0695 
     77 H77        17.7759  -27.5428  -41.3752 H         1 UNK         0.0695 
     78 H78        20.1386  -27.9706  -42.2293 H         1 UNK         0.0983 
     79 H79        18.7965  -25.5858  -42.1066 H         1 UNK         0.3095 
     80 H80        19.5886  -23.4212  -42.6721 H         1 UNK         0.0454 
     81 H81        21.0217  -22.0608  -44.1580 H         1 UNK         0.0851 
     82 H82        21.9932  -23.4724  -44.5725 H         1 UNK         0.0851 
     83 H83        22.0028  -22.8425  -42.9312 H         1 UNK         0.0851 
     84 H84        19.8209  -24.0452  -45.5013 H         1 UNK         0.2976 
     85 H85        20.6885  -25.4037  -39.8264 H         1 UNK         0.3116 
     86 H86        22.5308  -26.8084  -38.1666 H         1 UNK         0.0646 
     87 H87        21.3324  -24.7648  -37.4232 H         1 UNK         0.0847 
     88 H88        23.0663  -24.5251  -37.3035 H         1 UNK         0.0847 
     89 H89        22.1774  -23.7961  -38.6326 H         1 UNK         0.0847 
     90 H90        22.9810  -25.1817  -41.2635 H         1 UNK         0.3040 
     91 H91        25.9292  -25.1739  -41.0518 H         1 UNK         0.1015 
     92 H92        24.1071  -24.4097  -43.3966 H         1 UNK         0.0786 
     93 H93        25.8406  -24.1577  -43.2921 H         1 UNK         0.0786 
     94 H94        24.7675  -23.2797  -42.2142 H         1 UNK         0.0786 
     95 H95        23.2759  -26.9420  -42.6438 H         1 UNK         0.3172 
     96 H96        24.8507  -28.7065  -44.2160 H         1 UNK         0.0595 
     97 H97        22.0464  -29.1843  -43.0678 H         1 UNK         0.0839 
     98 H98        22.7816  -30.0148  -44.4276 H         1 UNK         0.0839 
     99 H99        22.3928  -28.3085  -44.5562 H         1 UNK         0.0839 
    100 H100       23.3671  -29.1642  -40.9842 H         1 UNK         0.2998 
    101 H101       23.7493  -30.4765  -39.2482 H         1 UNK         0.0822 
    102 H102       26.1054  -30.5618  -38.4734 H         1 UNK         0.0787 
    103 H103       26.6802  -30.1795  -40.0918 H         1 UNK         0.0787 
    104 H104       25.7521  -28.9924  -39.1775 H         1 UNK         0.0787 
    105 H105       22.7900  -32.0797  -41.1870 H         1 UNK         0.3055 
    106 H106       23.8638  -34.6959  -40.5762 H         1 UNK         0.1106 
    107 H107       25.3692  -33.9474  -42.4944 H         1 UNK         0.0828 
    108 H108       24.3996  -35.3387  -42.9133 H         1 UNK         0.0828 
    109 H109       23.9447  -33.7402  -43.5031 H         1 UNK         0.0828 
    110 H110       22.5046  -35.8714  -42.8949 H         1 UNK         0.2931 
    111 H111       20.5840  -36.6456  -43.5918 H         1 UNK         0.0412 
    112 H112       19.6931  -37.5508  -39.9480 H         1 UNK         0.3472 
    113 H113       21.2111  -36.9330  -40.5510 H         1 UNK         0.3472 
    114 H114       18.6095  -35.1903  -43.9146 H         1 UNK         0.0970 
    115 H115       19.2724  -33.9885  -42.8617 H         1 UNK         0.0970 
    116 H116       21.5896  -32.5815  -43.5343 H         1 UNK         0.0612 
    117 H117       21.7160  -32.0806  -45.1889 H         1 UNK         0.0612 
@<TRIPOS>BOND
     1    1    2 1    
     2    1   62 1    
     3    1   63 1    
     4    1   64 1    
     5    2    3 2    
     6    2    4 am   BACKBONE|DICT|INTERRES
     7    4    5 1    
     8    4   65 1    
     9    5    6 1    
    10    5   25 1    
    11    5   66 1    
    12    6    7 1    
    13    6   67 1    
    14    6   68 1    
    15    7    8 1    
    16    8    9 1    
    17    8   69 1    
    18    8   70 1    
    19    9   10 ar   
    20    9   14 ar   
    21   10   11 ar   
    22   10   71 1    
    23   11   12 ar   
    24   11   61 1    
    25   12   13 ar   
    26   12   72 1    
    27   13   14 ar   
    28   13   15 1    
    29   14   73 1    
    30   15   16 1    
    31   15   74 1    
    32   15   75 1    
    33   16   17 1    
    34   17   18 1    
    35   17   76 1    
    36   17   77 1    
    37   18   19 1    
    38   18   27 1    
    39   18   78 1    
    40   19   20 am   BACKBONE|DICT|INTERRES
    41   19   79 1    
    42   20   21 2    
    43   20   22 1    
    44   22   23 1    
    45   22   24 1    
    46   22   80 1    
    47   23   81 1    
    48   23   82 1    
    49   23   83 1    
    50   24   25 am   BACKBONE|DICT|INTERRES
    51   24   84 1    
    52   25   26 2    
    53   27   28 2    
    54   27   29 am   BACKBONE|DICT|INTERRES
    55   29   30 1    
    56   29   85 1    
    57   30   31 1    
    58   30   32 1    
    59   30   86 1    
    60   31   87 1    
    61   31   88 1    
    62   31   89 1    
    63   32   33 2    
    64   32   34 am   BACKBONE|DICT|INTERRES
    65   34   35 1    
    66   34   90 1    
    67   35   36 1    
    68   35   37 1    
    69   35   91 1    
    70   36   92 1    
    71   36   93 1    
    72   36   94 1    
    73   37   38 2    
    74   37   39 am   BACKBONE|DICT|INTERRES
    75   39   40 1    
    76   39   95 1    
    77   40   41 1    
    78   40   42 1    
    79   40   96 1    
    80   41   97 1    
    81   41   98 1    
    82   41   99 1    
    83   42   43 2    
    84   42   44 am   BACKBONE|DICT|INTERRES
    85   44   45 1    
    86   44  100 1    
    87   45   46 1    
    88   45   47 1    
    89   45  101 1    
    90   46  102 1    
    91   46  103 1    
    92   46  104 1    
    93   47   48 2    
    94   47   49 am   BACKBONE|DICT|INTERRES
    95   49   50 1    
    96   49  105 1    
    97   50   51 1    
    98   50   52 1    
    99   50  106 1    
   100   51  107 1    
   101   51  108 1    
   102   51  109 1    
   103   52   53 2    
   104   52   54 am   BACKBONE|DICT|INTERRES
   105   54   55 1    
   106   54  110 1    
   107   55   56 1    
   108   55   59 1    
   109   55  111 1    
   110   56   57 am   BACKBONE|DICT|INTERRES
   111   56   58 2    
   112   57  112 1    
   113   57  113 1    
   114   59   60 1    
   115   59  114 1    
   116   59  115 1    
   117   60   61 1    
   118   61  116 1    
   119   61  117 1    
@<TRIPOS>SUBSTRUCTURE
     1 UNK         1 GROUP             0       ****    0 ROOT    
