@<TRIPOS>MOLECULE
3R8
117   119    1
SMALL
USER_CHARGES


@<TRIPOS>ATOM
      1 CA         22.7179  -29.0979  -47.8624 C.3       0 UNK        -0.2013 
      2 C          21.3953  -28.3752  -47.6550 C.2       0 UNK         0.4866 
      3 O          21.0878  -27.4434  -48.3980 O.2       0 UNK        -0.5176 
      4 N          20.6223  -28.7915  -46.6426 N.am      1 UNK        -0.4884 
      5 CA         19.3060  -28.2489  -46.2628 C.3       1 UNK         0.0853 
      6 C6         18.1981  -28.4497  -47.3337 C.3       10 UNK        -0.0849 
      7 S7         17.7466  -30.2059  -47.5008 S.3       10 UNK        -0.2776 
      8 C8         16.1674  -30.2523  -46.5827 C.3       10 UNK         0.0316 
      9 C9         16.3240  -29.9998  -45.0842 C.ar      10 UNK        -0.0863 
     10 C10        17.1741  -30.8052  -44.3211 C.ar      10 UNK        -0.1009 
     11 C11        17.2663  -30.6306  -42.9385 C.ar      10 UNK        -0.0712 
     12 C12        16.4870  -29.6568  -42.3124 C.ar      10 UNK        -0.0894 
     13 C13        15.6508  -28.8195  -43.0602 C.ar      10 UNK        -0.0745 
     14 C14        15.5775  -28.9993  -44.4480 C.ar      10 UNK        -0.0972 
     15 C15        14.7683  -27.7655  -42.3875 C.3       10 UNK         0.0209 
     16 S16        15.4587  -27.0436  -40.8528 S.3       10 UNK        -0.2568 
     17 C17        16.6708  -25.8436  -41.4968 C.3       10 UNK        -0.0983 
     18 CA         18.1095  -26.4119  -41.5704 C.3       3 UNK         0.0876 
     19 N          18.9195  -25.6602  -42.5285 N.am      3 UNK        -0.4424 
     20 C          20.1737  -25.9542  -42.8871 C.2       2 UNK         0.4918 
     21 O          20.8864  -26.7886  -42.3275 O.2       2 UNK        -0.4875 
     22 CA         20.6444  -25.3321  -44.2097 C.3       2 UNK         0.0481 
     23 CB         22.0902  -24.8154  -44.1427 C.3       2 UNK        -0.1831 
     24 N          20.5317  -26.3876  -45.2149 N.am      2 UNK        -0.4498 
     25 C          19.3600  -26.8055  -45.7158 C.2       1 UNK         0.5027 
     26 O          18.3324  -26.1259  -45.6674 O.2       1 UNK        -0.4969 
     27 C          18.7850  -26.5439  -40.1887 C.2       3 UNK         0.5005 
     28 O          18.9530  -25.5411  -39.4911 O.2       3 UNK        -0.5279 
     29 N          19.1797  -27.7822  -39.8554 N.am      4 UNK        -0.4463 
     30 CA         19.8774  -28.2186  -38.6414 C.3       4 UNK         0.0283 
     31 CB         19.0367  -27.9294  -37.3797 C.3       4 UNK        -0.1875 
     32 C          21.3279  -27.7108  -38.5096 C.2       4 UNK         0.4949 
     33 O          21.9074  -27.8435  -37.4299 O.2       4 UNK        -0.5039 
     34 N          21.9272  -27.1815  -39.5872 N.am      5 UNK        -0.4663 
     35 CA         23.3050  -26.6766  -39.6066 C.3       5 UNK         0.0242 
     36 CB         23.4386  -25.5856  -40.6836 C.3       5 UNK        -0.1982 
     37 C          24.3312  -27.8136  -39.7798 C.2       5 UNK         0.5017 
     38 O          25.0869  -27.8247  -40.7546 O.2       5 UNK        -0.5012 
     39 N          24.3327  -28.7480  -38.8179 N.am      6 UNK        -0.4439 
     40 CA         25.2452  -29.8863  -38.6676 C.3       6 UNK         0.0297 
     41 CB         26.6185  -29.3937  -38.1565 C.3       6 UNK        -0.2006 
     42 C          25.3247  -30.7524  -39.9403 C.2       6 UNK         0.4892 
     43 O          24.3496  -31.4315  -40.2657 O.2       6 UNK        -0.5089 
     44 N          26.4667  -30.6958  -40.6419 N.am      7 UNK        -0.4243 
     45 CA         26.7750  -31.4395  -41.8673 C.3       7 UNK         0.0196 
     46 CB         28.2171  -31.1252  -42.2961 C.3       7 UNK        -0.2007 
     47 C          25.8039  -31.1931  -43.0354 C.2       7 UNK         0.5020 
     48 O          25.6638  -32.0724  -43.8855 O.2       7 UNK        -0.5147 
     49 N          25.1084  -30.0459  -43.0421 N.am      8 UNK        -0.4734 
     50 CA         24.0430  -29.7289  -44.0022 C.3       8 UNK         0.0238 
     51 CB         23.6597  -28.2524  -43.8545 C.3       8 UNK        -0.1912 
     52 C          22.7909  -30.6204  -43.8705 C.2       8 UNK         0.5038 
     53 O          21.9768  -30.6412  -44.7959 O.2       8 UNK        -0.5046 
     54 N          22.6721  -31.3334  -42.7446 N.am      9 UNK        -0.4200 
     55 CA         21.6708  -32.3703  -42.4716 C.3       9 UNK         0.0839 
     56 C          22.3107  -33.7828  -42.3300 C.2       9 UNK         0.5513 
     57 N          23.5619  -33.9965  -42.7240 N.am      9 UNK        -0.7519 
     58 O          21.6538  -34.7176  -41.8789 O.2       9 UNK        -0.4960 
     59 C59        20.7954  -31.9854  -41.2494 C.3       10 UNK        -0.0876 
     60 S60        19.6980  -30.5874  -41.6495 S.3       10 UNK        -0.2414 
     61 C61        18.1981  -31.5019  -42.1169 C.3       10 UNK         0.0169 
     62 H62        23.5462  -28.4657  -47.5438 H         1 UNK         0.0903 
     63 H63        22.7635  -30.0316  -47.3026 H         1 UNK         0.0903 
     64 H64        22.8552  -29.3347  -48.9172 H         1 UNK         0.0903 
     65 H65        20.9585  -29.5522  -46.0541 H         1 UNK         0.3096 
     66 H66        19.0102  -28.8292  -45.3871 H         1 UNK         0.1121 
     67 H67        17.2909  -27.8959  -47.0866 H         1 UNK         0.0849 
     68 H68        18.5167  -28.0694  -48.3047 H         1 UNK         0.0849 
     69 H69        15.4736  -29.5383  -47.0294 H         1 UNK         0.0865 
     70 H70        15.7160  -31.2358  -46.7206 H         1 UNK         0.0865 
     71 H71        17.7593  -31.5749  -44.8063 H         1 UNK         0.1346 
     72 H72        16.5423  -29.5544  -41.2377 H         1 UNK         0.1412 
     73 H73        14.9119  -28.3769  -45.0309 H         1 UNK         0.1426 
     74 H74        13.8168  -28.2373  -42.1394 H         1 UNK         0.0716 
     75 H75        14.5346  -26.9606  -43.0861 H         1 UNK         0.0716 
     76 H76        16.6377  -24.9435  -40.8799 H         1 UNK         0.0695 
     77 H77        16.3366  -25.5313  -42.4876 H         1 UNK         0.0695 
     78 H78        18.0404  -27.4109  -42.0035 H         1 UNK         0.0983 
     79 H79        18.4201  -24.9789  -43.0813 H         1 UNK         0.3095 
     80 H80        19.9974  -24.4932  -44.4755 H         1 UNK         0.0454 
     81 H81        22.8033  -25.6082  -43.9271 H         1 UNK         0.0851 
     82 H82        22.1964  -24.0610  -43.3623 H         1 UNK         0.0851 
     83 H83        22.3856  -24.3520  -45.0839 H         1 UNK         0.0851 
     84 H84        21.3133  -27.0207  -45.2901 H         1 UNK         0.2976 
     85 H85        19.0509  -28.5155  -40.5420 H         1 UNK         0.3116 
     86 H86        19.9594  -29.3028  -38.7300 H         1 UNK         0.0646 
     87 H87        18.9751  -26.8615  -37.1689 H         1 UNK         0.0847 
     88 H88        19.4719  -28.4063  -36.5007 H         1 UNK         0.0847 
     89 H89        18.0210  -28.3111  -37.4823 H         1 UNK         0.0847 
     90 H90        21.4190  -27.1363  -40.4667 H         1 UNK         0.3040 
     91 H91        23.5175  -26.2013  -38.6461 H         1 UNK         0.1015 
     92 H92        24.4199  -25.1120  -40.6373 H         1 UNK         0.0786 
     93 H93        22.6915  -24.8023  -40.5545 H         1 UNK         0.0786 
     94 H94        23.3269  -25.9955  -41.6852 H         1 UNK         0.0786 
     95 H95        23.6187  -28.6531  -38.1012 H         1 UNK         0.3172 
     96 H96        24.8169  -30.5253  -37.8940 H         1 UNK         0.0595 
     97 H97        27.3106  -30.2250  -38.0136 H         1 UNK         0.0839 
     98 H98        26.5176  -28.8988  -37.1905 H         1 UNK         0.0839 
     99 H99        27.0847  -28.6812  -38.8382 H         1 UNK         0.0839 
    100 H100       27.1876  -30.0746  -40.3048 H         1 UNK         0.2998 
    101 H101       26.7139  -32.5019  -41.6221 H         1 UNK         0.0822 
    102 H102       28.4899  -31.6860  -43.1915 H         1 UNK         0.0787 
    103 H103       28.3483  -30.0661  -42.5224 H         1 UNK         0.0787 
    104 H104       28.9318  -31.3950  -41.5183 H         1 UNK         0.0787 
    105 H105       25.2632  -29.3779  -42.2937 H         1 UNK         0.3055 
    106 H106       24.4418  -29.8833  -45.0072 H         1 UNK         0.1106 
    107 H107       22.9360  -27.9643  -44.6159 H         1 UNK         0.0828 
    108 H108       23.2078  -28.0570  -42.8818 H         1 UNK         0.0828 
    109 H109       24.5256  -27.5992  -43.9626 H         1 UNK         0.0828 
    110 H110       23.3883  -31.2429  -42.0311 H         1 UNK         0.2931 
    111 H111       21.0094  -32.4667  -43.3346 H         1 UNK         0.0412 
    112 H112       24.1161  -33.2585  -43.1400 H         1 UNK         0.3472 
    113 H113       23.9508  -34.9215  -42.6312 H         1 UNK         0.3472 
    114 H114       20.1824  -32.8228  -40.9111 H         1 UNK         0.0970 
    115 H115       21.4237  -31.7125  -40.3996 H         1 UNK         0.0970 
    116 H116       17.6899  -31.8509  -41.2168 H         1 UNK         0.0612 
    117 H117       18.4738  -32.3925  -42.6841 H         1 UNK         0.0612 
@<TRIPOS>BOND
     1    1    2 1    
     2    1   62 1    
     3    1   63 1    
     4    1   64 1    
     5    2    3 2    
     6    2    4 am   BACKBONE|DICT|INTERRES
     7    4    5 1    
     8    4   65 1    
     9    5    6 1    
    10    5   25 1    
    11    5   66 1    
    12    6    7 1    
    13    6   67 1    
    14    6   68 1    
    15    7    8 1    
    16    8    9 1    
    17    8   69 1    
    18    8   70 1    
    19    9   10 ar   
    20    9   14 ar   
    21   10   11 ar   
    22   10   71 1    
    23   11   12 ar   
    24   11   61 1    
    25   12   13 ar   
    26   12   72 1    
    27   13   14 ar   
    28   13   15 1    
    29   14   73 1    
    30   15   16 1    
    31   15   74 1    
    32   15   75 1    
    33   16   17 1    
    34   17   18 1    
    35   17   76 1    
    36   17   77 1    
    37   18   19 1    
    38   18   27 1    
    39   18   78 1    
    40   19   20 am   BACKBONE|DICT|INTERRES
    41   19   79 1    
    42   20   21 2    
    43   20   22 1    
    44   22   23 1    
    45   22   24 1    
    46   22   80 1    
    47   23   81 1    
    48   23   82 1    
    49   23   83 1    
    50   24   25 am   BACKBONE|DICT|INTERRES
    51   24   84 1    
    52   25   26 2    
    53   27   28 2    
    54   27   29 am   BACKBONE|DICT|INTERRES
    55   29   30 1    
    56   29   85 1    
    57   30   31 1    
    58   30   32 1    
    59   30   86 1    
    60   31   87 1    
    61   31   88 1    
    62   31   89 1    
    63   32   33 2    
    64   32   34 am   BACKBONE|DICT|INTERRES
    65   34   35 1    
    66   34   90 1    
    67   35   36 1    
    68   35   37 1    
    69   35   91 1    
    70   36   92 1    
    71   36   93 1    
    72   36   94 1    
    73   37   38 2    
    74   37   39 am   BACKBONE|DICT|INTERRES
    75   39   40 1    
    76   39   95 1    
    77   40   41 1    
    78   40   42 1    
    79   40   96 1    
    80   41   97 1    
    81   41   98 1    
    82   41   99 1    
    83   42   43 2    
    84   42   44 am   BACKBONE|DICT|INTERRES
    85   44   45 1    
    86   44  100 1    
    87   45   46 1    
    88   45   47 1    
    89   45  101 1    
    90   46  102 1    
    91   46  103 1    
    92   46  104 1    
    93   47   48 2    
    94   47   49 am   BACKBONE|DICT|INTERRES
    95   49   50 1    
    96   49  105 1    
    97   50   51 1    
    98   50   52 1    
    99   50  106 1    
   100   51  107 1    
   101   51  108 1    
   102   51  109 1    
   103   52   53 2    
   104   52   54 am   BACKBONE|DICT|INTERRES
   105   54   55 1    
   106   54  110 1    
   107   55   56 1    
   108   55   59 1    
   109   55  111 1    
   110   56   57 am   BACKBONE|DICT|INTERRES
   111   56   58 2    
   112   57  112 1    
   113   57  113 1    
   114   59   60 1    
   115   59  114 1    
   116   59  115 1    
   117   60   61 1    
   118   61  116 1    
   119   61  117 1    
@<TRIPOS>SUBSTRUCTURE
     1 UNK         1 GROUP             0       ****    0 ROOT    
