@<TRIPOS>MOLECULE
3R8
117   119    1
SMALL
USER_CHARGES


@<TRIPOS>ATOM
      1 CA         11.4408  -26.4437  -41.5384 C.3       0 UNK        -0.2013 
      2 C          12.8148  -26.1123  -42.1016 C.2       0 UNK         0.4866 
      3 O          13.5328  -25.2956  -41.5234 O.2       0 UNK        -0.5176 
      4 N          13.1831  -26.7317  -43.2300 N.am      1 UNK        -0.4884 
      5 CA         14.4963  -26.5891  -43.8653 C.3       1 UNK         0.0853 
      6 C6         14.4534  -27.0668  -45.3381 C.3       10 UNK        -0.0849 
      7 S7         15.9179  -26.5547  -46.3071 S.3       10 UNK        -0.2776 
      8 C8         16.3594  -28.0964  -47.1724 C.3       10 UNK         0.0316 
      9 C9         17.3638  -28.9532  -46.4080 C.ar      10 UNK        -0.0863 
     10 C10        16.9329  -29.8699  -45.4424 C.ar      10 UNK        -0.1009 
     11 C11        17.8430  -30.7366  -44.8270 C.ar      10 UNK        -0.0712 
     12 C12        19.1943  -30.6771  -45.1793 C.ar      10 UNK        -0.0894 
     13 C13        19.6409  -29.7605  -46.1342 C.ar      10 UNK        -0.0745 
     14 C14        18.7230  -28.8938  -46.7367 C.ar      10 UNK        -0.0972 
     15 C15        21.1016  -29.7671  -46.5650 C.3       10 UNK         0.0209 
     16 S16        22.1875  -28.9345  -45.3663 S.3       10 UNK        -0.2568 
     17 C17        21.8080  -27.1754  -45.6787 C.3       10 UNK        -0.0983 
     18 CA         21.2319  -26.4179  -44.4560 C.3       3 UNK         0.0876 
     19 N          20.0679  -27.0968  -43.8845 N.am      3 UNK        -0.4424 
     20 C          19.1538  -26.4969  -43.1173 C.2       2 UNK         0.4918 
     21 O          19.1545  -25.2898  -42.8633 O.2       2 UNK        -0.4875 
     22 CA         18.0235  -27.3701  -42.5693 C.3       2 UNK         0.0481 
     23 CB         18.0622  -27.4449  -41.0318 C.3       2 UNK        -0.1831 
     24 N          16.7829  -26.7729  -43.0422 N.am      2 UNK        -0.4498 
     25 C          15.5761  -27.3442  -43.0645 C.2       1 UNK         0.5027 
     26 O          15.3035  -28.4259  -42.5402 O.2       1 UNK        -0.4969 
     27 C          22.3069  -26.1444  -43.3831 C.2       3 UNK         0.5005 
     28 O          22.4230  -26.8940  -42.4088 O.2       3 UNK        -0.5279 
     29 N          23.0944  -25.0820  -43.5958 N.am      4 UNK        -0.4463 
     30 CA         24.2070  -24.6728  -42.7369 C.3       4 UNK         0.0283 
     31 CB         24.4255  -23.1555  -42.8897 C.3       4 UNK        -0.1875 
     32 C          25.4738  -25.4887  -43.0546 C.2       4 UNK         0.4949 
     33 O          26.4549  -24.9384  -43.5577 O.2       4 UNK        -0.5039 
     34 N          25.4174  -26.7932  -42.7738 N.am      5 UNK        -0.4663 
     35 CA         26.5134  -27.7455  -42.9302 C.3       5 UNK         0.0242 
     36 CB         26.2377  -28.6392  -44.1505 C.3       5 UNK        -0.1982 
     37 C          26.6469  -28.5689  -41.6430 C.2       5 UNK         0.5017 
     38 O          25.6489  -28.7894  -40.9507 O.2       5 UNK        -0.5012 
     39 N          27.8812  -28.9943  -41.3416 N.am      6 UNK        -0.4439 
     40 CA         28.2612  -29.7078  -40.1200 C.3       6 UNK         0.0297 
     41 CB         29.7850  -29.9177  -40.1042 C.3       6 UNK        -0.2006 
     42 C          27.5193  -31.0455  -39.9637 C.2       6 UNK         0.4892 
     43 O          27.7331  -31.9546  -40.7680 O.2       6 UNK        -0.5089 
     44 N          26.6624  -31.1174  -38.9346 N.am      7 UNK        -0.4243 
     45 CA         25.8185  -32.2564  -38.5477 C.3       7 UNK         0.0196 
     46 CB         26.6882  -33.4399  -38.0703 C.3       7 UNK        -0.2007 
     47 C          24.7823  -32.6780  -39.6121 C.2       7 UNK         0.5020 
     48 O          24.3068  -33.8143  -39.5735 O.2       7 UNK        -0.5147 
     49 N          24.4358  -31.7729  -40.5371 N.am      8 UNK        -0.4734 
     50 CA         23.4230  -32.0062  -41.5664 C.3       8 UNK         0.0238 
     51 CB         23.6980  -31.0807  -42.7595 C.3       8 UNK        -0.1912 
     52 C          22.0092  -31.7651  -41.0168 C.2       8 UNK         0.5038 
     53 O          21.8258  -30.9002  -40.1558 O.2       8 UNK        -0.5046 
     54 N          21.0355  -32.5028  -41.5657 N.am      9 UNK        -0.4200 
     55 CA         19.6080  -32.4336  -41.2191 C.3       9 UNK         0.0839 
     56 C          19.2963  -32.8805  -39.7561 C.2       9 UNK         0.5513 
     57 N          18.1323  -32.5383  -39.2216 N.am      9 UNK        -0.7519 
     58 O          20.0767  -33.5834  -39.1168 O.2       9 UNK        -0.4960 
     59 C59        18.9873  -31.0632  -41.6292 C.3       10 UNK        -0.0876 
     60 S60        17.2380  -31.1869  -42.1324 S.3       10 UNK        -0.2414 
     61 C61        17.3558  -31.7940  -43.8451 C.3       10 UNK         0.0169 
     62 H62        10.8333  -25.5413  -41.4751 H         1 UNK         0.0903 
     63 H63        10.9095  -27.1672  -42.1566 H         1 UNK         0.0903 
     64 H64        11.5373  -26.8606  -40.5362 H         1 UNK         0.0903 
     65 H65        12.5680  -27.4200  -43.6405 H         1 UNK         0.3096 
     66 H66        14.7440  -25.5246  -43.8601 H         1 UNK         0.1121 
     67 H67        14.3186  -28.1486  -45.3872 H         1 UNK         0.0849 
     68 H68        13.5823  -26.6388  -45.8371 H         1 UNK         0.0849 
     69 H69        15.4615  -28.6759  -47.3922 H         1 UNK         0.0865 
     70 H70        16.7745  -27.8293  -48.1456 H         1 UNK         0.0865 
     71 H71        15.8837  -29.9354  -45.1900 H         1 UNK         0.1346 
     72 H72        19.8985  -31.3649  -44.7311 H         1 UNK         0.1412 
     73 H73        19.0602  -28.2007  -47.4955 H         1 UNK         0.1426 
     74 H74        21.2208  -29.3081  -47.5478 H         1 UNK         0.0716 
     75 H75        21.4369  -30.7994  -46.6754 H         1 UNK         0.0716 
     76 H76        21.0996  -27.1029  -46.5045 H         1 UNK         0.0695 
     77 H77        22.7165  -26.6910  -46.0416 H         1 UNK         0.0695 
     78 H78        20.8910  -25.4445  -44.8171 H         1 UNK         0.0983 
     79 H79        20.0143  -28.0908  -44.0551 H         1 UNK         0.3095 
     80 H80        18.1117  -28.3754  -42.9846 H         1 UNK         0.0454 
     81 H81        17.9012  -26.4669  -40.5770 H         1 UNK         0.0851 
     82 H82        19.0290  -27.8116  -40.6850 H         1 UNK         0.0851 
     83 H83        17.3015  -28.1240  -40.6469 H         1 UNK         0.0851 
     84 H84        16.9086  -25.8821  -43.5060 H         1 UNK         0.2976 
     85 H85        22.9628  -24.5399  -44.4382 H         1 UNK         0.3116 
     86 H86        23.9461  -24.8643  -41.6936 H         1 UNK         0.0646 
     87 H87        24.6811  -22.8817  -43.9141 H         1 UNK         0.0847 
     88 H88        25.2389  -22.8128  -42.2487 H         1 UNK         0.0847 
     89 H89        23.5345  -22.5957  -42.6050 H         1 UNK         0.0847 
     90 H90        24.5743  -27.1605  -42.3416 H         1 UNK         0.3040 
     91 H91        27.4548  -27.2138  -43.0870 H         1 UNK         0.1015 
     92 H92        26.2818  -28.0620  -45.0742 H         1 UNK         0.0786 
     93 H93        25.2510  -29.0982  -44.1002 H         1 UNK         0.0786 
     94 H94        26.9733  -29.4405  -44.2323 H         1 UNK         0.0786 
     95 H95        28.6290  -28.7999  -41.9920 H         1 UNK         0.3172 
     96 H96        28.0070  -29.0638  -39.2752 H         1 UNK         0.0595 
     97 H97        30.3193  -28.9677  -40.1269 H         1 UNK         0.0839 
     98 H98        30.1207  -30.5134  -40.9543 H         1 UNK         0.0839 
     99 H99        30.0965  -30.4407  -39.1989 H         1 UNK         0.0839 
    100 H100       26.5453  -30.2877  -38.3686 H         1 UNK         0.2998 
    101 H101       25.2337  -31.9163  -37.6917 H         1 UNK         0.0822 
    102 H102       27.3977  -33.1279  -37.3039 H         1 UNK         0.0787 
    103 H103       26.0739  -34.2297  -37.6361 H         1 UNK         0.0787 
    104 H104       27.2533  -33.8830  -38.8909 H         1 UNK         0.0787 
    105 H105       24.8342  -30.8420  -40.4914 H         1 UNK         0.3055 
    106 H106       23.4996  -33.0409  -41.9092 H         1 UNK         0.1106 
    107 H107       24.7016  -31.2366  -43.1550 H         1 UNK         0.0828 
    108 H108       22.9966  -31.2724  -43.5721 H         1 UNK         0.0828 
    109 H109       23.5996  -30.0287  -42.4858 H         1 UNK         0.0828 
    110 H110       21.2827  -33.2083  -42.2441 H         1 UNK         0.2931 
    111 H111       19.1586  -33.2081  -41.8408 H         1 UNK         0.0412 
    112 H112       17.4699  -31.9945  -39.7553 H         1 UNK         0.3472 
    113 H113       17.9076  -32.8373  -38.2854 H         1 UNK         0.3472 
    114 H114       19.0718  -30.3447  -40.8123 H         1 UNK         0.0970 
    115 H115       19.5437  -30.6155  -42.4518 H         1 UNK         0.0970 
    116 H116       16.3684  -32.1420  -44.1520 H         1 UNK         0.0612 
    117 H117       18.0033  -32.6711  -43.8788 H         1 UNK         0.0612 
@<TRIPOS>BOND
     1    1    2 1    
     2    1   62 1    
     3    1   63 1    
     4    1   64 1    
     5    2    3 2    
     6    2    4 am   BACKBONE|DICT|INTERRES
     7    4    5 1    
     8    4   65 1    
     9    5    6 1    
    10    5   25 1    
    11    5   66 1    
    12    6    7 1    
    13    6   67 1    
    14    6   68 1    
    15    7    8 1    
    16    8    9 1    
    17    8   69 1    
    18    8   70 1    
    19    9   10 ar   
    20    9   14 ar   
    21   10   11 ar   
    22   10   71 1    
    23   11   12 ar   
    24   11   61 1    
    25   12   13 ar   
    26   12   72 1    
    27   13   14 ar   
    28   13   15 1    
    29   14   73 1    
    30   15   16 1    
    31   15   74 1    
    32   15   75 1    
    33   16   17 1    
    34   17   18 1    
    35   17   76 1    
    36   17   77 1    
    37   18   19 1    
    38   18   27 1    
    39   18   78 1    
    40   19   20 am   BACKBONE|DICT|INTERRES
    41   19   79 1    
    42   20   21 2    
    43   20   22 1    
    44   22   23 1    
    45   22   24 1    
    46   22   80 1    
    47   23   81 1    
    48   23   82 1    
    49   23   83 1    
    50   24   25 am   BACKBONE|DICT|INTERRES
    51   24   84 1    
    52   25   26 2    
    53   27   28 2    
    54   27   29 am   BACKBONE|DICT|INTERRES
    55   29   30 1    
    56   29   85 1    
    57   30   31 1    
    58   30   32 1    
    59   30   86 1    
    60   31   87 1    
    61   31   88 1    
    62   31   89 1    
    63   32   33 2    
    64   32   34 am   BACKBONE|DICT|INTERRES
    65   34   35 1    
    66   34   90 1    
    67   35   36 1    
    68   35   37 1    
    69   35   91 1    
    70   36   92 1    
    71   36   93 1    
    72   36   94 1    
    73   37   38 2    
    74   37   39 am   BACKBONE|DICT|INTERRES
    75   39   40 1    
    76   39   95 1    
    77   40   41 1    
    78   40   42 1    
    79   40   96 1    
    80   41   97 1    
    81   41   98 1    
    82   41   99 1    
    83   42   43 2    
    84   42   44 am   BACKBONE|DICT|INTERRES
    85   44   45 1    
    86   44  100 1    
    87   45   46 1    
    88   45   47 1    
    89   45  101 1    
    90   46  102 1    
    91   46  103 1    
    92   46  104 1    
    93   47   48 2    
    94   47   49 am   BACKBONE|DICT|INTERRES
    95   49   50 1    
    96   49  105 1    
    97   50   51 1    
    98   50   52 1    
    99   50  106 1    
   100   51  107 1    
   101   51  108 1    
   102   51  109 1    
   103   52   53 2    
   104   52   54 am   BACKBONE|DICT|INTERRES
   105   54   55 1    
   106   54  110 1    
   107   55   56 1    
   108   55   59 1    
   109   55  111 1    
   110   56   57 am   BACKBONE|DICT|INTERRES
   111   56   58 2    
   112   57  112 1    
   113   57  113 1    
   114   59   60 1    
   115   59  114 1    
   116   59  115 1    
   117   60   61 1    
   118   61  116 1    
   119   61  117 1    
@<TRIPOS>SUBSTRUCTURE
     1 UNK         1 GROUP             0       ****    0 ROOT    
