@<TRIPOS>MOLECULE
3R8
117   119    1
SMALL
USER_CHARGES


@<TRIPOS>ATOM
      1 CA         18.7118  -25.3788  -49.3954 C.3       0 UNK        -0.2013 
      2 C          19.6097  -26.3113  -48.5961 C.2       0 UNK         0.4866 
      3 O          20.8090  -26.3849  -48.8640 O.2       0 UNK        -0.5176 
      4 N          19.0383  -27.0253  -47.6172 N.am      1 UNK        -0.4884 
      5 CA         19.7469  -27.9847  -46.7582 C.3       1 UNK         0.0853 
      6 C6         18.7677  -28.8801  -45.9632 C.3       10 UNK        -0.0849 
      7 S7         17.7012  -29.9108  -47.0222 S.3       10 UNK        -0.2776 
      8 C8         16.1059  -29.8215  -46.1365 C.3       10 UNK         0.0316 
      9 C9         16.2203  -30.1004  -44.6386 C.ar      10 UNK        -0.0863 
     10 C10        16.8795  -31.2421  -44.1681 C.ar      10 UNK        -0.1009 
     11 C11        16.9874  -31.4880  -42.7959 C.ar      10 UNK        -0.0712 
     12 C12        16.4013  -30.5978  -41.8922 C.ar      10 UNK        -0.0894 
     13 C13        15.7464  -29.4503  -42.3456 C.ar      10 UNK        -0.0745 
     14 C14        15.6592  -29.2067  -43.7196 C.ar      10 UNK        -0.0972 
     15 C15        15.1190  -28.4878  -41.3472 C.3       10 UNK         0.0209 
     16 S16        16.3578  -27.7122  -40.2590 S.3       10 UNK        -0.2568 
     17 C17        17.2538  -26.6108  -41.4077 C.3       10 UNK        -0.0983 
     18 CA         18.7760  -26.8995  -41.4787 C.3       3 UNK         0.0876 
     19 N          19.3782  -26.1906  -42.6153 N.am      3 UNK        -0.4424 
     20 C          20.6816  -26.0714  -42.9149 C.2       2 UNK         0.4918 
     21 O          21.6032  -26.5465  -42.2487 O.2       2 UNK        -0.4875 
     22 CA         20.9745  -25.3287  -44.2331 C.3       2 UNK         0.0481 
     23 CB         22.4718  -25.0245  -44.4483 C.3       2 UNK        -0.1831 
     24 N          20.4009  -26.0619  -45.3689 N.am      2 UNK        -0.4498 
     25 C          20.7071  -27.3121  -45.7576 C.2       1 UNK         0.5027 
     26 O          21.6611  -27.9593  -45.3271 O.2       1 UNK        -0.4969 
     27 C          19.4753  -26.5593  -40.1444 C.2       3 UNK         0.5005 
     28 O          19.6171  -25.3775  -39.8195 O.2       3 UNK        -0.5279 
     29 N          19.9293  -27.5980  -39.4276 N.am      4 UNK        -0.4463 
     30 CA         20.6748  -27.5905  -38.1588 C.3       4 UNK         0.0283 
     31 CB         19.8658  -26.9163  -37.0333 C.3       4 UNK        -0.1875 
     32 C          22.1021  -27.0110  -38.2359 C.2       4 UNK         0.4949 
     33 O          22.9699  -27.4806  -37.4997 O.2       4 UNK        -0.5039 
     34 N          22.3325  -26.0195  -39.1058 N.am      5 UNK        -0.4663 
     35 CA         23.6319  -25.3932  -39.3537 C.3       5 UNK         0.0242 
     36 CB         23.4382  -24.1212  -40.1950 C.3       5 UNK        -0.1982 
     37 C          24.6265  -26.3537  -40.0240 C.2       5 UNK         0.5017 
     38 O          25.7712  -26.4438  -39.5777 O.2       5 UNK        -0.5012 
     39 N          24.1701  -27.0677  -41.0612 N.am      6 UNK        -0.4439 
     40 CA         24.9166  -28.1446  -41.7041 C.3       6 UNK         0.0297 
     41 CB         24.5129  -28.2481  -43.1834 C.3       6 UNK        -0.2006 
     42 C          24.6292  -29.4578  -40.9693 C.2       6 UNK         0.4892 
     43 O          23.4858  -29.9184  -40.9774 O.2       6 UNK        -0.5089 
     44 N          25.6738  -30.0564  -40.3816 N.am      7 UNK        -0.4243 
     45 CA         25.6106  -31.3350  -39.6613 C.3       7 UNK         0.0196 
     46 CB         26.9574  -31.5916  -38.9660 C.3       7 UNK        -0.2007 
     47 C          25.2267  -32.5327  -40.5509 C.2       7 UNK         0.5020 
     48 O          24.6892  -33.5165  -40.0427 O.2       7 UNK        -0.5147 
     49 N          25.4877  -32.4214  -41.8610 N.am      8 UNK        -0.4734 
     50 CA         25.0793  -33.3878  -42.8832 C.3       8 UNK         0.0238 
     51 CB         25.8772  -33.1198  -44.1703 C.3       8 UNK        -0.1912 
     52 C          23.5666  -33.3740  -43.1781 C.2       8 UNK         0.5038 
     53 O          23.0678  -34.3506  -43.7388 O.2       8 UNK        -0.5046 
     54 N          22.8690  -32.2891  -42.8055 N.am      9 UNK        -0.4200 
     55 CA         21.4273  -32.0819  -43.0164 C.3       9 UNK         0.0839 
     56 C          21.0164  -32.0055  -44.5194 C.2       9 UNK         0.5513 
     57 N          21.8549  -31.4493  -45.3856 N.am      9 UNK        -0.7519 
     58 O          19.9450  -32.4542  -44.9151 O.2       9 UNK        -0.4960 
     59 C59        20.5665  -33.0663  -42.1653 C.3       10 UNK        -0.0876 
     60 S60        19.1933  -32.2307  -41.3025 S.3       10 UNK        -0.2414 
     61 C61        17.7320  -32.7116  -42.2815 C.3       10 UNK         0.0169 
     62 H62        19.0619  -24.3509  -49.3038 H         1 UNK         0.0903 
     63 H63        18.7315  -25.6527  -50.4500 H         1 UNK         0.0903 
     64 H64        17.6771  -25.4165  -49.0551 H         1 UNK         0.0903 
     65 H65        18.0421  -26.9532  -47.4644 H         1 UNK         0.3096 
     66 H66        20.3563  -28.6263  -47.3991 H         1 UNK         0.1121 
     67 H67        18.1479  -28.2631  -45.3095 H         1 UNK         0.0849 
     68 H68        19.3112  -29.5612  -45.3045 H         1 UNK         0.0849 
     69 H69        15.6707  -28.8365  -46.3126 H         1 UNK         0.0865 
     70 H70        15.4168  -30.5427  -46.5777 H         1 UNK         0.0865 
     71 H71        17.3246  -31.9305  -44.8737 H         1 UNK         0.1346 
     72 H72        16.4742  -30.7880  -40.8299 H         1 UNK         0.1412 
     73 H73        15.1478  -28.3217  -44.0734 H         1 UNK         0.1426 
     74 H74        14.4059  -29.0362  -40.7301 H         1 UNK         0.0716 
     75 H75        14.5476  -27.7088  -41.8545 H         1 UNK         0.0716 
     76 H76        17.0689  -25.5766  -41.1104 H         1 UNK         0.0695 
     77 H77        16.8131  -26.7150  -42.4002 H         1 UNK         0.0695 
     78 H78        18.9116  -27.9639  -41.6837 H         1 UNK         0.0983 
     79 H79        18.7206  -25.7432  -43.2352 H         1 UNK         0.3095 
     80 H80        20.4530  -24.3718  -44.1807 H         1 UNK         0.0454 
     81 H81        23.0726  -25.9312  -44.4934 H         1 UNK         0.0851 
     82 H82        22.8663  -24.4168  -43.6338 H         1 UNK         0.0851 
     83 H83        22.6334  -24.4719  -45.3735 H         1 UNK         0.0851 
     84 H84        19.6073  -25.6270  -45.8183 H         1 UNK         0.2976 
     85 H85        19.7852  -28.5210  -39.8144 H         1 UNK         0.3116 
     86 H86        20.7893  -28.6417  -37.8894 H         1 UNK         0.0646 
     87 H87        19.7335  -25.8482  -37.2077 H         1 UNK         0.0847 
     88 H88        20.3725  -27.0247  -36.0735 H         1 UNK         0.0847 
     89 H89        18.8777  -27.3648  -36.9306 H         1 UNK         0.0847 
     90 H90        21.5391  -25.6762  -39.6389 H         1 UNK         0.3040 
     91 H91        24.0538  -25.1030  -38.3889 H         1 UNK         0.1015 
     92 H92        22.9749  -24.3392  -41.1573 H         1 UNK         0.0786 
     93 H93        24.3942  -23.6349  -40.3941 H         1 UNK         0.0786 
     94 H94        22.8079  -23.3976  -39.6778 H         1 UNK         0.0786 
     95 H95        23.2037  -26.9435  -41.3593 H         1 UNK         0.3172 
     96 H96        25.9871  -27.9313  -41.6654 H         1 UNK         0.0595 
     97 H97        25.0175  -29.0824  -43.6720 H         1 UNK         0.0839 
     98 H98        24.7845  -27.3448  -43.7281 H         1 UNK         0.0839 
     99 H99        23.4392  -28.4019  -43.3011 H         1 UNK         0.0839 
    100 H100       26.5750  -29.6004  -40.4148 H         1 UNK         0.2998 
    101 H101       24.8393  -31.2435  -38.8934 H         1 UNK         0.0822 
    102 H102       26.9321  -32.5227  -38.3978 H         1 UNK         0.0787 
    103 H103       27.7747  -31.6704  -39.6841 H         1 UNK         0.0787 
    104 H104       27.2007  -30.7935  -38.2642 H         1 UNK         0.0787 
    105 H105       25.9532  -31.5852  -42.1825 H         1 UNK         0.3055 
    106 H106       25.3280  -34.3900  -42.5262 H         1 UNK         0.1106 
    107 H107       25.6201  -33.8422  -44.9464 H         1 UNK         0.0828 
    108 H108       25.6763  -32.1260  -44.5724 H         1 UNK         0.0828 
    109 H109       26.9503  -33.2032  -43.9975 H         1 UNK         0.0828 
    110 H110       23.3439  -31.5411  -42.3140 H         1 UNK         0.2931 
    111 H111       21.2555  -31.0731  -42.6383 H         1 UNK         0.0412 
    112 H112       22.7276  -31.0535  -45.0760 H         1 UNK         0.3472 
    113 H113       21.5968  -31.4061  -46.3580 H         1 UNK         0.3472 
    114 H114       20.2114  -33.9151  -42.7520 H         1 UNK         0.0970 
    115 H115       21.1760  -33.5120  -41.3775 H         1 UNK         0.0970 
    116 H116       17.0635  -33.2989  -41.6508 H         1 UNK         0.0612 
    117 H117       18.0197  -33.3606  -43.1092 H         1 UNK         0.0612 
@<TRIPOS>BOND
     1    1    2 1    
     2    1   62 1    
     3    1   63 1    
     4    1   64 1    
     5    2    3 2    
     6    2    4 am   BACKBONE|DICT|INTERRES
     7    4    5 1    
     8    4   65 1    
     9    5    6 1    
    10    5   25 1    
    11    5   66 1    
    12    6    7 1    
    13    6   67 1    
    14    6   68 1    
    15    7    8 1    
    16    8    9 1    
    17    8   69 1    
    18    8   70 1    
    19    9   10 ar   
    20    9   14 ar   
    21   10   11 ar   
    22   10   71 1    
    23   11   12 ar   
    24   11   61 1    
    25   12   13 ar   
    26   12   72 1    
    27   13   14 ar   
    28   13   15 1    
    29   14   73 1    
    30   15   16 1    
    31   15   74 1    
    32   15   75 1    
    33   16   17 1    
    34   17   18 1    
    35   17   76 1    
    36   17   77 1    
    37   18   19 1    
    38   18   27 1    
    39   18   78 1    
    40   19   20 am   BACKBONE|DICT|INTERRES
    41   19   79 1    
    42   20   21 2    
    43   20   22 1    
    44   22   23 1    
    45   22   24 1    
    46   22   80 1    
    47   23   81 1    
    48   23   82 1    
    49   23   83 1    
    50   24   25 am   BACKBONE|DICT|INTERRES
    51   24   84 1    
    52   25   26 2    
    53   27   28 2    
    54   27   29 am   BACKBONE|DICT|INTERRES
    55   29   30 1    
    56   29   85 1    
    57   30   31 1    
    58   30   32 1    
    59   30   86 1    
    60   31   87 1    
    61   31   88 1    
    62   31   89 1    
    63   32   33 2    
    64   32   34 am   BACKBONE|DICT|INTERRES
    65   34   35 1    
    66   34   90 1    
    67   35   36 1    
    68   35   37 1    
    69   35   91 1    
    70   36   92 1    
    71   36   93 1    
    72   36   94 1    
    73   37   38 2    
    74   37   39 am   BACKBONE|DICT|INTERRES
    75   39   40 1    
    76   39   95 1    
    77   40   41 1    
    78   40   42 1    
    79   40   96 1    
    80   41   97 1    
    81   41   98 1    
    82   41   99 1    
    83   42   43 2    
    84   42   44 am   BACKBONE|DICT|INTERRES
    85   44   45 1    
    86   44  100 1    
    87   45   46 1    
    88   45   47 1    
    89   45  101 1    
    90   46  102 1    
    91   46  103 1    
    92   46  104 1    
    93   47   48 2    
    94   47   49 am   BACKBONE|DICT|INTERRES
    95   49   50 1    
    96   49  105 1    
    97   50   51 1    
    98   50   52 1    
    99   50  106 1    
   100   51  107 1    
   101   51  108 1    
   102   51  109 1    
   103   52   53 2    
   104   52   54 am   BACKBONE|DICT|INTERRES
   105   54   55 1    
   106   54  110 1    
   107   55   56 1    
   108   55   59 1    
   109   55  111 1    
   110   56   57 am   BACKBONE|DICT|INTERRES
   111   56   58 2    
   112   57  112 1    
   113   57  113 1    
   114   59   60 1    
   115   59  114 1    
   116   59  115 1    
   117   60   61 1    
   118   61  116 1    
   119   61  117 1    
@<TRIPOS>SUBSTRUCTURE
     1 UNK         1 GROUP             0       ****    0 ROOT    
