@<TRIPOS>MOLECULE
3R8
117   119    1
SMALL
USER_CHARGES


@<TRIPOS>ATOM
      1 CA         16.4287  -23.4021  -47.8446 C.3       0 UNK        -0.2013 
      2 C          16.9886  -24.4817  -46.9311 C.2       0 UNK         0.4866 
      3 O          17.9338  -25.1725  -47.3069 O.2       0 UNK        -0.5176 
      4 N          16.4245  -24.6236  -45.7240 N.am      1 UNK        -0.4884 
      5 CA         16.8144  -25.6241  -44.7185 C.3       1 UNK         0.0853 
      6 C6         15.6075  -25.9838  -43.8100 C.3       10 UNK        -0.0849 
      7 S7         15.7305  -27.5779  -42.9209 S.3       10 UNK        -0.2776 
      8 C8         15.6664  -28.8196  -44.2551 C.3       10 UNK         0.0316 
      9 C9         16.9705  -29.6038  -44.3262 C.ar      10 UNK        -0.0863 
     10 C10        17.1928  -30.6744  -43.4555 C.ar      10 UNK        -0.1009 
     11 C11        18.3940  -31.3881  -43.4984 C.ar      10 UNK        -0.0712 
     12 C12        19.3871  -31.0102  -44.4078 C.ar      10 UNK        -0.0894 
     13 C13        19.1840  -29.9392  -45.2852 C.ar      10 UNK        -0.0745 
     14 C14        17.9582  -29.2618  -45.2540 C.ar      10 UNK        -0.0972 
     15 C15        20.2867  -29.5612  -46.2760 C.3       10 UNK         0.0209 
     16 S16        20.3110  -27.7867  -46.7230 S.3       10 UNK        -0.2568 
     17 C17        22.0010  -27.2625  -46.2714 C.3       10 UNK        -0.0983 
     18 CA         22.1081  -26.5687  -44.8899 C.3       3 UNK         0.0876 
     19 N          21.1489  -25.4709  -44.7359 N.am      3 UNK        -0.4424 
     20 C          21.1605  -24.5619  -43.7506 C.2       2 UNK         0.4918 
     21 O          22.0430  -24.4975  -42.8942 O.2       2 UNK        -0.4875 
     22 CA         19.9644  -23.5902  -43.6739 C.3       2 UNK         0.0481 
     23 CB         20.3263  -22.2481  -44.3286 C.3       2 UNK        -0.1831 
     24 N          18.7187  -24.0970  -44.2677 N.am      2 UNK        -0.4498 
     25 C          18.0945  -25.2386  -43.9348 C.2       1 UNK         0.5027 
     26 O          18.5282  -25.9949  -43.0680 O.2       1 UNK        -0.4969 
     27 C          22.0757  -27.5954  -43.7374 C.2       3 UNK         0.5005 
     28 O          23.0800  -28.2801  -43.5397 O.2       3 UNK        -0.5279 
     29 N          20.9769  -27.6693  -42.9670 N.am      4 UNK        -0.4463 
     30 CA         20.8248  -28.5536  -41.8045 C.3       4 UNK         0.0283 
     31 CB         19.4190  -28.3885  -41.2095 C.3       4 UNK        -0.1875 
     32 C          21.8877  -28.3363  -40.7136 C.2       4 UNK         0.4949 
     33 O          22.2679  -29.2931  -40.0409 O.2       4 UNK        -0.5039 
     34 N          22.3842  -27.0971  -40.5870 N.am      5 UNK        -0.4663 
     35 CA         23.4748  -26.7290  -39.6812 C.3       5 UNK         0.0242 
     36 CB         23.5691  -25.1967  -39.6073 C.3       5 UNK        -0.1982 
     37 C          24.8347  -27.3339  -40.0786 C.2       5 UNK         0.5017 
     38 O          25.6764  -27.5332  -39.2022 O.2       5 UNK        -0.5012 
     39 N          25.0260  -27.6121  -41.3757 N.am      6 UNK        -0.4439 
     40 CA         26.2226  -28.2521  -41.9225 C.3       6 UNK         0.0297 
     41 CB         26.5527  -27.6357  -43.2923 C.3       6 UNK        -0.2006 
     42 C          26.0315  -29.7710  -42.0451 C.2       6 UNK         0.4892 
     43 O          26.9530  -30.5223  -41.7251 O.2       6 UNK        -0.5089 
     44 N          24.8465  -30.1938  -42.5084 N.am      7 UNK        -0.4243 
     45 CA         24.4808  -31.5945  -42.7251 C.3       7 UNK         0.0196 
     46 CB         23.2029  -31.6523  -43.5780 C.3       7 UNK        -0.2007 
     47 C          24.2831  -32.3940  -41.4274 C.2       7 UNK         0.5020 
     48 O          24.4337  -33.6151  -41.4549 O.2       7 UNK        -0.5147 
     49 N          23.8982  -31.7163  -40.3357 N.am      8 UNK        -0.4734 
     50 CA         23.5816  -32.2264  -38.9903 C.3       8 UNK         0.0238 
     51 CB         24.7772  -32.9749  -38.3687 C.3       8 UNK        -0.1912 
     52 C          22.2884  -33.0610  -38.9005 C.2       8 UNK         0.5038 
     53 O          21.6645  -33.0748  -37.8386 O.2       8 UNK        -0.5046 
     54 N          21.8993  -33.7125  -40.0031 N.am      9 UNK        -0.4200 
     55 CA         20.6516  -34.4686  -40.2015 C.3       9 UNK         0.0839 
     56 C          20.5642  -35.8029  -39.4008 C.2       9 UNK         0.5513 
     57 N          21.6625  -36.3302  -38.8730 N.am      9 UNK        -0.7519 
     58 O          19.4915  -36.3896  -39.2811 O.2       9 UNK        -0.4960 
     59 C59        19.3713  -33.5947  -40.0520 C.3       10 UNK        -0.0876 
     60 S60        19.4216  -32.0510  -41.0277 S.3       10 UNK        -0.2414 
     61 C61        18.6112  -32.5707  -42.5667 C.3       10 UNK         0.0169 
     62 H62        16.0638  -23.8475  -48.7697 H         1 UNK         0.0903 
     63 H63        15.6040  -22.8611  -47.3809 H         1 UNK         0.0903 
     64 H64        17.2073  -22.6829  -48.0972 H         1 UNK         0.0903 
     65 H65        15.6621  -24.0134  -45.4615 H         1 UNK         0.3096 
     66 H66        17.0837  -26.5231  -45.2683 H         1 UNK         0.1121 
     67 H67        15.4371  -25.1936  -43.0765 H         1 UNK         0.0849 
     68 H68        14.6945  -26.0296  -44.4064 H         1 UNK         0.0849 
     69 H69        15.4454  -28.3472  -45.2133 H         1 UNK         0.0865 
     70 H70        14.8385  -29.5032  -44.0607 H         1 UNK         0.0865 
     71 H71        16.4311  -30.9491  -42.7385 H         1 UNK         0.1346 
     72 H72        20.3187  -31.5579  -44.4345 H         1 UNK         0.1412 
     73 H73        17.7741  -28.4621  -45.9547 H         1 UNK         0.1426 
     74 H74        20.1498  -30.1454  -47.1865 H         1 UNK         0.0716 
     75 H75        21.2570  -29.8492  -45.8692 H         1 UNK         0.0716 
     76 H76        22.3269  -26.5604  -47.0402 H         1 UNK         0.0695 
     77 H77        22.6919  -28.1045  -46.3483 H         1 UNK         0.0695 
     78 H78        23.1010  -26.1159  -44.8405 H         1 UNK         0.0983 
     79 H79        20.3808  -25.4654  -45.3927 H         1 UNK         0.3095 
     80 H80        19.7654  -23.4100  -42.6157 H         1 UNK         0.0454 
     81 H81        19.5362  -21.5104  -44.1883 H         1 UNK         0.0851 
     82 H82        20.5015  -22.3554  -45.3998 H         1 UNK         0.0851 
     83 H83        21.2348  -21.8321  -43.8904 H         1 UNK         0.0851 
     84 H84        18.3065  -23.5414  -45.0031 H         1 UNK         0.2976 
     85 H85        20.1837  -27.0688  -43.1758 H         1 UNK         0.3116 
     86 H86        20.9226  -29.5794  -42.1615 H         1 UNK         0.0646 
     87 H87        19.2674  -29.0661  -40.3686 H         1 UNK         0.0847 
     88 H88        18.6490  -28.6129  -41.9476 H         1 UNK         0.0847 
     89 H89        19.2493  -27.3746  -40.8459 H         1 UNK         0.0847 
     90 H90        22.0256  -26.3698  -41.1921 H         1 UNK         0.3040 
     91 H91        23.2295  -27.1078  -38.6864 H         1 UNK         0.1015 
     92 H92        22.6374  -24.7582  -39.2493 H         1 UNK         0.0786 
     93 H93        23.7931  -24.7589  -40.5812 H         1 UNK         0.0786 
     94 H94        24.3574  -24.8860  -38.9201 H         1 UNK         0.0786 
     95 H95        24.2540  -27.4741  -42.0176 H         1 UNK         0.3172 
     96 H96        27.0742  -28.0718  -41.2629 H         1 UNK         0.0595 
     97 H97        25.7467  -27.7823  -44.0124 H         1 UNK         0.0839 
     98 H98        27.4519  -28.0862  -43.7146 H         1 UNK         0.0839 
     99 H99        26.7362  -26.5643  -43.2097 H         1 UNK         0.0839 
    100 H100       24.1626  -29.4983  -42.8036 H         1 UNK         0.2998 
    101 H101       25.2891  -32.0706  -43.2843 H         1 UNK         0.0822 
    102 H102       22.3566  -31.2020  -43.0591 H         1 UNK         0.0787 
    103 H103       23.3320  -31.1282  -44.5253 H         1 UNK         0.0787 
    104 H104       22.9323  -32.6832  -43.8104 H         1 UNK         0.0787 
    105 H105       23.6926  -30.7290  -40.4539 H         1 UNK         0.3055 
    106 H106       23.4020  -31.3368  -38.3837 H         1 UNK         0.1106 
    107 H107       24.9987  -33.9040  -38.8941 H         1 UNK         0.0828 
    108 H108       25.6774  -32.3604  -38.3787 H         1 UNK         0.0828 
    109 H109       24.5734  -33.2343  -37.3290 H         1 UNK         0.0828 
    110 H110       22.5382  -33.6987  -40.7889 H         1 UNK         0.2931 
    111 H111       20.6898  -34.7855  -41.2442 H         1 UNK         0.0412 
    112 H112       22.5503  -35.8647  -38.9749 H         1 UNK         0.3472 
    113 H113       21.6007  -37.1991  -38.3656 H         1 UNK         0.3472 
    114 H114       18.4839  -34.1623  -40.3373 H         1 UNK         0.0970 
    115 H115       19.2225  -33.3234  -39.0057 H         1 UNK         0.0970 
    116 H116       17.6546  -33.0414  -42.3347 H         1 UNK         0.0612 
    117 H117       19.2217  -33.3304  -43.0570 H         1 UNK         0.0612 
@<TRIPOS>BOND
     1    1    2 1    
     2    1   62 1    
     3    1   63 1    
     4    1   64 1    
     5    2    3 2    
     6    2    4 am   BACKBONE|DICT|INTERRES
     7    4    5 1    
     8    4   65 1    
     9    5    6 1    
    10    5   25 1    
    11    5   66 1    
    12    6    7 1    
    13    6   67 1    
    14    6   68 1    
    15    7    8 1    
    16    8    9 1    
    17    8   69 1    
    18    8   70 1    
    19    9   10 ar   
    20    9   14 ar   
    21   10   11 ar   
    22   10   71 1    
    23   11   12 ar   
    24   11   61 1    
    25   12   13 ar   
    26   12   72 1    
    27   13   14 ar   
    28   13   15 1    
    29   14   73 1    
    30   15   16 1    
    31   15   74 1    
    32   15   75 1    
    33   16   17 1    
    34   17   18 1    
    35   17   76 1    
    36   17   77 1    
    37   18   19 1    
    38   18   27 1    
    39   18   78 1    
    40   19   20 am   BACKBONE|DICT|INTERRES
    41   19   79 1    
    42   20   21 2    
    43   20   22 1    
    44   22   23 1    
    45   22   24 1    
    46   22   80 1    
    47   23   81 1    
    48   23   82 1    
    49   23   83 1    
    50   24   25 am   BACKBONE|DICT|INTERRES
    51   24   84 1    
    52   25   26 2    
    53   27   28 2    
    54   27   29 am   BACKBONE|DICT|INTERRES
    55   29   30 1    
    56   29   85 1    
    57   30   31 1    
    58   30   32 1    
    59   30   86 1    
    60   31   87 1    
    61   31   88 1    
    62   31   89 1    
    63   32   33 2    
    64   32   34 am   BACKBONE|DICT|INTERRES
    65   34   35 1    
    66   34   90 1    
    67   35   36 1    
    68   35   37 1    
    69   35   91 1    
    70   36   92 1    
    71   36   93 1    
    72   36   94 1    
    73   37   38 2    
    74   37   39 am   BACKBONE|DICT|INTERRES
    75   39   40 1    
    76   39   95 1    
    77   40   41 1    
    78   40   42 1    
    79   40   96 1    
    80   41   97 1    
    81   41   98 1    
    82   41   99 1    
    83   42   43 2    
    84   42   44 am   BACKBONE|DICT|INTERRES
    85   44   45 1    
    86   44  100 1    
    87   45   46 1    
    88   45   47 1    
    89   45  101 1    
    90   46  102 1    
    91   46  103 1    
    92   46  104 1    
    93   47   48 2    
    94   47   49 am   BACKBONE|DICT|INTERRES
    95   49   50 1    
    96   49  105 1    
    97   50   51 1    
    98   50   52 1    
    99   50  106 1    
   100   51  107 1    
   101   51  108 1    
   102   51  109 1    
   103   52   53 2    
   104   52   54 am   BACKBONE|DICT|INTERRES
   105   54   55 1    
   106   54  110 1    
   107   55   56 1    
   108   55   59 1    
   109   55  111 1    
   110   56   57 am   BACKBONE|DICT|INTERRES
   111   56   58 2    
   112   57  112 1    
   113   57  113 1    
   114   59   60 1    
   115   59  114 1    
   116   59  115 1    
   117   60   61 1    
   118   61  116 1    
   119   61  117 1    
@<TRIPOS>SUBSTRUCTURE
     1 UNK         1 GROUP             0       ****    0 ROOT    
