@<TRIPOS>MOLECULE
3R8
117   119    1
SMALL
USER_CHARGES


@<TRIPOS>ATOM
      1 CA         16.4800  -23.9202  -48.9192 C.3       0 UNK        -0.2013 
      2 C          17.5364  -23.6383  -47.8612 C.2       0 UNK         0.4866 
      3 O          17.6025  -22.5226  -47.3433 O.2       0 UNK        -0.5176 
      4 N          18.3690  -24.6369  -47.5437 N.am      1 UNK        -0.4884 
      5 CA         19.3935  -24.5778  -46.4956 C.3       1 UNK         0.0853 
      6 C6         20.5189  -25.6136  -46.7472 C.3       10 UNK        -0.0849 
      7 S7         19.9297  -27.3369  -46.8819 S.3       10 UNK        -0.2776 
      8 C8         20.6738  -28.0505  -45.3887 C.3       10 UNK         0.0316 
      9 C9         19.9547  -29.3182  -44.9687 C.ar      10 UNK        -0.0863 
     10 C10        20.5114  -30.5734  -45.2234 C.ar      10 UNK        -0.1009 
     11 C11        19.8831  -31.7327  -44.7585 C.ar      10 UNK        -0.0712 
     12 C12        18.6930  -31.6276  -44.0295 C.ar      10 UNK        -0.0894 
     13 C13        18.1180  -30.3746  -43.7873 C.ar      10 UNK        -0.0745 
     14 C14        18.7420  -29.2281  -44.2834 C.ar      10 UNK        -0.0972 
     15 C15        16.8269  -30.2541  -42.9895 C.3       10 UNK         0.0209 
     16 S16        17.1409  -29.7873  -41.2536 S.3       10 UNK        -0.2568 
     17 C17        17.3448  -27.9738  -41.3565 C.3       10 UNK        -0.0983 
     18 CA         18.8322  -27.5234  -41.3381 C.3       3 UNK         0.0876 
     19 N          19.0903  -26.2790  -42.0862 N.am      3 UNK        -0.4424 
     20 C          18.4882  -25.0948  -41.9127 C.2       2 UNK         0.4918 
     21 O          17.5988  -24.9023  -41.0841 O.2       2 UNK        -0.4875 
     22 CA         19.0085  -23.8966  -42.7255 C.3       2 UNK         0.0481 
     23 CB         20.1035  -23.1642  -41.9329 C.3       2 UNK        -0.1831 
     24 N          19.5065  -24.1898  -44.0745 N.am      2 UNK        -0.4498 
     25 C          18.7659  -24.6732  -45.0830 C.2       1 UNK         0.5027 
     26 O          17.6323  -25.1388  -44.9361 O.2       1 UNK        -0.4969 
     27 C          19.4478  -27.5038  -39.9208 C.2       3 UNK         0.5005 
     28 O          20.0052  -28.5131  -39.4884 O.2       3 UNK        -0.5279 
     29 N          19.4308  -26.3359  -39.2595 N.am      4 UNK        -0.4463 
     30 CA         20.2676  -26.0099  -38.0980 C.3       4 UNK         0.0283 
     31 CB         19.8381  -24.6499  -37.5258 C.3       4 UNK        -0.1875 
     32 C          21.7706  -26.0014  -38.4467 C.2       4 UNK         0.4949 
     33 O          22.5966  -26.3111  -37.5883 O.2       4 UNK        -0.5039 
     34 N          22.0809  -25.6925  -39.7120 N.am      5 UNK        -0.4663 
     35 CA         23.3456  -25.9834  -40.3753 C.3       5 UNK         0.0242 
     36 CB         23.9805  -24.6795  -40.8850 C.3       5 UNK        -0.1982 
     37 C          23.0059  -26.9247  -41.5378 C.2       5 UNK         0.5017 
     38 O          22.0541  -26.6501  -42.2767 O.2       5 UNK        -0.5012 
     39 N          23.7609  -28.0187  -41.6591 N.am      6 UNK        -0.4439 
     40 CA         23.5479  -29.1144  -42.5998 C.3       6 UNK         0.0297 
     41 CB         22.2948  -29.9175  -42.1977 C.3       6 UNK        -0.2006 
     42 C          24.7863  -30.0174  -42.5750 C.2       6 UNK         0.4892 
     43 O          25.6065  -29.9059  -41.6581 O.2       6 UNK        -0.5089 
     44 N          24.8810  -30.9325  -43.5478 N.am      7 UNK        -0.4243 
     45 CA         25.9134  -31.9715  -43.6374 C.3       7 UNK         0.0196 
     46 CB         26.0243  -32.4328  -45.1028 C.3       7 UNK        -0.2007 
     47 C          25.6148  -33.1366  -42.6710 C.2       7 UNK         0.5020 
     48 O          25.4193  -34.2721  -43.1085 O.2       7 UNK        -0.5147 
     49 N          25.5412  -32.8132  -41.3725 N.am      8 UNK        -0.4734 
     50 CA         25.0564  -33.6251  -40.2500 C.3       8 UNK         0.0238 
     51 CB         25.8863  -34.9109  -40.0479 C.3       8 UNK        -0.1912 
     52 C          23.5469  -33.8979  -40.3609 C.2       8 UNK         0.5038 
     53 O          22.7764  -33.3044  -39.6061 O.2       8 UNK        -0.5046 
     54 N          23.1604  -34.7562  -41.3141 N.am      9 UNK        -0.4200 
     55 CA         21.7732  -35.0896  -41.6874 C.3       9 UNK         0.0839 
     56 C          20.9206  -35.7417  -40.5551 C.2       9 UNK         0.5513 
     57 N          21.5294  -36.3618  -39.5512 N.am      9 UNK        -0.7519 
     58 O          19.6930  -35.7208  -40.5993 O.2       9 UNK        -0.4960 
     59 C59        21.0571  -33.9026  -42.3953 C.3       10 UNK        -0.0876 
     60 S60        21.9022  -33.4434  -43.9488 S.3       10 UNK        -0.2414 
     61 C61        20.4986  -33.0929  -45.0509 C.3       10 UNK         0.0169 
     62 H62        16.5968  -23.2352  -49.7586 H         1 UNK         0.0903 
     63 H63        16.5470  -24.9388  -49.3010 H         1 UNK         0.0903 
     64 H64        15.4838  -23.7801  -48.5005 H         1 UNK         0.0903 
     65 H65        18.2499  -25.5458  -47.9695 H         1 UNK         0.3096 
     66 H66        19.8547  -23.5889  -46.5572 H         1 UNK         0.1121 
     67 H67        21.2954  -25.5344  -45.9842 H         1 UNK         0.0849 
     68 H68        21.0212  -25.3707  -47.6851 H         1 UNK         0.0849 
     69 H69        21.7326  -28.2435  -45.5680 H         1 UNK         0.0865 
     70 H70        20.6294  -27.3332  -44.5685 H         1 UNK         0.0865 
     71 H71        21.4430  -30.6508  -45.7671 H         1 UNK         0.1346 
     72 H72        18.2127  -32.5206  -43.6539 H         1 UNK         0.1412 
     73 H73        18.2995  -28.2567  -44.1109 H         1 UNK         0.1426 
     74 H74        16.1566  -29.5332  -43.4598 H         1 UNK         0.0716 
     75 H75        16.2953  -31.2069  -42.9987 H         1 UNK         0.0716 
     76 H76        16.7869  -27.5125  -40.5395 H         1 UNK         0.0695 
     77 H77        16.8570  -27.6263  -42.2681 H         1 UNK         0.0695 
     78 H78        19.4086  -28.2733  -41.8765 H         1 UNK         0.0983 
     79 H79        19.8960  -26.3104  -42.6991 H         1 UNK         0.3095 
     80 H80        18.1682  -23.2088  -42.8415 H         1 UNK         0.0454 
     81 H81        19.7653  -22.9191  -40.9249 H         1 UNK         0.0851 
     82 H82        21.0046  -23.7695  -41.8378 H         1 UNK         0.0851 
     83 H83        20.3803  -22.2250  -42.4122 H         1 UNK         0.0851 
     84 H84        20.4366  -23.8540  -44.2810 H         1 UNK         0.2976 
     85 H85        18.8804  -25.5852  -39.6627 H         1 UNK         0.3116 
     86 H86        20.1044  -26.7753  -37.3365 H         1 UNK         0.0646 
     87 H87        18.7919  -24.6599  -37.2196 H         1 UNK         0.0847 
     88 H88        20.4293  -24.3946  -36.6451 H         1 UNK         0.0847 
     89 H89        19.9692  -23.8450  -38.2501 H         1 UNK         0.0847 
     90 H90        21.3162  -25.5133  -40.3461 H         1 UNK         0.3040 
     91 H91        24.0377  -26.4784  -39.6900 H         1 UNK         0.1015 
     92 H92        23.3541  -24.1804  -41.6247 H         1 UNK         0.0786 
     93 H93        24.9443  -24.8766  -41.3559 H         1 UNK         0.0786 
     94 H94        24.1552  -23.9798  -40.0675 H         1 UNK         0.0786 
     95 H95        24.5567  -28.1662  -41.0483 H         1 UNK         0.3172 
     96 H96        23.4283  -28.7081  -43.6060 H         1 UNK         0.0595 
     97 H97        22.3646  -30.2939  -41.1761 H         1 UNK         0.0839 
     98 H98        22.1467  -30.7767  -42.8489 H         1 UNK         0.0839 
     99 H99        21.3926  -29.3142  -42.2692 H         1 UNK         0.0839 
    100 H100       24.1390  -30.9881  -44.2307 H         1 UNK         0.2998 
    101 H101       26.8759  -31.5443  -43.3470 H         1 UNK         0.0822 
    102 H102       26.8034  -33.1878  -45.2165 H         1 UNK         0.0787 
    103 H103       25.0908  -32.8705  -45.4598 H         1 UNK         0.0787 
    104 H104       26.2804  -31.6032  -45.7620 H         1 UNK         0.0787 
    105 H105       25.6894  -31.8306  -41.1574 H         1 UNK         0.3055 
    106 H106       25.1946  -33.0120  -39.3574 H         1 UNK         0.1106 
    107 H107       25.5460  -35.4551  -39.1661 H         1 UNK         0.0828 
    108 H108       25.8196  -35.5952  -40.8934 H         1 UNK         0.0828 
    109 H109       26.9398  -34.6771  -39.8947 H         1 UNK         0.0828 
    110 H110       23.8806  -35.1120  -41.9317 H         1 UNK         0.2931 
    111 H111       21.8667  -35.8855  -42.4273 H         1 UNK         0.0412 
    112 H112       20.9760  -36.7921  -38.8268 H         1 UNK         0.3472 
    113 H113       22.5353  -36.3981  -39.5090 H         1 UNK         0.3472 
    114 H114       21.0065  -33.0292  -41.7432 H         1 UNK         0.0970 
    115 H115       20.0242  -34.1645  -42.6289 H         1 UNK         0.0970 
    116 H116       19.7542  -33.8867  -44.9738 H         1 UNK         0.0612 
    117 H117       20.8541  -33.1114  -46.0822 H         1 UNK         0.0612 
@<TRIPOS>BOND
     1    1    2 1    
     2    1   62 1    
     3    1   63 1    
     4    1   64 1    
     5    2    3 2    
     6    2    4 am   BACKBONE|DICT|INTERRES
     7    4    5 1    
     8    4   65 1    
     9    5    6 1    
    10    5   25 1    
    11    5   66 1    
    12    6    7 1    
    13    6   67 1    
    14    6   68 1    
    15    7    8 1    
    16    8    9 1    
    17    8   69 1    
    18    8   70 1    
    19    9   10 ar   
    20    9   14 ar   
    21   10   11 ar   
    22   10   71 1    
    23   11   12 ar   
    24   11   61 1    
    25   12   13 ar   
    26   12   72 1    
    27   13   14 ar   
    28   13   15 1    
    29   14   73 1    
    30   15   16 1    
    31   15   74 1    
    32   15   75 1    
    33   16   17 1    
    34   17   18 1    
    35   17   76 1    
    36   17   77 1    
    37   18   19 1    
    38   18   27 1    
    39   18   78 1    
    40   19   20 am   BACKBONE|DICT|INTERRES
    41   19   79 1    
    42   20   21 2    
    43   20   22 1    
    44   22   23 1    
    45   22   24 1    
    46   22   80 1    
    47   23   81 1    
    48   23   82 1    
    49   23   83 1    
    50   24   25 am   BACKBONE|DICT|INTERRES
    51   24   84 1    
    52   25   26 2    
    53   27   28 2    
    54   27   29 am   BACKBONE|DICT|INTERRES
    55   29   30 1    
    56   29   85 1    
    57   30   31 1    
    58   30   32 1    
    59   30   86 1    
    60   31   87 1    
    61   31   88 1    
    62   31   89 1    
    63   32   33 2    
    64   32   34 am   BACKBONE|DICT|INTERRES
    65   34   35 1    
    66   34   90 1    
    67   35   36 1    
    68   35   37 1    
    69   35   91 1    
    70   36   92 1    
    71   36   93 1    
    72   36   94 1    
    73   37   38 2    
    74   37   39 am   BACKBONE|DICT|INTERRES
    75   39   40 1    
    76   39   95 1    
    77   40   41 1    
    78   40   42 1    
    79   40   96 1    
    80   41   97 1    
    81   41   98 1    
    82   41   99 1    
    83   42   43 2    
    84   42   44 am   BACKBONE|DICT|INTERRES
    85   44   45 1    
    86   44  100 1    
    87   45   46 1    
    88   45   47 1    
    89   45  101 1    
    90   46  102 1    
    91   46  103 1    
    92   46  104 1    
    93   47   48 2    
    94   47   49 am   BACKBONE|DICT|INTERRES
    95   49   50 1    
    96   49  105 1    
    97   50   51 1    
    98   50   52 1    
    99   50  106 1    
   100   51  107 1    
   101   51  108 1    
   102   51  109 1    
   103   52   53 2    
   104   52   54 am   BACKBONE|DICT|INTERRES
   105   54   55 1    
   106   54  110 1    
   107   55   56 1    
   108   55   59 1    
   109   55  111 1    
   110   56   57 am   BACKBONE|DICT|INTERRES
   111   56   58 2    
   112   57  112 1    
   113   57  113 1    
   114   59   60 1    
   115   59  114 1    
   116   59  115 1    
   117   60   61 1    
   118   61  116 1    
   119   61  117 1    
@<TRIPOS>SUBSTRUCTURE
     1 UNK         1 GROUP             0       ****    0 ROOT    
