@<TRIPOS>MOLECULE
3R8
117   119    1
SMALL
USER_CHARGES


@<TRIPOS>ATOM
      1 CA         19.8408  -23.8643  -39.7458 C.3       0 UNK        -0.2013 
      2 C          19.0889  -24.1015  -41.0472 C.2       0 UNK         0.4866 
      3 O          18.1923  -23.3217  -41.3718 O.2       0 UNK        -0.5176 
      4 N          19.4439  -25.1551  -41.7929 N.am      1 UNK        -0.4884 
      5 CA         18.8675  -25.4761  -43.1035 C.3       1 UNK         0.0853 
      6 C6         18.3117  -26.9221  -43.2015 C.3       10 UNK        -0.0849 
      7 S7         17.2903  -27.4673  -41.7882 S.3       10 UNK        -0.2776 
      8 C8         16.3572  -28.8826  -42.4697 C.3       10 UNK         0.0316 
      9 C9         17.2244  -29.8472  -43.2715 C.ar      10 UNK        -0.0863 
     10 C10        17.9974  -30.8257  -42.6359 C.ar      10 UNK        -0.1009 
     11 C11        18.7975  -31.6969  -43.3873 C.ar      10 UNK        -0.0712 
     12 C12        18.8150  -31.5770  -44.7836 C.ar      10 UNK        -0.0894 
     13 C13        18.0611  -30.5934  -45.4298 C.ar      10 UNK        -0.0745 
     14 C14        17.2477  -29.7524  -44.6652 C.ar      10 UNK        -0.0972 
     15 C15        18.1128  -30.4607  -46.9500 C.3       10 UNK         0.0209 
     16 S16        18.2378  -28.7236  -47.5070 S.3       10 UNK        -0.2568 
     17 C17        19.8376  -28.6654  -48.3942 C.3       10 UNK        -0.0983 
     18 CA         20.9952  -27.9876  -47.6077 C.3       3 UNK         0.0876 
     19 N          20.5644  -26.7141  -47.0250 N.am      3 UNK        -0.4424 
     20 C          21.2537  -25.5689  -47.0389 C.2       2 UNK         0.4918 
     21 O          22.3719  -25.4452  -47.5385 O.2       2 UNK        -0.4875 
     22 CA         20.5776  -24.3476  -46.3836 C.3       2 UNK         0.0481 
     23 CB         19.8597  -23.5041  -47.4493 C.3       2 UNK        -0.1831 
     24 N          19.6313  -24.6734  -45.3056 N.am      2 UNK        -0.4498 
     25 C          19.9732  -25.2702  -44.1547 C.2       1 UNK         0.5027 
     26 O          21.1111  -25.6843  -43.9235 O.2       1 UNK        -0.4969 
     27 C          21.6391  -28.9389  -46.5733 C.2       3 UNK         0.5005 
     28 O          21.9290  -30.0833  -46.9288 O.2       3 UNK        -0.5279 
     29 N          21.8547  -28.4826  -45.3308 N.am      4 UNK        -0.4463 
     30 CA         22.3427  -29.3051  -44.2236 C.3       4 UNK         0.0283 
     31 CB         21.3241  -29.2200  -43.0788 C.3       4 UNK        -0.1875 
     32 C          23.6981  -28.8312  -43.6975 C.2       4 UNK         0.4949 
     33 O          24.1007  -27.6890  -43.9269 O.2       4 UNK        -0.5039 
     34 N          24.3286  -29.7111  -42.9096 N.am      5 UNK        -0.4663 
     35 CA         25.3070  -29.3340  -41.8933 C.3       5 UNK         0.0242 
     36 CB         26.2296  -30.5264  -41.5882 C.3       5 UNK        -0.1982 
     37 C          24.5054  -28.9093  -40.6541 C.2       5 UNK         0.5017 
     38 O          23.8181  -29.7544  -40.0674 O.2       5 UNK        -0.5012 
     39 N          24.5431  -27.6058  -40.3387 N.am      6 UNK        -0.4439 
     40 CA         23.6850  -26.9154  -39.3680 C.3       6 UNK         0.0297 
     41 CB         24.0261  -27.3470  -37.9220 C.3       6 UNK        -0.2006 
     42 C          22.2048  -27.0923  -39.7588 C.2       6 UNK         0.4892 
     43 O          21.7948  -26.5749  -40.7967 O.2       6 UNK        -0.5089 
     44 N          21.4507  -27.8473  -38.9575 N.am      7 UNK        -0.4243 
     45 CA         20.1369  -28.3928  -39.3022 C.3       7 UNK         0.0196 
     46 CB         19.0486  -27.5965  -38.5585 C.3       7 UNK        -0.2007 
     47 C          20.0808  -29.8958  -38.9673 C.2       7 UNK         0.5020 
     48 O          18.9872  -30.4513  -38.8600 O.2       7 UNK        -0.5147 
     49 N          21.2488  -30.5208  -38.7564 N.am      8 UNK        -0.4734 
     50 CA         21.3779  -31.8759  -38.2197 C.3       8 UNK         0.0238 
     51 CB         22.4350  -31.8685  -37.1024 C.3       8 UNK        -0.1912 
     52 C          21.7578  -32.9009  -39.2933 C.2       8 UNK         0.5038 
     53 O          21.2861  -34.0362  -39.2159 O.2       8 UNK        -0.5046 
     54 N          22.6029  -32.4958  -40.2532 N.am      9 UNK        -0.4200 
     55 CA         23.2220  -33.3670  -41.2691 C.3       9 UNK         0.0839 
     56 C          24.2117  -34.4115  -40.6632 C.2       9 UNK         0.5513 
     57 N          24.7421  -35.3224  -41.4689 N.am      9 UNK        -0.7519 
     58 O          24.5529  -34.3807  -39.4822 O.2       9 UNK        -0.4960 
     59 C59        22.1850  -33.9886  -42.2537 C.3       10 UNK        -0.0876 
     60 S60        21.3839  -32.7120  -43.2719 S.3       10 UNK        -0.2414 
     61 C61        19.6561  -32.7509  -42.6915 C.3       10 UNK         0.0169 
     62 H62        20.6139  -24.6095  -39.5734 H         1 UNK         0.0903 
     63 H63        20.3162  -22.8841  -39.7614 H         1 UNK         0.0903 
     64 H64        19.1499  -23.8942  -38.9037 H         1 UNK         0.0903 
     65 H65        20.2462  -25.7227  -41.5217 H         1 UNK         0.3096 
     66 H66        18.0471  -24.7919  -43.3299 H         1 UNK         0.1121 
     67 H67        19.1197  -27.6421  -43.2988 H         1 UNK         0.0849 
     68 H68        17.7190  -27.0142  -44.1128 H         1 UNK         0.0849 
     69 H69        15.5441  -28.5011  -43.0894 H         1 UNK         0.0865 
     70 H70        15.8804  -29.4178  -41.6472 H         1 UNK         0.0865 
     71 H71        17.9848  -30.8975  -41.5564 H         1 UNK         0.1346 
     72 H72        19.4378  -32.2410  -45.3673 H         1 UNK         0.1412 
     73 H73        16.6440  -29.0029  -45.1582 H         1 UNK         0.1426 
     74 H74        17.2036  -30.8951  -47.3671 H         1 UNK         0.0716 
     75 H75        18.9431  -31.0416  -47.3534 H         1 UNK         0.0716 
     76 H76        19.6605  -28.0896  -49.3038 H         1 UNK         0.0695 
     77 H77        20.1148  -29.6596  -48.7483 H         1 UNK         0.0695 
     78 H78        21.7885  -27.7888  -48.3318 H         1 UNK         0.0983 
     79 H79        19.6466  -26.7224  -46.6044 H         1 UNK         0.3095 
     80 H80        21.3706  -23.7359  -45.9483 H         1 UNK         0.0454 
     81 H81        19.4636  -22.5807  -47.0266 H         1 UNK         0.0851 
     82 H82        19.0322  -24.0483  -47.9064 H         1 UNK         0.0851 
     83 H83        20.5444  -23.2217  -48.2504 H         1 UNK         0.0851 
     84 H84        18.6767  -24.3696  -45.4379 H         1 UNK         0.2976 
     85 H85        21.6916  -27.5054  -45.1157 H         1 UNK         0.3116 
     86 H86        22.4437  -30.3463  -44.5322 H         1 UNK         0.0646 
     87 H87        20.3388  -29.5214  -43.4205 H         1 UNK         0.0847 
     88 H88        21.2495  -28.2062  -42.6891 H         1 UNK         0.0847 
     89 H89        21.5913  -29.8691  -42.2441 H         1 UNK         0.0847 
     90 H90        23.8967  -30.6147  -42.7820 H         1 UNK         0.3040 
     91 H91        25.9195  -28.5032  -42.2512 H         1 UNK         0.1015 
     92 H92        26.7399  -30.8729  -42.4871 H         1 UNK         0.0786 
     93 H93        25.6883  -31.3716  -41.1632 H         1 UNK         0.0786 
     94 H94        26.9983  -30.2431  -40.8682 H         1 UNK         0.0786 
     95 H95        25.0933  -26.9965  -40.9286 H         1 UNK         0.3172 
     96 H96        23.9013  -25.8497  -39.4564 H         1 UNK         0.0595 
     97 H97        23.8836  -28.4148  -37.7537 H         1 UNK         0.0839 
     98 H98        23.4146  -26.8094  -37.1959 H         1 UNK         0.0839 
     99 H99        25.0661  -27.1199  -37.6871 H         1 UNK         0.0839 
    100 H100       21.8649  -28.2042  -38.1079 H         1 UNK         0.2998 
    101 H101       19.9601  -28.3094  -40.3768 H         1 UNK         0.0822 
    102 H102       19.0710  -26.5440  -38.8369 H         1 UNK         0.0787 
    103 H103       18.0526  -27.9683  -38.8018 H         1 UNK         0.0787 
    104 H104       19.1688  -27.6626  -37.4767 H         1 UNK         0.0787 
    105 H105       22.1121  -30.0418  -38.9923 H         1 UNK         0.3055 
    106 H106       20.4308  -32.1999  -37.7814 H         1 UNK         0.1106 
    107 H107       23.4109  -31.5475  -37.4696 H         1 UNK         0.0828 
    108 H108       22.1469  -31.2030  -36.2886 H         1 UNK         0.0828 
    109 H109       22.5596  -32.8652  -36.6763 H         1 UNK         0.0828 
    110 H110       22.9710  -31.5524  -40.2016 H         1 UNK         0.2931 
    111 H111       23.8611  -32.7023  -41.8499 H         1 UNK         0.0412 
    112 H112       24.5178  -35.3535  -42.4508 H         1 UNK         0.3472 
    113 H113       25.3971  -35.9869  -41.0862 H         1 UNK         0.3472 
    114 H114       21.4370  -34.5838  -41.7291 H         1 UNK         0.0970 
    115 H115       22.6646  -34.6728  -42.9540 H         1 UNK         0.0970 
    116 H116       19.2330  -33.7381  -42.8806 H         1 UNK         0.0612 
    117 H117       19.6467  -32.6013  -41.6107 H         1 UNK         0.0612 
@<TRIPOS>BOND
     1    1    2 1    
     2    1   62 1    
     3    1   63 1    
     4    1   64 1    
     5    2    3 2    
     6    2    4 am   BACKBONE|DICT|INTERRES
     7    4    5 1    
     8    4   65 1    
     9    5    6 1    
    10    5   25 1    
    11    5   66 1    
    12    6    7 1    
    13    6   67 1    
    14    6   68 1    
    15    7    8 1    
    16    8    9 1    
    17    8   69 1    
    18    8   70 1    
    19    9   10 ar   
    20    9   14 ar   
    21   10   11 ar   
    22   10   71 1    
    23   11   12 ar   
    24   11   61 1    
    25   12   13 ar   
    26   12   72 1    
    27   13   14 ar   
    28   13   15 1    
    29   14   73 1    
    30   15   16 1    
    31   15   74 1    
    32   15   75 1    
    33   16   17 1    
    34   17   18 1    
    35   17   76 1    
    36   17   77 1    
    37   18   19 1    
    38   18   27 1    
    39   18   78 1    
    40   19   20 am   BACKBONE|DICT|INTERRES
    41   19   79 1    
    42   20   21 2    
    43   20   22 1    
    44   22   23 1    
    45   22   24 1    
    46   22   80 1    
    47   23   81 1    
    48   23   82 1    
    49   23   83 1    
    50   24   25 am   BACKBONE|DICT|INTERRES
    51   24   84 1    
    52   25   26 2    
    53   27   28 2    
    54   27   29 am   BACKBONE|DICT|INTERRES
    55   29   30 1    
    56   29   85 1    
    57   30   31 1    
    58   30   32 1    
    59   30   86 1    
    60   31   87 1    
    61   31   88 1    
    62   31   89 1    
    63   32   33 2    
    64   32   34 am   BACKBONE|DICT|INTERRES
    65   34   35 1    
    66   34   90 1    
    67   35   36 1    
    68   35   37 1    
    69   35   91 1    
    70   36   92 1    
    71   36   93 1    
    72   36   94 1    
    73   37   38 2    
    74   37   39 am   BACKBONE|DICT|INTERRES
    75   39   40 1    
    76   39   95 1    
    77   40   41 1    
    78   40   42 1    
    79   40   96 1    
    80   41   97 1    
    81   41   98 1    
    82   41   99 1    
    83   42   43 2    
    84   42   44 am   BACKBONE|DICT|INTERRES
    85   44   45 1    
    86   44  100 1    
    87   45   46 1    
    88   45   47 1    
    89   45  101 1    
    90   46  102 1    
    91   46  103 1    
    92   46  104 1    
    93   47   48 2    
    94   47   49 am   BACKBONE|DICT|INTERRES
    95   49   50 1    
    96   49  105 1    
    97   50   51 1    
    98   50   52 1    
    99   50  106 1    
   100   51  107 1    
   101   51  108 1    
   102   51  109 1    
   103   52   53 2    
   104   52   54 am   BACKBONE|DICT|INTERRES
   105   54   55 1    
   106   54  110 1    
   107   55   56 1    
   108   55   59 1    
   109   55  111 1    
   110   56   57 am   BACKBONE|DICT|INTERRES
   111   56   58 2    
   112   57  112 1    
   113   57  113 1    
   114   59   60 1    
   115   59  114 1    
   116   59  115 1    
   117   60   61 1    
   118   61  116 1    
   119   61  117 1    
@<TRIPOS>SUBSTRUCTURE
     1 UNK         1 GROUP             0       ****    0 ROOT    
