@<TRIPOS>MOLECULE
3R8
117   119    1
SMALL
USER_CHARGES


@<TRIPOS>ATOM
      1 CA         11.5891  -26.4023  -45.6158 C.3       0 UNK        -0.2013 
      2 C          13.0273  -25.9330  -45.4532 C.2       0 UNK         0.4866 
      3 O          13.2812  -24.9790  -44.7167 O.2       0 UNK        -0.5176 
      4 N          13.9686  -26.5887  -46.1421 N.am      1 UNK        -0.4884 
      5 CA         15.4092  -26.3334  -46.0469 C.3       1 UNK         0.0853 
      6 C6         16.1715  -26.8840  -47.2811 C.3       10 UNK        -0.0849 
      7 S7         15.8852  -28.6608  -47.6051 S.3       10 UNK        -0.2776 
      8 C8         17.5711  -29.2606  -47.9555 C.3       10 UNK         0.0316 
      9 C9         18.4854  -29.2911  -46.7337 C.ar      10 UNK        -0.0863 
     10 C10        18.0973  -29.9522  -45.5638 C.ar      10 UNK        -0.1009 
     11 C11        18.9659  -30.0579  -44.4717 C.ar      10 UNK        -0.0712 
     12 C12        20.2433  -29.4885  -44.5647 C.ar      10 UNK        -0.0894 
     13 C13        20.6447  -28.8217  -45.7261 C.ar      10 UNK        -0.0745 
     14 C14        19.7583  -28.7183  -46.8018 C.ar      10 UNK        -0.0972 
     15 C15        22.0543  -28.2605  -45.8479 C.3       10 UNK         0.0209 
     16 S16        22.1915  -26.5746  -45.1735 S.3       10 UNK        -0.2568 
     17 C17        22.5519  -26.9050  -43.4167 C.3       10 UNK        -0.0983 
     18 CA         21.6034  -26.1997  -42.4134 C.3       3 UNK         0.0876 
     19 N          20.2139  -26.6284  -42.5456 N.am      3 UNK        -0.4424 
     20 C          19.2483  -25.9997  -43.2147 C.2       2 UNK         0.4918 
     21 O          19.4070  -24.9694  -43.8754 O.2       2 UNK        -0.4875 
     22 CA         17.8520  -26.6151  -43.0911 C.3       2 UNK         0.0481 
     23 CB         17.1483  -26.1389  -41.8066 C.3       2 UNK        -0.1831 
     24 N          17.0810  -26.2381  -44.2685 N.am      2 UNK        -0.4498 
     25 C          15.9917  -26.8661  -44.7202 C.2       1 UNK         0.5027 
     26 O          15.4661  -27.8266  -44.1490 O.2       1 UNK        -0.4969 
     27 C          22.0307  -26.5111  -40.9662 C.2       3 UNK         0.5005 
     28 O          21.2648  -27.1356  -40.2271 O.2       3 UNK        -0.5279 
     29 N          23.2456  -26.0891  -40.5929 N.am      4 UNK        -0.4463 
     30 CA         23.8848  -26.4209  -39.3197 C.3       4 UNK         0.0283 
     31 CB         24.7928  -25.2515  -38.8863 C.3       4 UNK        -0.1875 
     32 C          24.6248  -27.7679  -39.4334 C.2       4 UNK         0.4949 
     33 O          24.0027  -28.8197  -39.2817 O.2       4 UNK        -0.5039 
     34 N          25.9416  -27.7203  -39.6790 N.am      5 UNK        -0.4663 
     35 CA         26.8139  -28.8971  -39.7407 C.3       5 UNK         0.0242 
     36 CB         28.2821  -28.4472  -39.6711 C.3       5 UNK        -0.1982 
     37 C          26.5801  -29.7784  -40.9782 C.2       5 UNK         0.5017 
     38 O          26.7298  -30.9976  -40.8811 O.2       5 UNK        -0.5012 
     39 N          26.2199  -29.1600  -42.1129 N.am      6 UNK        -0.4439 
     40 CA         25.9267  -29.8477  -43.3730 C.3       6 UNK         0.0297 
     41 CB         25.7434  -28.8259  -44.5052 C.3       6 UNK        -0.2006 
     42 C          24.6963  -30.7570  -43.2283 C.2       6 UNK         0.4892 
     43 O          23.6344  -30.2842  -42.8197 O.2       6 UNK        -0.5089 
     44 N          24.8982  -32.0538  -43.5026 N.am      7 UNK        -0.4243 
     45 CA         23.9544  -33.1646  -43.3074 C.3       7 UNK         0.0196 
     46 CB         22.7277  -33.0082  -44.2323 C.3       7 UNK        -0.2007 
     47 C          23.5525  -33.4129  -41.8346 C.2       7 UNK         0.5020 
     48 O          22.6391  -34.2019  -41.5908 O.2       7 UNK        -0.5147 
     49 N          24.2429  -32.7604  -40.8831 N.am      8 UNK        -0.4734 
     50 CA         24.0062  -32.7639  -39.4331 C.3       8 UNK         0.0238 
     51 CB         24.3831  -34.1330  -38.8283 C.3       8 UNK        -0.1912 
     52 C          22.5885  -32.3015  -39.0332 C.2       8 UNK         0.5038 
     53 O          22.0492  -32.7847  -38.0350 O.2       8 UNK        -0.5046 
     54 N          22.0053  -31.3900  -39.8227 N.am      9 UNK        -0.4200 
     55 CA         20.6450  -30.8651  -39.6277 C.3       9 UNK         0.0839 
     56 C          20.4827  -29.9018  -38.4164 C.2       9 UNK         0.5513 
     57 N          21.5458  -29.3312  -37.8654 N.am      9 UNK        -0.7519 
     58 O          19.3653  -29.6939  -37.9499 O.2       9 UNK        -0.4960 
     59 C59        20.0832  -30.2536  -40.9369 C.3       10 UNK        -0.0876 
     60 S60        19.7904  -31.5431  -42.1960 S.3       10 UNK        -0.2414 
     61 C61        18.4779  -30.7954  -43.2228 C.3       10 UNK         0.0169 
     62 H62        11.5099  -27.2423  -46.3057 H         1 UNK         0.0903 
     63 H63        11.1861  -26.7153  -44.6531 H         1 UNK         0.0903 
     64 H64        10.9701  -25.5907  -45.9973 H         1 UNK         0.0903 
     65 H65        13.7164  -27.3913  -46.7022 H         1 UNK         0.3096 
     66 H66        15.5439  -25.2489  -46.0401 H         1 UNK         0.1121 
     67 H67        17.2419  -26.6923  -47.1834 H         1 UNK         0.0849 
     68 H68        15.8607  -26.3341  -48.1707 H         1 UNK         0.0849 
     69 H69        17.5009  -30.2732  -48.3548 H         1 UNK         0.0865 
     70 H70        18.0015  -28.6513  -48.7520 H         1 UNK         0.0865 
     71 H71        17.1130  -30.3974  -45.5092 H         1 UNK         0.1346 
     72 H72        20.9398  -29.5722  -43.7436 H         1 UNK         0.1412 
     73 H73        20.0756  -28.2172  -47.7063 H         1 UNK         0.1426 
     74 H74        22.3500  -28.2336  -46.8977 H         1 UNK         0.0716 
     75 H75        22.7675  -28.9254  -45.3585 H         1 UNK         0.0716 
     76 H76        22.5467  -27.9797  -43.2380 H         1 UNK         0.0695 
     77 H77        23.5799  -26.5802  -43.2521 H         1 UNK         0.0695 
     78 H78        21.6659  -25.1177  -42.5494 H         1 UNK         0.0983 
     79 H79        19.9740  -27.3908  -41.9267 H         1 UNK         0.3095 
     80 H80        17.9547  -27.7013  -43.0692 H         1 UNK         0.0454 
     81 H81        17.0116  -25.0568  -41.8019 H         1 UNK         0.0851 
     82 H82        17.7289  -26.3991  -40.9207 H         1 UNK         0.0851 
     83 H83        16.1672  -26.6001  -41.6939 H         1 UNK         0.0851 
     84 H84        17.4897  -25.4750  -44.7948 H         1 UNK         0.2976 
     85 H85        23.8106  -25.5841  -41.2607 H         1 UNK         0.3116 
     86 H86        23.1216  -26.5422  -38.5476 H         1 UNK         0.0646 
     87 H87        25.5303  -24.9888  -39.6452 H         1 UNK         0.0847 
     88 H88        25.3299  -25.4904  -37.9670 H         1 UNK         0.0847 
     89 H89        24.2023  -24.3577  -38.6837 H         1 UNK         0.0847 
     90 H90        26.3840  -26.8180  -39.7781 H         1 UNK         0.3040 
     91 H91        26.6071  -29.5149  -38.8635 H         1 UNK         0.1015 
     92 H92        28.5500  -27.8047  -40.5109 H         1 UNK         0.0786 
     93 H93        28.9544  -29.3063  -39.6910 H         1 UNK         0.0786 
     94 H94        28.4868  -27.9007  -38.7502 H         1 UNK         0.0786 
     95 H95        26.0849  -28.1607  -42.0890 H         1 UNK         0.3172 
     96 H96        26.7951  -30.4625  -43.6200 H         1 UNK         0.0595 
     97 H97        25.5367  -29.3268  -45.4519 H         1 UNK         0.0839 
     98 H98        26.6411  -28.2242  -44.6476 H         1 UNK         0.0839 
     99 H99        24.9143  -28.1492  -44.3109 H         1 UNK         0.0839 
    100 H100       25.8233  -32.3296  -43.8035 H         1 UNK         0.2998 
    101 H101       24.4844  -34.0657  -43.6195 H         1 UNK         0.0822 
    102 H102       22.0727  -33.8779  -44.1707 H         1 UNK         0.0787 
    103 H103       22.1294  -32.1358  -43.9701 H         1 UNK         0.0787 
    104 H104       23.0282  -32.9042  -45.2747 H         1 UNK         0.0787 
    105 H105       24.9948  -32.1494  -41.1847 H         1 UNK         0.3055 
    106 H106       24.6857  -32.0193  -39.0143 H         1 UNK         0.1106 
    107 H107       24.3414  -34.1061  -37.7387 H         1 UNK         0.0828 
    108 H108       23.7062  -34.9209  -39.1602 H         1 UNK         0.0828 
    109 H109       25.3970  -34.4227  -39.1038 H         1 UNK         0.0828 
    110 H110       22.5176  -31.0333  -40.6183 H         1 UNK         0.2931 
    111 H111       20.0136  -31.7225  -39.3841 H         1 UNK         0.0412 
    112 H112       21.4204  -28.7150  -37.0795 H         1 UNK         0.3472 
    113 H113       22.4498  -29.3921  -38.3242 H         1 UNK         0.3472 
    114 H114       20.7738  -29.5112  -41.3381 H         1 UNK         0.0970 
    115 H115       19.1431  -29.7340  -40.7432 H         1 UNK         0.0970 
    116 H116       17.8179  -31.6082  -43.5296 H         1 UNK         0.0612 
    117 H117       17.8643  -30.1221  -42.6239 H         1 UNK         0.0612 
@<TRIPOS>BOND
     1    1    2 1    
     2    1   62 1    
     3    1   63 1    
     4    1   64 1    
     5    2    3 2    
     6    2    4 am   BACKBONE|DICT|INTERRES
     7    4    5 1    
     8    4   65 1    
     9    5    6 1    
    10    5   25 1    
    11    5   66 1    
    12    6    7 1    
    13    6   67 1    
    14    6   68 1    
    15    7    8 1    
    16    8    9 1    
    17    8   69 1    
    18    8   70 1    
    19    9   10 ar   
    20    9   14 ar   
    21   10   11 ar   
    22   10   71 1    
    23   11   12 ar   
    24   11   61 1    
    25   12   13 ar   
    26   12   72 1    
    27   13   14 ar   
    28   13   15 1    
    29   14   73 1    
    30   15   16 1    
    31   15   74 1    
    32   15   75 1    
    33   16   17 1    
    34   17   18 1    
    35   17   76 1    
    36   17   77 1    
    37   18   19 1    
    38   18   27 1    
    39   18   78 1    
    40   19   20 am   BACKBONE|DICT|INTERRES
    41   19   79 1    
    42   20   21 2    
    43   20   22 1    
    44   22   23 1    
    45   22   24 1    
    46   22   80 1    
    47   23   81 1    
    48   23   82 1    
    49   23   83 1    
    50   24   25 am   BACKBONE|DICT|INTERRES
    51   24   84 1    
    52   25   26 2    
    53   27   28 2    
    54   27   29 am   BACKBONE|DICT|INTERRES
    55   29   30 1    
    56   29   85 1    
    57   30   31 1    
    58   30   32 1    
    59   30   86 1    
    60   31   87 1    
    61   31   88 1    
    62   31   89 1    
    63   32   33 2    
    64   32   34 am   BACKBONE|DICT|INTERRES
    65   34   35 1    
    66   34   90 1    
    67   35   36 1    
    68   35   37 1    
    69   35   91 1    
    70   36   92 1    
    71   36   93 1    
    72   36   94 1    
    73   37   38 2    
    74   37   39 am   BACKBONE|DICT|INTERRES
    75   39   40 1    
    76   39   95 1    
    77   40   41 1    
    78   40   42 1    
    79   40   96 1    
    80   41   97 1    
    81   41   98 1    
    82   41   99 1    
    83   42   43 2    
    84   42   44 am   BACKBONE|DICT|INTERRES
    85   44   45 1    
    86   44  100 1    
    87   45   46 1    
    88   45   47 1    
    89   45  101 1    
    90   46  102 1    
    91   46  103 1    
    92   46  104 1    
    93   47   48 2    
    94   47   49 am   BACKBONE|DICT|INTERRES
    95   49   50 1    
    96   49  105 1    
    97   50   51 1    
    98   50   52 1    
    99   50  106 1    
   100   51  107 1    
   101   51  108 1    
   102   51  109 1    
   103   52   53 2    
   104   52   54 am   BACKBONE|DICT|INTERRES
   105   54   55 1    
   106   54  110 1    
   107   55   56 1    
   108   55   59 1    
   109   55  111 1    
   110   56   57 am   BACKBONE|DICT|INTERRES
   111   56   58 2    
   112   57  112 1    
   113   57  113 1    
   114   59   60 1    
   115   59  114 1    
   116   59  115 1    
   117   60   61 1    
   118   61  116 1    
   119   61  117 1    
@<TRIPOS>SUBSTRUCTURE
     1 UNK         1 GROUP             0       ****    0 ROOT    
