@<TRIPOS>MOLECULE
3R8
117   119    1
SMALL
USER_CHARGES


@<TRIPOS>ATOM
      1 CA         23.5353  -29.9190  -49.6136 C.3       0 UNK        -0.2013 
      2 C          23.3510  -29.5998  -48.1376 C.2       0 UNK         0.4866 
      3 O          24.3151  -29.2319  -47.4659 O.2       0 UNK        -0.5176 
      4 N          22.1230  -29.7470  -47.6262 N.am      1 UNK        -0.4884 
      5 CA         21.7526  -29.4209  -46.2472 C.3       1 UNK         0.0853 
      6 C6         20.5213  -30.2411  -45.7790 C.3       10 UNK        -0.0849 
      7 S7         18.9839  -29.9039  -46.7053 S.3       10 UNK        -0.2776 
      8 C8         17.7808  -30.8833  -45.7529 C.3       10 UNK         0.0316 
      9 C9         17.4986  -30.2780  -44.3841 C.ar      10 UNK        -0.0863 
     10 C10        18.1130  -30.7950  -43.2398 C.ar      10 UNK        -0.1009 
     11 C11        17.8214  -30.2776  -41.9720 C.ar      10 UNK        -0.0712 
     12 C12        16.9134  -29.2176  -41.8657 C.ar      10 UNK        -0.0894 
     13 C13        16.3108  -28.6729  -43.0041 C.ar      10 UNK        -0.0745 
     14 C14        16.6016  -29.2145  -44.2595 C.ar      10 UNK        -0.0972 
     15 C15        15.3290  -27.5146  -42.8889 C.3       10 UNK         0.0209 
     16 S16        16.0490  -25.9562  -43.5008 S.3       10 UNK        -0.2568 
     17 C17        16.8402  -25.2639  -42.0079 C.3       10 UNK        -0.0983 
     18 CA         18.2631  -25.8118  -41.7382 C.3       3 UNK         0.0876 
     19 N          19.1420  -25.7122  -42.9059 N.am      3 UNK        -0.4424 
     20 C          20.3188  -26.3366  -43.0165 C.2       2 UNK         0.4918 
     21 O          20.8137  -27.0516  -42.1395 O.2       2 UNK        -0.4875 
     22 CA         21.0692  -26.1634  -44.3367 C.3       2 UNK         0.0481 
     23 CB         22.3254  -25.2940  -44.1623 C.3       2 UNK        -0.1831 
     24 N          21.4349  -27.5022  -44.7764 N.am      2 UNK        -0.4498 
     25 C          21.5522  -27.9018  -46.0461 C.2       1 UNK         0.5027 
     26 O          21.4756  -27.1404  -47.0149 O.2       1 UNK        -0.4969 
     27 C          18.8933  -25.1184  -40.5156 C.2       3 UNK         0.5005 
     28 O          19.5759  -24.1027  -40.6760 O.2       3 UNK        -0.5279 
     29 N          18.6773  -25.6941  -39.3234 N.am      4 UNK        -0.4463 
     30 CA         19.2238  -25.3169  -38.0081 C.3       4 UNK         0.0283 
     31 CB         18.8205  -23.8844  -37.6061 C.3       4 UNK        -0.1875 
     32 C          20.7444  -25.5278  -37.8671 C.2       4 UNK         0.4949 
     33 O          21.1870  -26.0110  -36.8253 O.2       4 UNK        -0.5039 
     34 N          21.5115  -25.1896  -38.9109 N.am      5 UNK        -0.4663 
     35 CA         22.9531  -25.4204  -39.0189 C.3       5 UNK         0.0242 
     36 CB         23.4989  -24.6449  -40.2284 C.3       5 UNK        -0.1982 
     37 C          23.3122  -26.9121  -39.1280 C.2       5 UNK         0.5017 
     38 O          24.3332  -27.3210  -38.5747 O.2       5 UNK        -0.5012 
     39 N          22.4633  -27.6836  -39.8275 N.am      6 UNK        -0.4439 
     40 CA         22.5665  -29.1245  -40.0798 C.3       6 UNK         0.0297 
     41 CB         22.3697  -29.9302  -38.7788 C.3       6 UNK        -0.2006 
     42 C          23.8565  -29.4901  -40.8359 C.2       6 UNK         0.4892 
     43 O          24.6413  -30.3167  -40.3692 O.2       6 UNK        -0.5089 
     44 N          24.0448  -28.8525  -42.0016 N.am      7 UNK        -0.4243 
     45 CA         25.1959  -29.0489  -42.8952 C.3       7 UNK         0.0196 
     46 CB         25.1771  -27.9718  -43.9922 C.3       7 UNK        -0.2007 
     47 C          25.2881  -30.4581  -43.5171 C.2       7 UNK         0.5020 
     48 O          26.3736  -30.8616  -43.9353 O.2       7 UNK        -0.5147 
     49 N          24.1641  -31.1825  -43.5475 N.am      8 UNK        -0.4734 
     50 CA         24.0781  -32.5974  -43.8943 C.3       8 UNK         0.0238 
     51 CB         23.7258  -32.7714  -45.3857 C.3       8 UNK        -0.1912 
     52 C          23.0786  -33.2270  -42.9176 C.2       8 UNK         0.5038 
     53 O          23.4797  -33.5881  -41.8115 O.2       8 UNK        -0.5046 
     54 N          21.7963  -33.2876  -43.3061 N.am      9 UNK        -0.4200 
     55 CA         20.6724  -33.7399  -42.4632 C.3       9 UNK         0.0839 
     56 C          20.6937  -35.2625  -42.1156 C.2       9 UNK         0.5513 
     57 N          21.3919  -36.0960  -42.8781 N.am      9 UNK        -0.7519 
     58 O          20.0563  -35.7055  -41.1641 O.2       9 UNK        -0.4960 
     59 C59        20.4715  -32.8108  -41.2249 C.3       10 UNK        -0.0876 
     60 S60        18.7283  -32.6374  -40.6995 S.3       10 UNK        -0.2414 
     61 C61        18.4798  -30.8252  -40.7052 C.3       10 UNK         0.0169 
     62 H62        24.2732  -30.7113  -49.7367 H         1 UNK         0.0903 
     63 H63        22.6058  -30.2459  -50.0795 H         1 UNK         0.0903 
     64 H64        23.8897  -29.0368  -50.1460 H         1 UNK         0.0903 
     65 H65        21.3541  -30.0074  -48.2281 H         1 UNK         0.3096 
     66 H66        22.5927  -29.7052  -45.6095 H         1 UNK         0.1121 
     67 H67        20.7298  -31.3067  -45.8711 H         1 UNK         0.0849 
     68 H68        20.3413  -30.0688  -44.7176 H         1 UNK         0.0849 
     69 H69        16.8506  -30.9435  -46.3199 H         1 UNK         0.0865 
     70 H70        18.1394  -31.9094  -45.6559 H         1 UNK         0.0865 
     71 H71        18.8135  -31.6086  -43.3411 H         1 UNK         0.1346 
     72 H72        16.6785  -28.8096  -40.8922 H         1 UNK         0.1412 
     73 H73        16.1302  -28.8038  -45.1423 H         1 UNK         0.1426 
     74 H74        14.9801  -27.3920  -41.8625 H         1 UNK         0.0716 
     75 H75        14.4427  -27.7435  -43.4826 H         1 UNK         0.0716 
     76 H76        16.1897  -25.4425  -41.1497 H         1 UNK         0.0695 
     77 H77        16.8738  -24.1800  -42.1361 H         1 UNK         0.0695 
     78 H78        18.1800  -26.8728  -41.5035 H         1 UNK         0.0983 
     79 H79        18.8067  -25.1385  -43.6653 H         1 UNK         0.3095 
     80 H80        20.4043  -25.7005  -45.0694 H         1 UNK         0.0454 
     81 H81        22.0647  -24.3006  -43.7950 H         1 UNK         0.0851 
     82 H82        22.8504  -25.1638  -45.1086 H         1 UNK         0.0851 
     83 H83        23.0249  -25.7331  -43.4514 H         1 UNK         0.0851 
     84 H84        21.4395  -28.1847  -44.0311 H         1 UNK         0.2976 
     85 H85        18.1146  -26.5339  -39.3082 H         1 UNK         0.3116 
     86 H86        18.7523  -25.9952  -37.2949 H         1 UNK         0.0646 
     87 H87        19.2812  -23.1315  -38.2462 H         1 UNK         0.0847 
     88 H88        19.1312  -23.6682  -36.5831 H         1 UNK         0.0847 
     89 H89        17.7401  -23.7481  -37.6516 H         1 UNK         0.0847 
     90 H90        21.0431  -24.7587  -39.7049 H         1 UNK         0.3040 
     91 H91        23.4278  -25.0319  -38.1150 H         1 UNK         0.1015 
     92 H92        23.3414  -23.5722  -40.1143 H         1 UNK         0.0786 
     93 H93        23.0175  -24.9561  -41.1555 H         1 UNK         0.0786 
     94 H94        24.5719  -24.8042  -40.3454 H         1 UNK         0.0786 
     95 H95        21.6970  -27.2226  -40.3079 H         1 UNK         0.3172 
     96 H96        21.7399  -29.3769  -40.7454 H         1 UNK         0.0595 
     97 H97        23.1705  -29.7467  -38.0617 H         1 UNK         0.0839 
     98 H98        22.3559  -31.0017  -38.9827 H         1 UNK         0.0839 
     99 H99        21.4246  -29.6797  -38.2970 H         1 UNK         0.0839 
    100 H100       23.3680  -28.1542  -42.2733 H         1 UNK         0.2998 
    101 H101       26.0997  -28.9074  -42.2985 H         1 UNK         0.0822 
    102 H102       26.0383  -28.0755  -44.6541 H         1 UNK         0.0787 
    103 H103       24.2858  -28.0395  -44.6150 H         1 UNK         0.0787 
    104 H104       25.2193  -26.9691  -43.5669 H         1 UNK         0.0787 
    105 H105       23.3427  -30.7861  -43.1155 H         1 UNK         0.3055 
    106 H106       25.0399  -33.0832  -43.7112 H         1 UNK         0.1106 
    107 H107       24.5285  -32.3909  -46.0180 H         1 UNK         0.0828 
    108 H108       23.5924  -33.8242  -45.6377 H         1 UNK         0.0828 
    109 H109       22.8180  -32.2433  -45.6680 H         1 UNK         0.0828 
    110 H110       21.5597  -33.0130  -44.2472 H         1 UNK         0.2931 
    111 H111       19.7988  -33.6294  -43.1051 H         1 UNK         0.0412 
    112 H112       21.9134  -35.7547  -43.6692 H         1 UNK         0.3472 
    113 H113       21.3979  -37.0793  -42.6560 H         1 UNK         0.3472 
    114 H114       21.0630  -33.1612  -40.3771 H         1 UNK         0.0970 
    115 H115       20.8558  -31.8155  -41.4480 H         1 UNK         0.0970 
    116 H116       17.8537  -30.5909  -39.8429 H         1 UNK         0.0612 
    117 H117       19.4236  -30.3067  -40.5354 H         1 UNK         0.0612 
@<TRIPOS>BOND
     1    1    2 1    
     2    1   62 1    
     3    1   63 1    
     4    1   64 1    
     5    2    3 2    
     6    2    4 am   BACKBONE|DICT|INTERRES
     7    4    5 1    
     8    4   65 1    
     9    5    6 1    
    10    5   25 1    
    11    5   66 1    
    12    6    7 1    
    13    6   67 1    
    14    6   68 1    
    15    7    8 1    
    16    8    9 1    
    17    8   69 1    
    18    8   70 1    
    19    9   10 ar   
    20    9   14 ar   
    21   10   11 ar   
    22   10   71 1    
    23   11   12 ar   
    24   11   61 1    
    25   12   13 ar   
    26   12   72 1    
    27   13   14 ar   
    28   13   15 1    
    29   14   73 1    
    30   15   16 1    
    31   15   74 1    
    32   15   75 1    
    33   16   17 1    
    34   17   18 1    
    35   17   76 1    
    36   17   77 1    
    37   18   19 1    
    38   18   27 1    
    39   18   78 1    
    40   19   20 am   BACKBONE|DICT|INTERRES
    41   19   79 1    
    42   20   21 2    
    43   20   22 1    
    44   22   23 1    
    45   22   24 1    
    46   22   80 1    
    47   23   81 1    
    48   23   82 1    
    49   23   83 1    
    50   24   25 am   BACKBONE|DICT|INTERRES
    51   24   84 1    
    52   25   26 2    
    53   27   28 2    
    54   27   29 am   BACKBONE|DICT|INTERRES
    55   29   30 1    
    56   29   85 1    
    57   30   31 1    
    58   30   32 1    
    59   30   86 1    
    60   31   87 1    
    61   31   88 1    
    62   31   89 1    
    63   32   33 2    
    64   32   34 am   BACKBONE|DICT|INTERRES
    65   34   35 1    
    66   34   90 1    
    67   35   36 1    
    68   35   37 1    
    69   35   91 1    
    70   36   92 1    
    71   36   93 1    
    72   36   94 1    
    73   37   38 2    
    74   37   39 am   BACKBONE|DICT|INTERRES
    75   39   40 1    
    76   39   95 1    
    77   40   41 1    
    78   40   42 1    
    79   40   96 1    
    80   41   97 1    
    81   41   98 1    
    82   41   99 1    
    83   42   43 2    
    84   42   44 am   BACKBONE|DICT|INTERRES
    85   44   45 1    
    86   44  100 1    
    87   45   46 1    
    88   45   47 1    
    89   45  101 1    
    90   46  102 1    
    91   46  103 1    
    92   46  104 1    
    93   47   48 2    
    94   47   49 am   BACKBONE|DICT|INTERRES
    95   49   50 1    
    96   49  105 1    
    97   50   51 1    
    98   50   52 1    
    99   50  106 1    
   100   51  107 1    
   101   51  108 1    
   102   51  109 1    
   103   52   53 2    
   104   52   54 am   BACKBONE|DICT|INTERRES
   105   54   55 1    
   106   54  110 1    
   107   55   56 1    
   108   55   59 1    
   109   55  111 1    
   110   56   57 am   BACKBONE|DICT|INTERRES
   111   56   58 2    
   112   57  112 1    
   113   57  113 1    
   114   59   60 1    
   115   59  114 1    
   116   59  115 1    
   117   60   61 1    
   118   61  116 1    
   119   61  117 1    
@<TRIPOS>SUBSTRUCTURE
     1 UNK         1 GROUP             0       ****    0 ROOT    
