@<TRIPOS>MOLECULE
3R8
117   119    1
SMALL
USER_CHARGES


@<TRIPOS>ATOM
      1 CA         22.4017  -29.6019  -44.7102 C.3       0 UNK        -0.2013 
      2 C          21.1342  -28.8317  -45.0430 C.2       0 UNK         0.4866 
      3 O          20.8094  -27.8633  -44.3519 O.2       0 UNK        -0.5176 
      4 N          20.4118  -29.2552  -46.0895 N.am      1 UNK        -0.4884 
      5 CA         19.1898  -28.5964  -46.5644 C.3       1 UNK         0.0853 
      6 C6         18.2898  -29.5222  -47.4152 C.3       10 UNK        -0.0849 
      7 S7         17.6725  -30.9474  -46.4560 S.3       10 UNK        -0.2776 
      8 C8         16.3546  -30.1974  -45.4223 C.3       10 UNK         0.0316 
      9 C9         16.8463  -29.5170  -44.1394 C.ar      10 UNK        -0.0863 
     10 C10        17.9381  -30.0225  -43.4233 C.ar      10 UNK        -0.1009 
     11 C11        18.3545  -29.4279  -42.2291 C.ar      10 UNK        -0.0712 
     12 C12        17.6538  -28.3245  -41.7364 C.ar      10 UNK        -0.0894 
     13 C13        16.5703  -27.7892  -42.4413 C.ar      10 UNK        -0.0745 
     14 C14        16.1730  -28.3929  -43.6419 C.ar      10 UNK        -0.0972 
     15 C15        15.8018  -26.5900  -41.8841 C.3       10 UNK         0.0209 
     16 S16        16.8750  -25.2174  -41.3189 S.3       10 UNK        -0.2568 
     17 C17        17.3801  -24.4529  -42.8951 C.3       10 UNK        -0.0983 
     18 CA         18.6472  -25.1289  -43.4860 C.3       3 UNK         0.0876 
     19 N          18.5460  -25.3244  -44.9279 N.am      3 UNK        -0.4424 
     20 C          18.6216  -24.4201  -45.9163 C.2       2 UNK         0.4918 
     21 O          18.8149  -23.2171  -45.7419 O.2       2 UNK        -0.4875 
     22 CA         18.4004  -24.9654  -47.3477 C.3       2 UNK         0.0481 
     23 CB         19.3500  -24.3279  -48.3840 C.3       2 UNK        -0.1831 
     24 N          18.4110  -26.4392  -47.3759 N.am      2 UNK        -0.4498 
     25 C          19.4805  -27.2415  -47.2438 C.2       1 UNK         0.5027 
     26 O          20.6347  -26.9201  -47.5343 O.2       1 UNK        -0.4969 
     27 C          20.0004  -24.5167  -43.0694 C.2       3 UNK         0.5005 
     28 O          20.0530  -23.4856  -42.3959 O.2       3 UNK        -0.5279 
     29 N          21.0821  -25.1871  -43.4925 N.am      4 UNK        -0.4463 
     30 CA         22.4659  -24.8576  -43.1428 C.3       4 UNK         0.0283 
     31 CB         23.4066  -25.4740  -44.1908 C.3       4 UNK        -0.1875 
     32 C          22.8513  -25.3334  -41.7295 C.2       4 UNK         0.4949 
     33 O          23.8467  -24.8494  -41.1909 O.2       4 UNK        -0.5039 
     34 N          22.0634  -26.2632  -41.1638 N.am      5 UNK        -0.4663 
     35 CA         22.1934  -26.8473  -39.8218 C.3       5 UNK         0.0242 
     36 CB         21.9553  -25.7793  -38.7324 C.3       5 UNK        -0.1982 
     37 C          23.5058  -27.6323  -39.6277 C.2       5 UNK         0.5017 
     38 O          24.1493  -27.5198  -38.5820 O.2       5 UNK        -0.5012 
     39 N          23.8712  -28.4225  -40.6470 N.am      6 UNK        -0.4439 
     40 CA         24.9916  -29.3666  -40.6176 C.3       6 UNK         0.0297 
     41 CB         25.2455  -29.8819  -42.0445 C.3       6 UNK        -0.2006 
     42 C          24.7238  -30.5441  -39.6617 C.2       6 UNK         0.4892 
     43 O          23.5640  -30.8312  -39.3513 O.2       6 UNK        -0.5089 
     44 N          25.8001  -31.2246  -39.2419 N.am      7 UNK        -0.4243 
     45 CA         25.7721  -32.4074  -38.3739 C.3       7 UNK         0.0196 
     46 CB         27.2111  -32.8782  -38.1051 C.3       7 UNK        -0.2007 
     47 C          24.9264  -33.5380  -38.9845 C.2       7 UNK         0.5020 
     48 O          25.2755  -34.0471  -40.0518 O.2       7 UNK        -0.5147 
     49 N          23.7949  -33.8465  -38.3325 N.am      8 UNK        -0.4734 
     50 CA         22.7363  -34.7699  -38.7758 C.3       8 UNK         0.0238 
     51 CB         23.2425  -36.2278  -38.7354 C.3       8 UNK        -0.1912 
     52 C          22.1169  -34.4011  -40.1437 C.2       8 UNK         0.5038 
     53 O          21.5828  -35.2781  -40.8252 O.2       8 UNK        -0.5046 
     54 N          22.2209  -33.1202  -40.5262 N.am      9 UNK        -0.4200 
     55 CA         21.8925  -32.5695  -41.8490 C.3       9 UNK         0.0839 
     56 C          22.7688  -33.1310  -43.0109 C.2       9 UNK         0.5513 
     57 N          23.9526  -33.6726  -42.7449 N.am      9 UNK        -0.7519 
     58 O          22.3909  -33.0445  -44.1758 O.2       9 UNK        -0.4960 
     59 C59        20.3690  -32.5713  -42.1636 C.3       10 UNK        -0.0876 
     60 S60        19.3950  -31.6647  -40.9106 S.3       10 UNK        -0.2414 
     61 C61        19.5788  -29.9447  -41.4831 C.3       10 UNK         0.0169 
     62 H62        22.3769  -29.9266  -43.6723 H         1 UNK         0.0903 
     63 H63        22.5175  -30.4851  -45.3381 H         1 UNK         0.0903 
     64 H64        23.2763  -28.9681  -44.8510 H         1 UNK         0.0903 
     65 H65        20.7260  -30.0470  -46.6317 H         1 UNK         0.3096 
     66 H66        18.6258  -28.3367  -45.6696 H         1 UNK         0.1121 
     67 H67        18.8410  -29.8964  -48.2798 H         1 UNK         0.0849 
     68 H68        17.4263  -28.9903  -47.8182 H         1 UNK         0.0849 
     69 H69        15.7768  -29.5000  -46.0307 H         1 UNK         0.0865 
     70 H70        15.6623  -30.9888  -45.1323 H         1 UNK         0.0865 
     71 H71        18.4671  -30.8854  -43.7970 H         1 UNK         0.1346 
     72 H72        17.9605  -27.8677  -40.8053 H         1 UNK         0.1412 
     73 H73        15.3208  -27.9992  -44.1795 H         1 UNK         0.1426 
     74 H74        15.0882  -26.2088  -42.6160 H         1 UNK         0.0716 
     75 H75        15.2102  -26.9331  -41.0345 H         1 UNK         0.0716 
     76 H76        17.5180  -23.3799  -42.7522 H         1 UNK         0.0695 
     77 H77        16.5388  -24.5401  -43.5845 H         1 UNK         0.0695 
     78 H78        18.6917  -26.1474  -43.1014 H         1 UNK         0.0983 
     79 H79        18.3963  -26.2809  -45.2009 H         1 UNK         0.3095 
     80 H80        17.3852  -24.6765  -47.6232 H         1 UNK         0.0454 
     81 H81        19.2303  -24.7811  -49.3678 H         1 UNK         0.0851 
     82 H82        19.1442  -23.2623  -48.4906 H         1 UNK         0.0851 
     83 H83        20.3966  -24.4201  -48.0930 H         1 UNK         0.0851 
     84 H84        17.4988  -26.8498  -47.2263 H         1 UNK         0.2976 
     85 H85        20.9452  -26.0596  -44.0028 H         1 UNK         0.3116 
     86 H86        22.5851  -23.7725  -43.1721 H         1 UNK         0.0646 
     87 H87        23.1643  -25.1273  -45.1956 H         1 UNK         0.0847 
     88 H88        24.4436  -25.1988  -43.9940 H         1 UNK         0.0847 
     89 H89        23.3535  -26.5626  -44.1900 H         1 UNK         0.0847 
     90 H90        21.2880  -26.5996  -41.7173 H         1 UNK         0.3040 
     91 H91        21.3941  -27.5839  -39.7281 H         1 UNK         0.1015 
     92 H92        22.7478  -25.0304  -38.7171 H         1 UNK         0.0786 
     93 H93        21.9195  -26.2333  -37.7413 H         1 UNK         0.0786 
     94 H94        21.0080  -25.2620  -38.8850 H         1 UNK         0.0786 
     95 H95        23.2764  -28.4472  -41.4605 H         1 UNK         0.3172 
     96 H96        25.8787  -28.8318  -40.2718 H         1 UNK         0.0595 
     97 H97        24.4052  -30.4644  -42.4212 H         1 UNK         0.0839 
     98 H98        26.1231  -30.5289  -42.0779 H         1 UNK         0.0839 
     99 H99        25.4262  -29.0615  -42.7395 H         1 UNK         0.0839 
    100 H100       26.7096  -30.9370  -39.5730 H         1 UNK         0.2998 
    101 H101       25.3305  -32.1068  -37.4214 H         1 UNK         0.0822 
    102 H102       27.2191  -33.7536  -37.4543 H         1 UNK         0.0787 
    103 H103       27.7253  -33.1538  -39.0271 H         1 UNK         0.0787 
    104 H104       27.7980  -32.1034  -37.6114 H         1 UNK         0.0787 
    105 H105       23.5882  -33.3343  -37.4850 H         1 UNK         0.3055 
    106 H106       21.9249  -34.6808  -38.0514 H         1 UNK         0.1106 
    107 H107       22.4306  -36.9314  -38.9238 H         1 UNK         0.0828 
    108 H108       24.0103  -36.4100  -39.4880 H         1 UNK         0.0828 
    109 H109       23.6623  -36.4760  -37.7607 H         1 UNK         0.0828 
    110 H110       22.6775  -32.4634  -39.8998 H         1 UNK         0.2931 
    111 H111       22.1940  -31.5244  -41.7844 H         1 UNK         0.0412 
    112 H112       24.5120  -34.0220  -43.5064 H         1 UNK         0.3472 
    113 H113       24.2918  -33.7594  -41.7925 H         1 UNK         0.3472 
    114 H114       19.9933  -33.5937  -42.2227 H         1 UNK         0.0970 
    115 H115       20.1812  -32.1294  -43.1422 H         1 UNK         0.0970 
    116 H116       20.4556  -29.8471  -42.1225 H         1 UNK         0.0612 
    117 H117       19.7781  -29.3254  -40.6078 H         1 UNK         0.0612 
@<TRIPOS>BOND
     1    1    2 1    
     2    1   62 1    
     3    1   63 1    
     4    1   64 1    
     5    2    3 2    
     6    2    4 am   BACKBONE|DICT|INTERRES
     7    4    5 1    
     8    4   65 1    
     9    5    6 1    
    10    5   25 1    
    11    5   66 1    
    12    6    7 1    
    13    6   67 1    
    14    6   68 1    
    15    7    8 1    
    16    8    9 1    
    17    8   69 1    
    18    8   70 1    
    19    9   10 ar   
    20    9   14 ar   
    21   10   11 ar   
    22   10   71 1    
    23   11   12 ar   
    24   11   61 1    
    25   12   13 ar   
    26   12   72 1    
    27   13   14 ar   
    28   13   15 1    
    29   14   73 1    
    30   15   16 1    
    31   15   74 1    
    32   15   75 1    
    33   16   17 1    
    34   17   18 1    
    35   17   76 1    
    36   17   77 1    
    37   18   19 1    
    38   18   27 1    
    39   18   78 1    
    40   19   20 am   BACKBONE|DICT|INTERRES
    41   19   79 1    
    42   20   21 2    
    43   20   22 1    
    44   22   23 1    
    45   22   24 1    
    46   22   80 1    
    47   23   81 1    
    48   23   82 1    
    49   23   83 1    
    50   24   25 am   BACKBONE|DICT|INTERRES
    51   24   84 1    
    52   25   26 2    
    53   27   28 2    
    54   27   29 am   BACKBONE|DICT|INTERRES
    55   29   30 1    
    56   29   85 1    
    57   30   31 1    
    58   30   32 1    
    59   30   86 1    
    60   31   87 1    
    61   31   88 1    
    62   31   89 1    
    63   32   33 2    
    64   32   34 am   BACKBONE|DICT|INTERRES
    65   34   35 1    
    66   34   90 1    
    67   35   36 1    
    68   35   37 1    
    69   35   91 1    
    70   36   92 1    
    71   36   93 1    
    72   36   94 1    
    73   37   38 2    
    74   37   39 am   BACKBONE|DICT|INTERRES
    75   39   40 1    
    76   39   95 1    
    77   40   41 1    
    78   40   42 1    
    79   40   96 1    
    80   41   97 1    
    81   41   98 1    
    82   41   99 1    
    83   42   43 2    
    84   42   44 am   BACKBONE|DICT|INTERRES
    85   44   45 1    
    86   44  100 1    
    87   45   46 1    
    88   45   47 1    
    89   45  101 1    
    90   46  102 1    
    91   46  103 1    
    92   46  104 1    
    93   47   48 2    
    94   47   49 am   BACKBONE|DICT|INTERRES
    95   49   50 1    
    96   49  105 1    
    97   50   51 1    
    98   50   52 1    
    99   50  106 1    
   100   51  107 1    
   101   51  108 1    
   102   51  109 1    
   103   52   53 2    
   104   52   54 am   BACKBONE|DICT|INTERRES
   105   54   55 1    
   106   54  110 1    
   107   55   56 1    
   108   55   59 1    
   109   55  111 1    
   110   56   57 am   BACKBONE|DICT|INTERRES
   111   56   58 2    
   112   57  112 1    
   113   57  113 1    
   114   59   60 1    
   115   59  114 1    
   116   59  115 1    
   117   60   61 1    
   118   61  116 1    
   119   61  117 1    
@<TRIPOS>SUBSTRUCTURE
     1 UNK         1 GROUP             0       ****    0 ROOT    
