@<TRIPOS>MOLECULE
3R8
117   119    1
SMALL
USER_CHARGES


@<TRIPOS>ATOM
      1 CA         14.2611  -24.6566  -44.2494 C.3       0 UNK        -0.2013 
      2 C          15.4993  -24.4868  -45.1159 C.2       0 UNK         0.4866 
      3 O          16.1920  -23.4740  -45.0072 O.2       0 UNK        -0.5176 
      4 N          15.7889  -25.4707  -45.9755 N.am      1 UNK        -0.4884 
      5 CA         16.9284  -25.5201  -46.9007 C.3       1 UNK         0.0853 
      6 C6         16.6554  -26.4370  -48.1312 C.3       10 UNK        -0.0849 
      7 S7         15.6355  -27.9277  -47.8285 S.3       10 UNK        -0.2776 
      8 C8         16.8800  -29.2318  -47.5225 C.3       10 UNK         0.0316 
      9 C9         17.1543  -29.5549  -46.0509 C.ar      10 UNK        -0.0863 
     10 C10        18.2760  -30.3299  -45.7391 C.ar      10 UNK        -0.1009 
     11 C11        18.5537  -30.6954  -44.4184 C.ar      10 UNK        -0.0712 
     12 C12        17.7011  -30.2757  -43.3943 C.ar      10 UNK        -0.0894 
     13 C13        16.5908  -29.4794  -43.6837 C.ar      10 UNK        -0.0745 
     14 C14        16.3141  -29.1374  -45.0099 C.ar      10 UNK        -0.0972 
     15 C15        15.6836  -28.9764  -42.5730 C.3       10 UNK         0.0209 
     16 S16        16.0028  -27.2200  -42.2188 S.3       10 UNK        -0.2568 
     17 C17        17.4000  -27.3058  -41.0478 C.3       10 UNK        -0.0983 
     18 CA         18.8063  -27.2762  -41.7027 C.3       3 UNK         0.0876 
     19 N          18.9333  -26.2200  -42.7189 N.am      3 UNK        -0.4424 
     20 C          20.0004  -26.0161  -43.5048 C.2       2 UNK         0.4918 
     21 O          21.0397  -26.6722  -43.4289 O.2       2 UNK        -0.4875 
     22 CA         19.8919  -24.8472  -44.4994 C.3       2 UNK         0.0481 
     23 CB         21.1298  -24.7149  -45.4125 C.3       2 UNK        -0.1831 
     24 N          18.6527  -24.8825  -45.2834 N.am      2 UNK        -0.4498 
     25 C          18.2697  -25.8025  -46.1816 C.2       1 UNK         0.5027 
     26 O          18.9332  -26.7997  -46.4658 O.2       1 UNK        -0.4969 
     27 C          19.8859  -27.2139  -40.5973 C.2       3 UNK         0.5005 
     28 O          20.1687  -28.2323  -39.9654 O.2       3 UNK        -0.5279 
     29 N          20.4682  -26.0235  -40.3876 N.am      4 UNK        -0.4463 
     30 CA         21.5553  -25.7488  -39.4466 C.3       4 UNK         0.0283 
     31 CB         21.7087  -24.2263  -39.2959 C.3       4 UNK        -0.1875 
     32 C          22.9052  -26.3882  -39.8260 C.2       4 UNK         0.4949 
     33 O          23.8017  -26.4141  -38.9811 O.2       4 UNK        -0.5039 
     34 N          23.0498  -26.8996  -41.0589 N.am      5 UNK        -0.4663 
     35 CA         24.2348  -27.6116  -41.5515 C.3       5 UNK         0.0242 
     36 CB         24.1954  -27.6423  -43.0904 C.3       5 UNK        -0.1982 
     37 C          24.3557  -29.0242  -40.9437 C.2       5 UNK         0.5017 
     38 O          24.3379  -30.0177  -41.6719 O.2       5 UNK        -0.5012 
     39 N          24.4762  -29.0899  -39.6112 N.am      6 UNK        -0.4439 
     40 CA         24.4771  -30.2995  -38.7794 C.3       6 UNK         0.0297 
     41 CB         24.5822  -29.8904  -37.3022 C.3       6 UNK        -0.2006 
     42 C          25.5543  -31.3440  -39.1247 C.2       6 UNK         0.4892 
     43 O          25.3691  -32.5175  -38.8036 O.2       6 UNK        -0.5089 
     44 N          26.6309  -30.9232  -39.8034 N.am      7 UNK        -0.4243 
     45 CA         27.6539  -31.8026  -40.3772 C.3       7 UNK         0.0196 
     46 CB         28.7934  -30.9441  -40.9492 C.3       7 UNK        -0.2007 
     47 C          27.1059  -32.7577  -41.4567 C.2       7 UNK         0.5020 
     48 O          27.6609  -33.8430  -41.6311 O.2       7 UNK        -0.5147 
     49 N          26.0324  -32.3478  -42.1455 N.am      8 UNK        -0.4734 
     50 CA         25.2981  -33.1589  -43.1161 C.3       8 UNK         0.0238 
     51 CB         25.1723  -32.3779  -44.4356 C.3       8 UNK        -0.1912 
     52 C          23.9072  -33.5315  -42.5822 C.2       8 UNK         0.5038 
     53 O          23.4966  -34.6835  -42.7278 O.2       8 UNK        -0.5046 
     54 N          23.2048  -32.5542  -41.9953 N.am      9 UNK        -0.4200 
     55 CA         21.8100  -32.6710  -41.5439 C.3       9 UNK         0.0839 
     56 C          21.6184  -33.3452  -40.1568 C.2       9 UNK         0.5513 
     57 N          22.6626  -33.6252  -39.3884 N.am      9 UNK        -0.7519 
     58 O          20.4888  -33.6368  -39.7737 O.2       9 UNK        -0.4960 
     59 C59        21.0676  -31.3086  -41.6214 C.3       10 UNK        -0.0876 
     60 S60        21.0903  -30.5996  -43.3040 S.3       10 UNK        -0.2414 
     61 C61        19.7654  -31.5582  -44.1045 C.3       10 UNK         0.0169 
     62 H62        13.8064  -25.6389  -44.3775 H         1 UNK         0.0903 
     63 H63        14.5210  -24.5410  -43.1975 H         1 UNK         0.0903 
     64 H64        13.5187  -23.9004  -44.5027 H         1 UNK         0.0903 
     65 H65        15.1914  -26.2847  -46.0184 H         1 UNK         0.3096 
     66 H66        17.0493  -24.5126  -47.3070 H         1 UNK         0.1121 
     67 H67        16.0982  -25.8518  -48.8645 H         1 UNK         0.0849 
     68 H68        17.5752  -26.7094  -48.6521 H         1 UNK         0.0849 
     69 H69        16.5307  -30.1456  -48.0046 H         1 UNK         0.0865 
     70 H70        17.8139  -28.9661  -48.0195 H         1 UNK         0.0865 
     71 H71        18.9332  -30.6590  -46.5326 H         1 UNK         0.1346 
     72 H72        17.9148  -30.5528  -42.3713 H         1 UNK         0.1412 
     73 H73        15.4385  -28.5396  -45.2138 H         1 UNK         0.1426 
     74 H74        15.7970  -29.5737  -41.6673 H         1 UNK         0.0716 
     75 H75        14.6429  -29.0875  -42.8811 H         1 UNK         0.0716 
     76 H76        17.2887  -28.1980  -40.4287 H         1 UNK         0.0695 
     77 H77        17.2861  -26.4587  -40.3681 H         1 UNK         0.0695 
     78 H78        18.9665  -28.2196  -42.2247 H         1 UNK         0.0983 
     79 H79        18.1103  -25.6534  -42.8640 H         1 UNK         0.3095 
     80 H80        19.8388  -23.9401  -43.8957 H         1 UNK         0.0454 
     81 H81        22.0339  -24.5609  -44.8220 H         1 UNK         0.0851 
     82 H82        21.0369  -23.8656  -46.0889 H         1 UNK         0.0851 
     83 H83        21.2891  -25.6097  -46.0151 H         1 UNK         0.0851 
     84 H84        17.9891  -24.1321  -45.1032 H         1 UNK         0.2976 
     85 H85        20.1593  -25.2482  -40.9556 H         1 UNK         0.3116 
     86 H86        21.2683  -26.1607  -38.4769 H         1 UNK         0.0646 
     87 H87        20.7848  -23.7649  -38.9468 H         1 UNK         0.0847 
     88 H88        21.9880  -23.7528  -40.2379 H         1 UNK         0.0847 
     89 H89        22.4833  -23.9814  -38.5676 H         1 UNK         0.0847 
     90 H90        22.2639  -26.8539  -41.6992 H         1 UNK         0.3040 
     91 H91        25.1246  -27.0533  -41.2526 H         1 UNK         0.1015 
     92 H92        25.0904  -28.1154  -43.4964 H         1 UNK         0.0786 
     93 H93        24.1408  -26.6369  -43.5080 H         1 UNK         0.0786 
     94 H94        23.3352  -28.2035  -43.4589 H         1 UNK         0.0786 
     95 H95        24.4418  -28.2008  -39.1177 H         1 UNK         0.3172 
     96 H96        23.5096  -30.7827  -38.9282 H         1 UNK         0.0595 
     97 H97        25.5152  -29.3650  -37.0951 H         1 UNK         0.0839 
     98 H98        24.5480  -30.7646  -36.6503 H         1 UNK         0.0839 
     99 H99        23.7577  -29.2396  -37.0102 H         1 UNK         0.0839 
    100 H100       26.7014  -29.9391  -40.0166 H         1 UNK         0.2998 
    101 H101       28.0558  -32.4177  -39.5692 H         1 UNK         0.0822 
    102 H102       29.2457  -30.3190  -40.1791 H         1 UNK         0.0787 
    103 H103       29.5851  -31.5718  -41.3609 H         1 UNK         0.0787 
    104 H104       28.4443  -30.2922  -41.7511 H         1 UNK         0.0787 
    105 H105       25.6283  -31.4430  -41.9212 H         1 UNK         0.3055 
    106 H106       25.8313  -34.0900  -43.3213 H         1 UNK         0.1106 
    107 H107       26.1524  -32.1591  -44.8593 H         1 UNK         0.0828 
    108 H108       24.6188  -32.9532  -45.1788 H         1 UNK         0.0828 
    109 H109       24.6481  -31.4305  -44.2992 H         1 UNK         0.0828 
    110 H110       23.6098  -31.6233  -41.9274 H         1 UNK         0.2931 
    111 H111       21.3072  -33.3399  -42.2445 H         1 UNK         0.0412 
    112 H112       23.6032  -33.3668  -39.6540 H         1 UNK         0.3472 
    113 H113       22.5062  -34.0716  -38.4989 H         1 UNK         0.3472 
    114 H114       20.0299  -31.4045  -41.2969 H         1 UNK         0.0970 
    115 H115       21.5270  -30.5877  -40.9426 H         1 UNK         0.0970 
    116 H116       20.1672  -31.9992  -45.0177 H         1 UNK         0.0612 
    117 H117       19.4593  -32.3960  -43.4773 H         1 UNK         0.0612 
@<TRIPOS>BOND
     1    1    2 1    
     2    1   62 1    
     3    1   63 1    
     4    1   64 1    
     5    2    3 2    
     6    2    4 am   BACKBONE|DICT|INTERRES
     7    4    5 1    
     8    4   65 1    
     9    5    6 1    
    10    5   25 1    
    11    5   66 1    
    12    6    7 1    
    13    6   67 1    
    14    6   68 1    
    15    7    8 1    
    16    8    9 1    
    17    8   69 1    
    18    8   70 1    
    19    9   10 ar   
    20    9   14 ar   
    21   10   11 ar   
    22   10   71 1    
    23   11   12 ar   
    24   11   61 1    
    25   12   13 ar   
    26   12   72 1    
    27   13   14 ar   
    28   13   15 1    
    29   14   73 1    
    30   15   16 1    
    31   15   74 1    
    32   15   75 1    
    33   16   17 1    
    34   17   18 1    
    35   17   76 1    
    36   17   77 1    
    37   18   19 1    
    38   18   27 1    
    39   18   78 1    
    40   19   20 am   BACKBONE|DICT|INTERRES
    41   19   79 1    
    42   20   21 2    
    43   20   22 1    
    44   22   23 1    
    45   22   24 1    
    46   22   80 1    
    47   23   81 1    
    48   23   82 1    
    49   23   83 1    
    50   24   25 am   BACKBONE|DICT|INTERRES
    51   24   84 1    
    52   25   26 2    
    53   27   28 2    
    54   27   29 am   BACKBONE|DICT|INTERRES
    55   29   30 1    
    56   29   85 1    
    57   30   31 1    
    58   30   32 1    
    59   30   86 1    
    60   31   87 1    
    61   31   88 1    
    62   31   89 1    
    63   32   33 2    
    64   32   34 am   BACKBONE|DICT|INTERRES
    65   34   35 1    
    66   34   90 1    
    67   35   36 1    
    68   35   37 1    
    69   35   91 1    
    70   36   92 1    
    71   36   93 1    
    72   36   94 1    
    73   37   38 2    
    74   37   39 am   BACKBONE|DICT|INTERRES
    75   39   40 1    
    76   39   95 1    
    77   40   41 1    
    78   40   42 1    
    79   40   96 1    
    80   41   97 1    
    81   41   98 1    
    82   41   99 1    
    83   42   43 2    
    84   42   44 am   BACKBONE|DICT|INTERRES
    85   44   45 1    
    86   44  100 1    
    87   45   46 1    
    88   45   47 1    
    89   45  101 1    
    90   46  102 1    
    91   46  103 1    
    92   46  104 1    
    93   47   48 2    
    94   47   49 am   BACKBONE|DICT|INTERRES
    95   49   50 1    
    96   49  105 1    
    97   50   51 1    
    98   50   52 1    
    99   50  106 1    
   100   51  107 1    
   101   51  108 1    
   102   51  109 1    
   103   52   53 2    
   104   52   54 am   BACKBONE|DICT|INTERRES
   105   54   55 1    
   106   54  110 1    
   107   55   56 1    
   108   55   59 1    
   109   55  111 1    
   110   56   57 am   BACKBONE|DICT|INTERRES
   111   56   58 2    
   112   57  112 1    
   113   57  113 1    
   114   59   60 1    
   115   59  114 1    
   116   59  115 1    
   117   60   61 1    
   118   61  116 1    
   119   61  117 1    
@<TRIPOS>SUBSTRUCTURE
     1 UNK         1 GROUP             0       ****    0 ROOT    
