@<TRIPOS>MOLECULE
3R8
117   119    1
SMALL
USER_CHARGES


@<TRIPOS>ATOM
      1 CA         15.1576  -22.4631  -45.5722 C.3       0 UNK        -0.2013 
      2 C          15.9931  -23.7337  -45.5362 C.2       0 UNK         0.4866 
      3 O          16.5091  -24.1587  -46.5711 O.2       0 UNK        -0.5176 
      4 N          16.1311  -24.3485  -44.3545 N.am      1 UNK        -0.4884 
      5 CA         16.9191  -25.5627  -44.1283 C.3       1 UNK         0.0853 
      6 C6         16.4656  -26.3182  -42.8496 C.3       10 UNK        -0.0849 
      7 S7         14.8927  -27.2061  -43.1162 S.3       10 UNK        -0.2776 
      8 C8         15.2287  -28.8321  -42.3399 C.3       10 UNK         0.0316 
      9 C9         16.0795  -29.8192  -43.1493 C.ar      10 UNK        -0.0863 
     10 C10        16.0567  -31.1706  -42.7866 C.ar      10 UNK        -0.1009 
     11 C11        16.8225  -32.1167  -43.4767 C.ar      10 UNK        -0.0712 
     12 C12        17.6298  -31.7037  -44.5397 C.ar      10 UNK        -0.0894 
     13 C13        17.6905  -30.3548  -44.8969 C.ar      10 UNK        -0.0745 
     14 C14        16.9010  -29.4268  -44.2132 C.ar      10 UNK        -0.0972 
     15 C15        18.6319  -29.8835  -45.9979 C.3       10 UNK         0.0209 
     16 S16        20.3890  -30.2087  -45.6199 S.3       10 UNK        -0.2568 
     17 C17        20.6060  -29.5615  -43.9242 C.3       10 UNK        -0.0983 
     18 CA         21.4606  -28.2751  -43.8596 C.3       3 UNK         0.0876 
     19 N          20.8514  -27.1724  -44.6087 N.am      3 UNK        -0.4424 
     20 C          21.3893  -25.9613  -44.8123 C.2       2 UNK         0.4918 
     21 O          22.5212  -25.6448  -44.4454 O.2       2 UNK        -0.4875 
     22 CA         20.4838  -24.9058  -45.4786 C.3       2 UNK         0.0481 
     23 CB         20.7815  -24.8222  -46.9833 C.3       2 UNK        -0.1831 
     24 N          19.0443  -25.1334  -45.2799 N.am      2 UNK        -0.4498 
     25 C          18.4235  -25.2301  -44.0943 C.2       1 UNK         0.5027 
     26 O          18.9995  -25.0999  -43.0131 O.2       1 UNK        -0.4969 
     27 C          21.7623  -27.9286  -42.3837 C.2       3 UNK         0.5005 
     28 O          22.6080  -28.5929  -41.7891 O.2       3 UNK        -0.5279 
     29 N          21.1213  -26.8921  -41.8152 N.am      4 UNK        -0.4463 
     30 CA         21.3814  -26.3920  -40.4580 C.3       4 UNK         0.0283 
     31 CB         20.3480  -25.3107  -40.1050 C.3       4 UNK        -0.1875 
     32 C          22.8128  -25.8581  -40.2420 C.2       4 UNK         0.4949 
     33 O          23.2438  -25.7488  -39.0942 O.2       4 UNK        -0.5039 
     34 N          23.5303  -25.5513  -41.3331 N.am      5 UNK        -0.4663 
     35 CA         24.9558  -25.2155  -41.3225 C.3       5 UNK         0.0242 
     36 CB         25.2992  -24.4780  -42.6272 C.3       5 UNK        -0.1982 
     37 C          25.8726  -26.4433  -41.1406 C.2       5 UNK         0.5017 
     38 O          27.0533  -26.2586  -40.8416 O.2       5 UNK        -0.5012 
     39 N          25.3383  -27.6570  -41.3341 N.am      6 UNK        -0.4439 
     40 CA         26.0329  -28.9326  -41.1667 C.3       6 UNK         0.0297 
     41 CB         25.7650  -29.8009  -42.4100 C.3       6 UNK        -0.2006 
     42 C          25.5484  -29.6357  -39.8875 C.2       6 UNK         0.4892 
     43 O          24.6147  -29.1711  -39.2291 O.2       6 UNK        -0.5089 
     44 N          26.2052  -30.7531  -39.5515 N.am      7 UNK        -0.4243 
     45 CA         25.9010  -31.5704  -38.3727 C.3       7 UNK         0.0196 
     46 CB         27.1066  -32.4763  -38.0706 C.3       7 UNK        -0.2007 
     47 C          24.6195  -32.4156  -38.5068 C.2       7 UNK         0.5020 
     48 O          24.0804  -32.8437  -37.4855 O.2       7 UNK        -0.5147 
     49 N          24.1626  -32.6642  -39.7397 N.am      8 UNK        -0.4734 
     50 CA         22.9971  -33.4845  -40.0664 C.3       8 UNK         0.0238 
     51 CB         23.3637  -34.9795  -39.9524 C.3       8 UNK        -0.1912 
     52 C          22.5069  -33.1399  -41.4802 C.2       8 UNK         0.5038 
     53 O          23.1771  -32.3865  -42.1913 O.2       8 UNK        -0.5046 
     54 N          21.3575  -33.7175  -41.8549 N.am      9 UNK        -0.4200 
     55 CA         20.7311  -33.6450  -43.1851 C.3       9 UNK         0.0839 
     56 C          21.6950  -34.0627  -44.3309 C.2       9 UNK         0.5513 
     57 N          21.7620  -33.2919  -45.4067 N.am      9 UNK        -0.7519 
     58 O          22.3403  -35.1073  -44.2680 O.2       9 UNK        -0.4960 
     59 C59        19.4503  -34.5195  -43.2418 C.3       10 UNK        -0.0876 
     60 S60        18.1835  -34.0433  -42.0136 S.3       10 UNK        -0.2414 
     61 C61        16.7722  -33.5820  -43.0700 C.3       10 UNK         0.0169 
     62 H62        14.7631  -22.2058  -44.5894 H         1 UNK         0.0903 
     63 H63        15.7613  -21.6274  -45.9250 H         1 UNK         0.0903 
     64 H64        14.3162  -22.5873  -46.2534 H         1 UNK         0.0903 
     65 H65        15.6946  -23.9517  -43.5341 H         1 UNK         0.3096 
     66 H66        16.7642  -26.2243  -44.9830 H         1 UNK         0.1121 
     67 H67        17.2195  -27.0434  -42.5357 H         1 UNK         0.0849 
     68 H68        16.3524  -25.6313  -42.0088 H         1 UNK         0.0849 
     69 H69        15.6987  -28.6735  -41.3681 H         1 UNK         0.0865 
     70 H70        14.2622  -29.2950  -42.1344 H         1 UNK         0.0865 
     71 H71        15.4378  -31.4904  -41.9589 H         1 UNK         0.1346 
     72 H72        18.2332  -32.4235  -45.0740 H         1 UNK         0.1412 
     73 H73        16.9487  -28.3950  -44.5126 H         1 UNK         0.1426 
     74 H74        18.5072  -28.8168  -46.1887 H         1 UNK         0.0716 
     75 H75        18.3731  -30.3905  -46.9284 H         1 UNK         0.0716 
     76 H76        19.6423  -29.3979  -43.4422 H         1 UNK         0.0695 
     77 H77        21.0897  -30.3549  -43.3509 H         1 UNK         0.0695 
     78 H78        22.4247  -28.4841  -44.3287 H         1 UNK         0.0983 
     79 H79        19.9279  -27.3457  -44.9718 H         1 UNK         0.3095 
     80 H80        20.7253  -23.9412  -45.0279 H         1 UNK         0.0454 
     81 H81        21.8395  -24.6242  -47.1617 H         1 UNK         0.0851 
     82 H82        20.5329  -25.7515  -47.4973 H         1 UNK         0.0851 
     83 H83        20.2199  -24.0159  -47.4555 H         1 UNK         0.0851 
     84 H84        18.4690  -25.1652  -46.1134 H         1 UNK         0.2976 
     85 H85        20.4395  -26.3719  -42.3589 H         1 UNK         0.3116 
     86 H86        21.2455  -27.2295  -39.7706 H         1 UNK         0.0646 
     87 H87        20.4800  -24.9631  -39.0795 H         1 UNK         0.0847 
     88 H88        19.3294  -25.6897  -40.1890 H         1 UNK         0.0847 
     89 H89        20.4373  -24.4411  -40.7573 H         1 UNK         0.0847 
     90 H90        23.0952  -25.6472  -42.2431 H         1 UNK         0.3040 
     91 H91        25.1489  -24.5399  -40.4860 H         1 UNK         0.1015 
     92 H92        24.6944  -23.5789  -42.7467 H         1 UNK         0.0786 
     93 H93        25.1366  -25.1098  -43.5016 H         1 UNK         0.0786 
     94 H94        26.3451  -24.1682  -42.6384 H         1 UNK         0.0786 
     95 H95        24.3340  -27.7386  -41.4720 H         1 UNK         0.3172 
     96 H96        27.1094  -28.7728  -41.0787 H         1 UNK         0.0595 
     97 H97        26.3284  -30.7337  -42.3756 H         1 UNK         0.0839 
     98 H98        26.0591  -29.2843  -43.3238 H         1 UNK         0.0839 
     99 H99        24.7104  -30.0635  -42.5020 H         1 UNK         0.0839 
    100 H100       26.9645  -31.0690  -40.1381 H         1 UNK         0.2998 
    101 H101       25.7581  -30.9016  -37.5209 H         1 UNK         0.0822 
    102 H102       27.3084  -33.1670  -38.8904 H         1 UNK         0.0787 
    103 H103       28.0091  -31.8913  -37.8922 H         1 UNK         0.0787 
    104 H104       26.9303  -33.0759  -37.1763 H         1 UNK         0.0787 
    105 H105       24.6027  -32.2257  -40.5394 H         1 UNK         0.3055 
    106 H106       22.1915  -33.2483  -39.3671 H         1 UNK         0.1106 
    107 H107       24.1591  -35.2499  -40.6480 H         1 UNK         0.0828 
    108 H108       23.6998  -35.2343  -38.9473 H         1 UNK         0.0828 
    109 H109       22.5084  -35.6197  -40.1707 H         1 UNK         0.0828 
    110 H110       20.8823  -34.3144  -41.1948 H         1 UNK         0.2931 
    111 H111       20.4373  -32.6062  -43.3412 H         1 UNK         0.0412 
    112 H112       22.3703  -33.5610  -46.1639 H         1 UNK         0.3472 
    113 H113       21.2500  -32.4225  -45.4605 H         1 UNK         0.3472 
    114 H114       19.7019  -35.5679  -43.0689 H         1 UNK         0.0970 
    115 H115       19.0156  -34.4878  -44.2419 H         1 UNK         0.0970 
    116 H116       15.8532  -33.7809  -42.5165 H         1 UNK         0.0612 
    117 H117       16.7300  -34.2208  -43.9531 H         1 UNK         0.0612 
@<TRIPOS>BOND
     1    1    2 1    
     2    1   62 1    
     3    1   63 1    
     4    1   64 1    
     5    2    3 2    
     6    2    4 am   BACKBONE|DICT|INTERRES
     7    4    5 1    
     8    4   65 1    
     9    5    6 1    
    10    5   25 1    
    11    5   66 1    
    12    6    7 1    
    13    6   67 1    
    14    6   68 1    
    15    7    8 1    
    16    8    9 1    
    17    8   69 1    
    18    8   70 1    
    19    9   10 ar   
    20    9   14 ar   
    21   10   11 ar   
    22   10   71 1    
    23   11   12 ar   
    24   11   61 1    
    25   12   13 ar   
    26   12   72 1    
    27   13   14 ar   
    28   13   15 1    
    29   14   73 1    
    30   15   16 1    
    31   15   74 1    
    32   15   75 1    
    33   16   17 1    
    34   17   18 1    
    35   17   76 1    
    36   17   77 1    
    37   18   19 1    
    38   18   27 1    
    39   18   78 1    
    40   19   20 am   BACKBONE|DICT|INTERRES
    41   19   79 1    
    42   20   21 2    
    43   20   22 1    
    44   22   23 1    
    45   22   24 1    
    46   22   80 1    
    47   23   81 1    
    48   23   82 1    
    49   23   83 1    
    50   24   25 am   BACKBONE|DICT|INTERRES
    51   24   84 1    
    52   25   26 2    
    53   27   28 2    
    54   27   29 am   BACKBONE|DICT|INTERRES
    55   29   30 1    
    56   29   85 1    
    57   30   31 1    
    58   30   32 1    
    59   30   86 1    
    60   31   87 1    
    61   31   88 1    
    62   31   89 1    
    63   32   33 2    
    64   32   34 am   BACKBONE|DICT|INTERRES
    65   34   35 1    
    66   34   90 1    
    67   35   36 1    
    68   35   37 1    
    69   35   91 1    
    70   36   92 1    
    71   36   93 1    
    72   36   94 1    
    73   37   38 2    
    74   37   39 am   BACKBONE|DICT|INTERRES
    75   39   40 1    
    76   39   95 1    
    77   40   41 1    
    78   40   42 1    
    79   40   96 1    
    80   41   97 1    
    81   41   98 1    
    82   41   99 1    
    83   42   43 2    
    84   42   44 am   BACKBONE|DICT|INTERRES
    85   44   45 1    
    86   44  100 1    
    87   45   46 1    
    88   45   47 1    
    89   45  101 1    
    90   46  102 1    
    91   46  103 1    
    92   46  104 1    
    93   47   48 2    
    94   47   49 am   BACKBONE|DICT|INTERRES
    95   49   50 1    
    96   49  105 1    
    97   50   51 1    
    98   50   52 1    
    99   50  106 1    
   100   51  107 1    
   101   51  108 1    
   102   51  109 1    
   103   52   53 2    
   104   52   54 am   BACKBONE|DICT|INTERRES
   105   54   55 1    
   106   54  110 1    
   107   55   56 1    
   108   55   59 1    
   109   55  111 1    
   110   56   57 am   BACKBONE|DICT|INTERRES
   111   56   58 2    
   112   57  112 1    
   113   57  113 1    
   114   59   60 1    
   115   59  114 1    
   116   59  115 1    
   117   60   61 1    
   118   61  116 1    
   119   61  117 1    
@<TRIPOS>SUBSTRUCTURE
     1 UNK         1 GROUP             0       ****    0 ROOT    
