@<TRIPOS>MOLECULE
3R8
117   119    1
SMALL
USER_CHARGES


@<TRIPOS>ATOM
      1 CA         16.0938  -26.1331  -41.6849 C.3       0 UNK        -0.2013 
      2 C          16.6314  -27.4336  -42.2762 C.2       0 UNK         0.4866 
      3 O          16.7231  -28.4249  -41.5573 O.2       0 UNK        -0.5176 
      4 N          16.9814  -27.4936  -43.5681 N.am      1 UNK        -0.4884 
      5 CA         16.9298  -26.4107  -44.5599 C.3       1 UNK         0.0853 
      6 C6         16.5461  -26.9314  -45.9760 C.3       10 UNK        -0.0849 
      7 S7         15.0597  -27.9980  -45.9600 S.3       10 UNK        -0.2776 
      8 C8         15.6474  -29.5388  -46.7466 C.3       10 UNK         0.0316 
      9 C9         16.9167  -30.0966  -46.1117 C.ar      10 UNK        -0.0863 
     10 C10        16.9094  -30.5649  -44.7940 C.ar      10 UNK        -0.1009 
     11 C11        18.0769  -31.0602  -44.2017 C.ar      10 UNK        -0.0712 
     12 C12        19.2565  -31.0960  -44.9564 C.ar      10 UNK        -0.0894 
     13 C13        19.2769  -30.6369  -46.2776 C.ar      10 UNK        -0.0745 
     14 C14        18.1031  -30.1423  -46.8496 C.ar      10 UNK        -0.0972 
     15 C15        20.5639  -30.6767  -47.0931 C.3       10 UNK         0.0209 
     16 S16        21.3794  -29.0478  -47.1814 S.3       10 UNK        -0.2568 
     17 C17        21.9485  -28.8628  -45.4595 C.3       10 UNK        -0.0983 
     18 CA         22.2148  -27.4071  -45.0006 C.3       3 UNK         0.0876 
     19 N          21.1514  -26.4911  -45.4155 N.am      3 UNK        -0.4424 
     20 C          21.2456  -25.1564  -45.4630 C.2       2 UNK         0.4918 
     21 O          22.2726  -24.5337  -45.1942 O.2       2 UNK        -0.4875 
     22 CA         19.9741  -24.3789  -45.8648 C.3       2 UNK         0.0481 
     23 CB         20.0824  -23.8997  -47.3213 C.3       2 UNK        -0.1831 
     24 N          18.7173  -25.1244  -45.6970 N.am      2 UNK        -0.4498 
     25 C          18.2602  -25.6202  -44.5363 C.2       1 UNK         0.5027 
     26 O          18.8751  -25.4889  -43.4758 O.2       1 UNK        -0.4969 
     27 C          22.4466  -27.4188  -43.4730 C.2       3 UNK         0.5005 
     28 O          23.4324  -28.0167  -43.0403 O.2       3 UNK        -0.5279 
     29 N          21.5277  -26.8478  -42.6752 N.am      4 UNK        -0.4463 
     30 CA         21.5269  -26.9173  -41.2094 C.3       4 UNK         0.0283 
     31 CB         20.3573  -26.0927  -40.6502 C.3       4 UNK        -0.1875 
     32 C          22.8564  -26.4766  -40.5716 C.2       4 UNK         0.4949 
     33 O          23.3962  -25.4336  -40.9432 O.2       4 UNK        -0.5039 
     34 N          23.3501  -27.3092  -39.6459 N.am      5 UNK        -0.4663 
     35 CA         24.6322  -27.2456  -38.9303 C.3       5 UNK         0.0242 
     36 CB         24.9138  -25.8564  -38.3207 C.3       5 UNK        -0.1982 
     37 C          25.8327  -27.7793  -39.7339 C.2       5 UNK         0.5017 
     38 O          26.8396  -28.1212  -39.1118 O.2       5 UNK        -0.5012 
     39 N          25.7156  -27.8955  -41.0652 N.am      6 UNK        -0.4439 
     40 CA         26.6420  -28.6685  -41.8974 C.3       6 UNK         0.0297 
     41 CB         26.7858  -28.0297  -43.2895 C.3       6 UNK        -0.2006 
     42 C          26.1471  -30.1203  -41.9833 C.2       6 UNK         0.4892 
     43 O          26.9166  -31.0425  -41.7108 O.2       6 UNK        -0.5089 
     44 N          24.8571  -30.2892  -42.3031 N.am      7 UNK        -0.4243 
     45 CA         24.1190  -31.5400  -42.1563 C.3       7 UNK         0.0196 
     46 CB         22.9163  -31.5414  -43.1133 C.3       7 UNK        -0.2007 
     47 C          23.6395  -31.6865  -40.7062 C.2       7 UNK         0.5020 
     48 O          23.2272  -30.6981  -40.0909 O.2       7 UNK        -0.5147 
     49 N          23.6561  -32.9277  -40.2037 N.am      8 UNK        -0.4734 
     50 CA         23.2626  -33.2862  -38.8352 C.3       8 UNK         0.0238 
     51 CB         23.6196  -34.7589  -38.5752 C.3       8 UNK        -0.1912 
     52 C          21.7797  -33.0275  -38.5131 C.2       8 UNK         0.5038 
     53 O          21.4471  -32.8402  -37.3420 O.2       8 UNK        -0.5046 
     54 N          20.9265  -33.0098  -39.5455 N.am      9 UNK        -0.4200 
     55 CA         19.5146  -32.6154  -39.4539 C.3       9 UNK         0.0839 
     56 C          19.2754  -31.0866  -39.2784 C.2       9 UNK         0.5513 
     57 N          20.2786  -30.2263  -39.4182 N.am      9 UNK        -0.7519 
     58 O          18.1563  -30.6778  -38.9826 O.2       9 UNK        -0.4960 
     59 C59        18.6642  -33.2266  -40.5995 C.3       10 UNK        -0.0876 
     60 S60        19.2296  -32.8050  -42.2867 S.3       10 UNK        -0.2414 
     61 C61        18.0335  -31.5001  -42.7374 C.3       10 UNK         0.0169 
     62 H62        15.9549  -26.2339  -40.6086 H         1 UNK         0.0903 
     63 H63        16.7828  -25.3059  -41.8491 H         1 UNK         0.0903 
     64 H64        15.1276  -25.8824  -42.1217 H         1 UNK         0.0903 
     65 H65        17.3246  -28.3743  -43.9254 H         1 UNK         0.3096 
     66 H66        16.1544  -25.6988  -44.2731 H         1 UNK         0.1121 
     67 H67        16.3276  -26.0947  -46.6420 H         1 UNK         0.0849 
     68 H68        17.3791  -27.4679  -46.4311 H         1 UNK         0.0849 
     69 H69        14.8585  -30.2896  -46.6832 H         1 UNK         0.0865 
     70 H70        15.7988  -29.3503  -47.8107 H         1 UNK         0.0865 
     71 H71        15.9924  -30.5213  -44.2212 H         1 UNK         0.1346 
     72 H72        20.1697  -31.4681  -44.5145 H         1 UNK         0.1412 
     73 H73        18.1204  -29.7834  -47.8699 H         1 UNK         0.1426 
     74 H74        20.3400  -31.0126  -48.1066 H         1 UNK         0.0716 
     75 H75        21.2605  -31.4074  -46.6786 H         1 UNK         0.0716 
     76 H76        22.8565  -29.4578  -45.3494 H         1 UNK         0.0695 
     77 H77        21.2071  -29.3176  -44.8043 H         1 UNK         0.0695 
     78 H78        23.1448  -27.0697  -45.4633 H         1 UNK         0.0983 
     79 H79        20.2817  -26.9227  -45.6885 H         1 UNK         0.3095 
     80 H80        19.9196  -23.4990  -45.2205 H         1 UNK         0.0454 
     81 H81        20.1156  -24.7363  -48.0204 H         1 UNK         0.0851 
     82 H82        20.9898  -23.3133  -47.4735 H         1 UNK         0.0851 
     83 H83        19.2409  -23.2635  -47.5956 H         1 UNK         0.0851 
     84 H84        18.1676  -25.2611  -46.5329 H         1 UNK         0.2976 
     85 H85        20.7420  -26.3675  -43.1002 H         1 UNK         0.3116 
     86 H86        21.3528  -27.9643  -40.9534 H         1 UNK         0.0646 
     87 H87        19.3982  -26.4888  -40.9840 H         1 UNK         0.0847 
     88 H88        20.4170  -25.0494  -40.9625 H         1 UNK         0.0847 
     89 H89        20.3496  -26.1083  -39.5596 H         1 UNK         0.0847 
     90 H90        22.8345  -28.1639  -39.4761 H         1 UNK         0.3040 
     91 H91        24.5158  -27.9383  -38.0949 H         1 UNK         0.1015 
     92 H92        25.1558  -25.1151  -39.0824 H         1 UNK         0.0786 
     93 H93        25.7646  -25.9003  -37.6395 H         1 UNK         0.0786 
     94 H94        24.0605  -25.4903  -37.7498 H         1 UNK         0.0786 
     95 H95        24.8447  -27.6137  -41.5024 H         1 UNK         0.3172 
     96 H96        27.6337  -28.6751  -41.4400 H         1 UNK         0.0595 
     97 H97        25.8526  -28.0344  -43.8513 H         1 UNK         0.0839 
     98 H98        27.5215  -28.5705  -43.8860 H         1 UNK         0.0839 
     99 H99        27.1255  -26.9966  -43.2162 H         1 UNK         0.0839 
    100 H100       24.2983  -29.4617  -42.5087 H         1 UNK         0.2998 
    101 H101       24.7728  -32.3768  -42.4119 H         1 UNK         0.0822 
    102 H102       23.2390  -31.4638  -44.1510 H         1 UNK         0.0787 
    103 H103       22.3448  -32.4659  -43.0236 H         1 UNK         0.0787 
    104 H104       22.2345  -30.7153  -42.9056 H         1 UNK         0.0787 
    105 H105       23.9944  -33.6816  -40.7855 H         1 UNK         0.3055 
    106 H106       23.8468  -32.6655  -38.1518 H         1 UNK         0.1106 
    107 H107       23.0830  -35.4300  -39.2472 H         1 UNK         0.0828 
    108 H108       23.3644  -35.0484  -37.5546 H         1 UNK         0.0828 
    109 H109       24.6875  -34.9380  -38.7012 H         1 UNK         0.0828 
    110 H110       21.2858  -33.1609  -40.4760 H         1 UNK         0.2931 
    111 H111       19.1305  -33.0604  -38.5336 H         1 UNK         0.0412 
    112 H112       20.0901  -29.2475  -39.2816 H         1 UNK         0.3472 
    113 H113       21.2147  -30.5419  -39.6426 H         1 UNK         0.3472 
    114 H114       17.6125  -32.9597  -40.4801 H         1 UNK         0.0970 
    115 H115       18.6888  -34.3140  -40.5151 H         1 UNK         0.0970 
    116 H116       17.0298  -31.8541  -42.4971 H         1 UNK         0.0612 
    117 H117       18.2172  -30.6280  -42.1093 H         1 UNK         0.0612 
@<TRIPOS>BOND
     1    1    2 1    
     2    1   62 1    
     3    1   63 1    
     4    1   64 1    
     5    2    3 2    
     6    2    4 am   BACKBONE|DICT|INTERRES
     7    4    5 1    
     8    4   65 1    
     9    5    6 1    
    10    5   25 1    
    11    5   66 1    
    12    6    7 1    
    13    6   67 1    
    14    6   68 1    
    15    7    8 1    
    16    8    9 1    
    17    8   69 1    
    18    8   70 1    
    19    9   10 ar   
    20    9   14 ar   
    21   10   11 ar   
    22   10   71 1    
    23   11   12 ar   
    24   11   61 1    
    25   12   13 ar   
    26   12   72 1    
    27   13   14 ar   
    28   13   15 1    
    29   14   73 1    
    30   15   16 1    
    31   15   74 1    
    32   15   75 1    
    33   16   17 1    
    34   17   18 1    
    35   17   76 1    
    36   17   77 1    
    37   18   19 1    
    38   18   27 1    
    39   18   78 1    
    40   19   20 am   BACKBONE|DICT|INTERRES
    41   19   79 1    
    42   20   21 2    
    43   20   22 1    
    44   22   23 1    
    45   22   24 1    
    46   22   80 1    
    47   23   81 1    
    48   23   82 1    
    49   23   83 1    
    50   24   25 am   BACKBONE|DICT|INTERRES
    51   24   84 1    
    52   25   26 2    
    53   27   28 2    
    54   27   29 am   BACKBONE|DICT|INTERRES
    55   29   30 1    
    56   29   85 1    
    57   30   31 1    
    58   30   32 1    
    59   30   86 1    
    60   31   87 1    
    61   31   88 1    
    62   31   89 1    
    63   32   33 2    
    64   32   34 am   BACKBONE|DICT|INTERRES
    65   34   35 1    
    66   34   90 1    
    67   35   36 1    
    68   35   37 1    
    69   35   91 1    
    70   36   92 1    
    71   36   93 1    
    72   36   94 1    
    73   37   38 2    
    74   37   39 am   BACKBONE|DICT|INTERRES
    75   39   40 1    
    76   39   95 1    
    77   40   41 1    
    78   40   42 1    
    79   40   96 1    
    80   41   97 1    
    81   41   98 1    
    82   41   99 1    
    83   42   43 2    
    84   42   44 am   BACKBONE|DICT|INTERRES
    85   44   45 1    
    86   44  100 1    
    87   45   46 1    
    88   45   47 1    
    89   45  101 1    
    90   46  102 1    
    91   46  103 1    
    92   46  104 1    
    93   47   48 2    
    94   47   49 am   BACKBONE|DICT|INTERRES
    95   49   50 1    
    96   49  105 1    
    97   50   51 1    
    98   50   52 1    
    99   50  106 1    
   100   51  107 1    
   101   51  108 1    
   102   51  109 1    
   103   52   53 2    
   104   52   54 am   BACKBONE|DICT|INTERRES
   105   54   55 1    
   106   54  110 1    
   107   55   56 1    
   108   55   59 1    
   109   55  111 1    
   110   56   57 am   BACKBONE|DICT|INTERRES
   111   56   58 2    
   112   57  112 1    
   113   57  113 1    
   114   59   60 1    
   115   59  114 1    
   116   59  115 1    
   117   60   61 1    
   118   61  116 1    
   119   61  117 1    
@<TRIPOS>SUBSTRUCTURE
     1 UNK         1 GROUP             0       ****    0 ROOT    
