@<TRIPOS>MOLECULE
3R8
117   119    1
SMALL
USER_CHARGES


@<TRIPOS>ATOM
      1 CA         16.1480  -26.3671  -48.2623 C.3       0 UNK        -0.2013 
      2 C          17.2576  -26.6619  -47.2658 C.2       0 UNK         0.4866 
      3 O          17.0783  -26.4429  -46.0681 O.2       0 UNK        -0.5176 
      4 N          18.4150  -27.1377  -47.7484 N.am      1 UNK        -0.4884 
      5 CA         19.6043  -27.5808  -46.9915 C.3       1 UNK         0.0853 
      6 C6         19.2978  -28.7275  -45.9833 C.3       10 UNK        -0.0849 
      7 S7         18.5434  -30.2157  -46.7284 S.3       10 UNK        -0.2776 
      8 C8         16.8039  -30.1393  -46.1613 C.3       10 UNK         0.0316 
      9 C9         16.6529  -30.0230  -44.6469 C.ar      10 UNK        -0.0863 
     10 C10        17.2424  -30.9665  -43.8001 C.ar      10 UNK        -0.1009 
     11 C11        17.1349  -30.8407  -42.4121 C.ar      10 UNK        -0.0712 
     12 C12        16.4060  -29.7792  -41.8696 C.ar      10 UNK        -0.0894 
     13 C13        15.8046  -28.8320  -42.7033 C.ar      10 UNK        -0.0745 
     14 C14        15.9260  -28.9633  -44.0911 C.ar      10 UNK        -0.0972 
     15 C15        15.0587  -27.6481  -42.1004 C.3       10 UNK         0.0209 
     16 S16        15.9704  -26.0785  -42.2946 S.3       10 UNK        -0.2568 
     17 C17        17.5325  -26.4095  -41.4053 C.3       10 UNK        -0.0983 
     18 CA         18.6331  -26.9450  -42.3617 C.3       3 UNK         0.0876 
     19 N          18.9126  -26.0503  -43.4876 N.am      3 UNK        -0.4424 
     20 C          19.7109  -24.9720  -43.5219 C.2       2 UNK         0.4918 
     21 O          20.2429  -24.4751  -42.5287 O.2       2 UNK        -0.4875 
     22 CA         19.9500  -24.3497  -44.9183 C.3       2 UNK         0.0481 
     23 CB         21.3325  -23.6776  -45.0531 C.3       2 UNK        -0.1831 
     24 N          19.6944  -25.3179  -45.9958 N.am      2 UNK        -0.4498 
     25 C          20.3674  -26.4511  -46.2542 C.2       1 UNK         0.5027 
     26 O          21.5225  -26.6597  -45.8841 O.2       1 UNK        -0.4969 
     27 C          19.9250  -27.4444  -41.6787 C.2       3 UNK         0.5005 
     28 O          20.8426  -27.8739  -42.3821 O.2       3 UNK        -0.5279 
     29 N          19.9933  -27.3990  -40.3408 N.am      4 UNK        -0.4463 
     30 CA         21.1107  -27.8862  -39.5232 C.3       4 UNK         0.0283 
     31 CB         20.6029  -28.1503  -38.0939 C.3       4 UNK        -0.1875 
     32 C          22.3473  -26.9608  -39.5552 C.2       4 UNK         0.4949 
     33 O          22.8963  -26.6221  -38.5060 O.2       4 UNK        -0.5039 
     34 N          22.7738  -26.5747  -40.7628 N.am      5 UNK        -0.4663 
     35 CA         23.9788  -25.7837  -41.0308 C.3       5 UNK         0.0242 
     36 CB         23.8141  -25.0804  -42.3880 C.3       5 UNK        -0.1982 
     37 C          25.2662  -26.6292  -41.0140 C.2       5 UNK         0.5017 
     38 O          26.3601  -26.0634  -41.0018 O.2       5 UNK        -0.5012 
     39 N          25.1168  -27.9569  -41.0216 N.am      6 UNK        -0.4439 
     40 CA         26.1738  -28.9575  -40.9673 C.3       6 UNK         0.0297 
     41 CB         26.6426  -29.2852  -42.3968 C.3       6 UNK        -0.2006 
     42 C          25.6197  -30.1994  -40.2581 C.2       6 UNK         0.4892 
     43 O          24.4071  -30.2881  -40.0333 O.2       6 UNK        -0.5089 
     44 N          26.5159  -31.1400  -39.9293 N.am      7 UNK        -0.4243 
     45 CA         26.1933  -32.4330  -39.3190 C.3       7 UNK         0.0196 
     46 CB         27.4904  -33.2163  -39.0610 C.3       7 UNK        -0.2007 
     47 C          25.2324  -33.2477  -40.2003 C.2       7 UNK         0.5020 
     48 O          25.4779  -33.3824  -41.4014 O.2       7 UNK        -0.5147 
     49 N          24.1361  -33.7254  -39.5939 N.am      8 UNK        -0.4734 
     50 CA         23.0067  -34.4186  -40.2349 C.3       8 UNK         0.0238 
     51 CB         23.4389  -35.8170  -40.7268 C.3       8 UNK        -0.1912 
     52 C          22.3151  -33.5900  -41.3416 C.2       8 UNK         0.5038 
     53 O          21.7294  -34.1704  -42.2575 O.2       8 UNK        -0.5046 
     54 N          22.4083  -32.2556  -41.2398 N.am      9 UNK        -0.4200 
     55 CA         21.9464  -31.2665  -42.2270 C.3       9 UNK         0.0839 
     56 C          22.7730  -31.2607  -43.5494 C.2       9 UNK         0.5513 
     57 N          23.9641  -31.8497  -43.5925 N.am      9 UNK        -0.7519 
     58 O          22.3438  -30.6971  -44.5518 O.2       9 UNK        -0.4960 
     59 C59        20.4101  -31.2986  -42.4725 C.3       10 UNK        -0.0876 
     60 S60        19.4354  -31.1938  -40.9306 S.3       10 UNK        -0.2414 
     61 C61        17.8282  -31.8336  -41.4932 C.3       10 UNK         0.0169 
     62 H62        15.8798  -25.3118  -48.2236 H         1 UNK         0.0903 
     63 H63        16.4418  -26.6069  -49.2840 H         1 UNK         0.0903 
     64 H64        15.2623  -26.9526  -48.0177 H         1 UNK         0.0903 
     65 H65        18.4975  -27.2589  -48.7491 H         1 UNK         0.3096 
     66 H66        20.3020  -27.9721  -47.7340 H         1 UNK         0.1121 
     67 H67        18.6652  -28.3666  -45.1742 H         1 UNK         0.0849 
     68 H68        20.2196  -29.0573  -45.4988 H         1 UNK         0.0849 
     69 H69        16.3043  -29.3113  -46.6638 H         1 UNK         0.0865 
     70 H70        16.2911  -31.0429  -46.4931 H         1 UNK         0.0865 
     71 H71        17.8097  -31.7839  -44.2240 H         1 UNK         0.1346 
     72 H72        16.3318  -29.6780  -40.7953 H         1 UNK         0.1412 
     73 H73        15.4758  -28.2194  -44.7349 H         1 UNK         0.1426 
     74 H74        14.0866  -27.5524  -42.5861 H         1 UNK         0.0716 
     75 H75        14.8552  -27.8146  -41.0415 H         1 UNK         0.0716 
     76 H76        17.3222  -27.1192  -40.6034 H         1 UNK         0.0695 
     77 H77        17.8584  -25.4827  -40.9298 H         1 UNK         0.0695 
     78 H78        18.2469  -27.8480  -42.8289 H         1 UNK         0.0983 
     79 H79        18.4612  -26.3156  -44.3542 H         1 UNK         0.3095 
     80 H80        19.1952  -23.5708  -45.0331 H         1 UNK         0.0454 
     81 H81        22.1470  -24.3722  -44.8494 H         1 UNK         0.0851 
     82 H82        21.4329  -22.8518  -44.3480 H         1 UNK         0.0851 
     83 H83        21.4801  -23.2697  -46.0527 H         1 UNK         0.0851 
     84 H84        18.7451  -25.3005  -46.3519 H         1 UNK         0.2976 
     85 H85        19.2209  -26.9893  -39.8364 H         1 UNK         0.3116 
     86 H86        21.4338  -28.8462  -39.9311 H         1 UNK         0.0646 
     87 H87        19.7732  -28.8575  -38.0924 H         1 UNK         0.0847 
     88 H88        21.3895  -28.5809  -37.4728 H         1 UNK         0.0847 
     89 H89        20.2677  -27.2335  -37.6077 H         1 UNK         0.0847 
     90 H90        22.2446  -26.9053  -41.5675 H         1 UNK         0.3040 
     91 H91        24.0815  -25.0204  -40.2564 H         1 UNK         0.1015 
     92 H92        23.6603  -25.7954  -43.1977 H         1 UNK         0.0786 
     93 H93        24.6963  -24.4884  -42.6356 H         1 UNK         0.0786 
     94 H94        22.9637  -24.3989  -42.3762 H         1 UNK         0.0786 
     95 H95        24.1828  -28.3406  -40.9492 H         1 UNK         0.3172 
     96 H96        27.0114  -28.5752  -40.3800 H         1 UNK         0.0595 
     97 H97        25.8269  -29.6762  -43.0062 H         1 UNK         0.0839 
     98 H98        27.4360  -30.0332  -42.3949 H         1 UNK         0.0839 
     99 H99        27.0367  -28.4003  -42.8968 H         1 UNK         0.0839 
    100 H100       27.4837  -30.9904  -40.1749 H         1 UNK         0.2998 
    101 H101       25.7144  -32.2315  -38.3584 H         1 UNK         0.0822 
    102 H102       27.2784  -34.1761  -38.5877 H         1 UNK         0.0787 
    103 H103       28.0280  -33.4223  -39.9877 H         1 UNK         0.0787 
    104 H104       28.1606  -32.6698  -38.3971 H         1 UNK         0.0787 
    105 H105       24.0247  -33.5439  -38.6050 H         1 UNK         0.3055 
    106 H106       22.2515  -34.5610  -39.4600 H         1 UNK         0.1106 
    107 H107       22.5806  -36.3946  -41.0724 H         1 UNK         0.0828 
    108 H108       24.1425  -35.7540  -41.5576 H         1 UNK         0.0828 
    109 H109       23.9115  -36.3904  -39.9295 H         1 UNK         0.0828 
    110 H110       22.9545  -31.8669  -40.4810 H         1 UNK         0.2931 
    111 H111       22.1681  -30.3008  -41.7728 H         1 UNK         0.0412 
    112 H112       24.4848  -31.8352  -44.4545 H         1 UNK         0.3472 
    113 H113       24.3419  -32.3313  -42.7845 H         1 UNK         0.3472 
    114 H114       20.1321  -32.2031  -43.0151 H         1 UNK         0.0970 
    115 H115       20.1135  -30.4624  -43.1085 H         1 UNK         0.0970 
    116 H116       17.2015  -32.0277  -40.6216 H         1 UNK         0.0612 
    117 H117       17.9665  -32.7946  -41.9911 H         1 UNK         0.0612 
@<TRIPOS>BOND
     1    1    2 1    
     2    1   62 1    
     3    1   63 1    
     4    1   64 1    
     5    2    3 2    
     6    2    4 am   BACKBONE|DICT|INTERRES
     7    4    5 1    
     8    4   65 1    
     9    5    6 1    
    10    5   25 1    
    11    5   66 1    
    12    6    7 1    
    13    6   67 1    
    14    6   68 1    
    15    7    8 1    
    16    8    9 1    
    17    8   69 1    
    18    8   70 1    
    19    9   10 ar   
    20    9   14 ar   
    21   10   11 ar   
    22   10   71 1    
    23   11   12 ar   
    24   11   61 1    
    25   12   13 ar   
    26   12   72 1    
    27   13   14 ar   
    28   13   15 1    
    29   14   73 1    
    30   15   16 1    
    31   15   74 1    
    32   15   75 1    
    33   16   17 1    
    34   17   18 1    
    35   17   76 1    
    36   17   77 1    
    37   18   19 1    
    38   18   27 1    
    39   18   78 1    
    40   19   20 am   BACKBONE|DICT|INTERRES
    41   19   79 1    
    42   20   21 2    
    43   20   22 1    
    44   22   23 1    
    45   22   24 1    
    46   22   80 1    
    47   23   81 1    
    48   23   82 1    
    49   23   83 1    
    50   24   25 am   BACKBONE|DICT|INTERRES
    51   24   84 1    
    52   25   26 2    
    53   27   28 2    
    54   27   29 am   BACKBONE|DICT|INTERRES
    55   29   30 1    
    56   29   85 1    
    57   30   31 1    
    58   30   32 1    
    59   30   86 1    
    60   31   87 1    
    61   31   88 1    
    62   31   89 1    
    63   32   33 2    
    64   32   34 am   BACKBONE|DICT|INTERRES
    65   34   35 1    
    66   34   90 1    
    67   35   36 1    
    68   35   37 1    
    69   35   91 1    
    70   36   92 1    
    71   36   93 1    
    72   36   94 1    
    73   37   38 2    
    74   37   39 am   BACKBONE|DICT|INTERRES
    75   39   40 1    
    76   39   95 1    
    77   40   41 1    
    78   40   42 1    
    79   40   96 1    
    80   41   97 1    
    81   41   98 1    
    82   41   99 1    
    83   42   43 2    
    84   42   44 am   BACKBONE|DICT|INTERRES
    85   44   45 1    
    86   44  100 1    
    87   45   46 1    
    88   45   47 1    
    89   45  101 1    
    90   46  102 1    
    91   46  103 1    
    92   46  104 1    
    93   47   48 2    
    94   47   49 am   BACKBONE|DICT|INTERRES
    95   49   50 1    
    96   49  105 1    
    97   50   51 1    
    98   50   52 1    
    99   50  106 1    
   100   51  107 1    
   101   51  108 1    
   102   51  109 1    
   103   52   53 2    
   104   52   54 am   BACKBONE|DICT|INTERRES
   105   54   55 1    
   106   54  110 1    
   107   55   56 1    
   108   55   59 1    
   109   55  111 1    
   110   56   57 am   BACKBONE|DICT|INTERRES
   111   56   58 2    
   112   57  112 1    
   113   57  113 1    
   114   59   60 1    
   115   59  114 1    
   116   59  115 1    
   117   60   61 1    
   118   61  116 1    
   119   61  117 1    
@<TRIPOS>SUBSTRUCTURE
     1 UNK         1 GROUP             0       ****    0 ROOT    
