@<TRIPOS>MOLECULE
3R8
117   119    1
SMALL
USER_CHARGES


@<TRIPOS>ATOM
      1 CA         13.5393  -24.2767  -46.1152 C.3       0 UNK        -0.2013 
      2 C          14.8955  -24.9399  -45.9302 C.2       0 UNK         0.4866 
      3 O          15.4660  -25.4524  -46.8946 O.2       0 UNK        -0.5176 
      4 N          15.4231  -24.9351  -44.6995 N.am      1 UNK        -0.4884 
      5 CA         16.7187  -25.5179  -44.3339 C.3       1 UNK         0.0853 
      6 C6         16.7839  -25.8992  -42.8303 C.3       10 UNK        -0.0849 
      7 S7         15.4704  -27.0524  -42.2910 S.3       10 UNK        -0.2776 
      8 C8         15.8711  -28.5998  -43.1709 C.3       10 UNK         0.0316 
      9 C9         17.2367  -29.1550  -42.7907 C.ar      10 UNK        -0.0863 
     10 C10        17.3833  -29.9725  -41.6680 C.ar      10 UNK        -0.1009 
     11 C11        18.6369  -30.4874  -41.3256 C.ar      10 UNK        -0.0712 
     12 C12        19.7487  -30.1734  -42.1154 C.ar      10 UNK        -0.0894 
     13 C13        19.6206  -29.3631  -43.2477 C.ar      10 UNK        -0.0745 
     14 C14        18.3541  -28.8613  -43.5749 C.ar      10 UNK        -0.0972 
     15 C15        20.8725  -29.0200  -44.0606 C.3       10 UNK         0.0209 
     16 S16        20.5344  -28.4334  -45.7598 S.3       10 UNK        -0.2568 
     17 C17        22.0693  -27.5471  -46.2032 C.3       10 UNK        -0.0983 
     18 CA         22.0541  -26.0149  -45.9249 C.3       3 UNK         0.0876 
     19 N          20.7716  -25.3915  -46.2611 N.am      3 UNK        -0.4424 
     20 C          20.5724  -24.0782  -46.4300 C.2       2 UNK         0.4918 
     21 O          21.4763  -23.2417  -46.4123 O.2       2 UNK        -0.4875 
     22 CA         19.1248  -23.6131  -46.6750 C.3       2 UNK         0.0481 
     23 CB         18.8474  -23.5000  -48.1824 C.3       2 UNK        -0.1831 
     24 N          18.1114  -24.4786  -46.0636 N.am      2 UNK        -0.4498 
     25 C          17.8686  -24.5734  -44.7487 C.2       1 UNK         0.5027 
     26 O          18.4746  -23.9231  -43.8955 O.2       1 UNK        -0.4969 
     27 C          22.4690  -25.6953  -44.4742 C.2       3 UNK         0.5005 
     28 O          21.6168  -25.6270  -43.5859 O.2       3 UNK        -0.5279 
     29 N          23.7829  -25.5503  -44.2562 N.am      4 UNK        -0.4463 
     30 CA         24.3877  -25.3588  -42.9334 C.3       4 UNK         0.0283 
     31 CB         25.7009  -24.5747  -43.0929 C.3       4 UNK        -0.1875 
     32 C          24.6462  -26.6862  -42.1959 C.2       4 UNK         0.4949 
     33 O          24.9385  -26.6627  -41.0002 O.2       4 UNK        -0.5039 
     34 N          24.5470  -27.8191  -42.9066 N.am      5 UNK        -0.4663 
     35 CA         24.8451  -29.1804  -42.4457 C.3       5 UNK         0.0242 
     36 CB         25.0561  -30.0730  -43.6831 C.3       5 UNK        -0.1982 
     37 C          23.7972  -29.7648  -41.4731 C.2       5 UNK         0.5017 
     38 O          23.3899  -30.9186  -41.6262 O.2       5 UNK        -0.5012 
     39 N          23.3922  -28.9706  -40.4747 N.am      6 UNK        -0.4439 
     40 CA         22.4176  -29.3170  -39.4354 C.3       6 UNK         0.0297 
     41 CB         22.1086  -28.0698  -38.5933 C.3       6 UNK        -0.2006 
     42 C          22.8576  -30.4840  -38.5345 C.2       6 UNK         0.4892 
     43 O          22.0054  -31.2343  -38.0597 O.2       6 UNK        -0.5089 
     44 N          24.1749  -30.6231  -38.3299 N.am      7 UNK        -0.4243 
     45 CA         24.7869  -31.7175  -37.5739 C.3       7 UNK         0.0196 
     46 CB         26.2350  -31.3393  -37.2220 C.3       7 UNK        -0.2007 
     47 C          24.7497  -33.0639  -38.3189 C.2       7 UNK         0.5020 
     48 O          24.7423  -34.1071  -37.6651 O.2       7 UNK        -0.5147 
     49 N          24.7394  -33.0250  -39.6588 N.am      8 UNK        -0.4734 
     50 CA         24.6500  -34.2096  -40.5131 C.3       8 UNK         0.0238 
     51 CB         25.4012  -33.9623  -41.8323 C.3       8 UNK        -0.1912 
     52 C          23.1840  -34.5790  -40.7707 C.2       8 UNK         0.5038 
     53 O          22.7919  -35.7152  -40.5011 O.2       8 UNK        -0.5046 
     54 N          22.4054  -33.6038  -41.2609 N.am      9 UNK        -0.4200 
     55 CA         20.9820  -33.7281  -41.6023 C.3       9 UNK         0.0839 
     56 C          20.6878  -34.7758  -42.7213 C.2       9 UNK         0.5513 
     57 N          19.4528  -35.2410  -42.8488 N.am      9 UNK        -0.7519 
     58 O          21.5575  -35.1336  -43.5137 O.2       9 UNK        -0.4960 
     59 C59        20.1057  -33.8648  -40.3219 C.3       10 UNK        -0.0876 
     60 S60        18.4488  -33.1166  -40.4900 S.3       10 UNK        -0.2414 
     61 C61        18.7797  -31.3700  -40.0944 C.3       10 UNK         0.0169 
     62 H62        13.1511  -23.8738  -45.1799 H         1 UNK         0.0903 
     63 H63        13.6166  -23.4590  -46.8313 H         1 UNK         0.0903 
     64 H64        12.8186  -24.9987  -46.4984 H         1 UNK         0.0903 
     65 H65        14.9181  -24.4938  -43.9436 H         1 UNK         0.3096 
     66 H66        16.8525  -26.4340  -44.9106 H         1 UNK         0.1121 
     67 H67        17.7546  -26.3316  -42.5818 H         1 UNK         0.0849 
     68 H68        16.6982  -25.0034  -42.2122 H         1 UNK         0.0849 
     69 H69        15.1026  -29.3388  -42.9387 H         1 UNK         0.0865 
     70 H70        15.8066  -28.4396  -44.2478 H         1 UNK         0.0865 
     71 H71        16.5209  -30.2081  -41.0591 H         1 UNK         0.1346 
     72 H72        20.7224  -30.5568  -41.8480 H         1 UNK         0.1412 
     73 H73        18.2272  -28.2269  -44.4378 H         1 UNK         0.1426 
     74 H74        21.5220  -29.8945  -44.1234 H         1 UNK         0.0716 
     75 H75        21.4286  -28.2615  -43.5113 H         1 UNK         0.0716 
     76 H76        22.2079  -27.6993  -47.2747 H         1 UNK         0.0695 
     77 H77        22.9249  -28.0389  -45.7367 H         1 UNK         0.0695 
     78 H78        22.8039  -25.5611  -46.5776 H         1 UNK         0.0983 
     79 H79        19.9748  -26.0104  -46.2626 H         1 UNK         0.3095 
     80 H80        19.0228  -22.6173  -46.2386 H         1 UNK         0.0454 
     81 H81        19.5671  -22.8359  -48.6633 H         1 UNK         0.0851 
     82 H82        18.9145  -24.4683  -48.6800 H         1 UNK         0.0851 
     83 H83        17.8549  -23.0919  -48.3741 H         1 UNK         0.0851 
     84 H84        17.4923  -24.9817  -46.6909 H         1 UNK         0.2976 
     85 H85        24.4211  -25.6013  -45.0388 H         1 UNK         0.3116 
     86 H86        23.7139  -24.7656  -42.3113 H         1 UNK         0.0646 
     87 H87        26.1607  -24.3812  -42.1226 H         1 UNK         0.0847 
     88 H88        25.5308  -23.6070  -43.5653 H         1 UNK         0.0847 
     89 H89        26.4296  -25.1199  -43.6942 H         1 UNK         0.0847 
     90 H90        24.2814  -27.7316  -43.8750 H         1 UNK         0.3040 
     91 H91        25.7892  -29.1477  -41.8975 H         1 UNK         0.1015 
     92 H92        25.8147  -29.6599  -44.3482 H         1 UNK         0.0786 
     93 H93        24.1359  -30.1944  -44.2561 H         1 UNK         0.0786 
     94 H94        25.3967  -31.0677  -43.3966 H         1 UNK         0.0786 
     95 H95        23.8101  -28.0435  -40.4320 H         1 UNK         0.3172 
     96 H96        21.4966  -29.6179  -39.9323 H         1 UNK         0.0595 
     97 H97        21.3672  -28.2920  -37.8243 H         1 UNK         0.0839 
     98 H98        21.7029  -27.2667  -39.2090 H         1 UNK         0.0839 
     99 H99        22.9986  -27.6906  -38.0895 H         1 UNK         0.0839 
    100 H100       24.7981  -29.9452  -38.7438 H         1 UNK         0.2998 
    101 H101       24.2302  -31.8423  -36.6423 H         1 UNK         0.0822 
    102 H102       26.8429  -31.1893  -38.1152 H         1 UNK         0.0787 
    103 H103       26.2742  -30.4247  -36.6300 H         1 UNK         0.0787 
    104 H104       26.7105  -32.1249  -36.6328 H         1 UNK         0.0787 
    105 H105       24.6852  -32.1260  -40.1172 H         1 UNK         0.3055 
    106 H106       25.1263  -35.0568  -40.0135 H         1 UNK         0.1106 
    107 H107       24.9648  -33.1440  -42.4042 H         1 UNK         0.0828 
    108 H108       26.4500  -33.7255  -41.6535 H         1 UNK         0.0828 
    109 H109       25.3729  -34.8499  -42.4658 H         1 UNK         0.0828 
    110 H110       22.8214  -32.6962  -41.4527 H         1 UNK         0.2931 
    111 H111       20.7498  -32.7748  -42.0706 H         1 UNK         0.0412 
    112 H112       18.7240  -34.9196  -42.2284 H         1 UNK         0.3472 
    113 H113       19.2432  -35.9028  -43.5798 H         1 UNK         0.3472 
    114 H114       19.9979  -34.9136  -40.0396 H         1 UNK         0.0970 
    115 H115       20.5978  -33.3937  -39.4691 H         1 UNK         0.0970 
    116 H116       18.0764  -31.0470  -39.3254 H         1 UNK         0.0612 
    117 H117       19.7719  -31.2546  -39.6592 H         1 UNK         0.0612 
@<TRIPOS>BOND
     1    1    2 1    
     2    1   62 1    
     3    1   63 1    
     4    1   64 1    
     5    2    3 2    
     6    2    4 am   BACKBONE|DICT|INTERRES
     7    4    5 1    
     8    4   65 1    
     9    5    6 1    
    10    5   25 1    
    11    5   66 1    
    12    6    7 1    
    13    6   67 1    
    14    6   68 1    
    15    7    8 1    
    16    8    9 1    
    17    8   69 1    
    18    8   70 1    
    19    9   10 ar   
    20    9   14 ar   
    21   10   11 ar   
    22   10   71 1    
    23   11   12 ar   
    24   11   61 1    
    25   12   13 ar   
    26   12   72 1    
    27   13   14 ar   
    28   13   15 1    
    29   14   73 1    
    30   15   16 1    
    31   15   74 1    
    32   15   75 1    
    33   16   17 1    
    34   17   18 1    
    35   17   76 1    
    36   17   77 1    
    37   18   19 1    
    38   18   27 1    
    39   18   78 1    
    40   19   20 am   BACKBONE|DICT|INTERRES
    41   19   79 1    
    42   20   21 2    
    43   20   22 1    
    44   22   23 1    
    45   22   24 1    
    46   22   80 1    
    47   23   81 1    
    48   23   82 1    
    49   23   83 1    
    50   24   25 am   BACKBONE|DICT|INTERRES
    51   24   84 1    
    52   25   26 2    
    53   27   28 2    
    54   27   29 am   BACKBONE|DICT|INTERRES
    55   29   30 1    
    56   29   85 1    
    57   30   31 1    
    58   30   32 1    
    59   30   86 1    
    60   31   87 1    
    61   31   88 1    
    62   31   89 1    
    63   32   33 2    
    64   32   34 am   BACKBONE|DICT|INTERRES
    65   34   35 1    
    66   34   90 1    
    67   35   36 1    
    68   35   37 1    
    69   35   91 1    
    70   36   92 1    
    71   36   93 1    
    72   36   94 1    
    73   37   38 2    
    74   37   39 am   BACKBONE|DICT|INTERRES
    75   39   40 1    
    76   39   95 1    
    77   40   41 1    
    78   40   42 1    
    79   40   96 1    
    80   41   97 1    
    81   41   98 1    
    82   41   99 1    
    83   42   43 2    
    84   42   44 am   BACKBONE|DICT|INTERRES
    85   44   45 1    
    86   44  100 1    
    87   45   46 1    
    88   45   47 1    
    89   45  101 1    
    90   46  102 1    
    91   46  103 1    
    92   46  104 1    
    93   47   48 2    
    94   47   49 am   BACKBONE|DICT|INTERRES
    95   49   50 1    
    96   49  105 1    
    97   50   51 1    
    98   50   52 1    
    99   50  106 1    
   100   51  107 1    
   101   51  108 1    
   102   51  109 1    
   103   52   53 2    
   104   52   54 am   BACKBONE|DICT|INTERRES
   105   54   55 1    
   106   54  110 1    
   107   55   56 1    
   108   55   59 1    
   109   55  111 1    
   110   56   57 am   BACKBONE|DICT|INTERRES
   111   56   58 2    
   112   57  112 1    
   113   57  113 1    
   114   59   60 1    
   115   59  114 1    
   116   59  115 1    
   117   60   61 1    
   118   61  116 1    
   119   61  117 1    
@<TRIPOS>SUBSTRUCTURE
     1 UNK         1 GROUP             0       ****    0 ROOT    
