@<TRIPOS>MOLECULE
3R8
117   119    1
SMALL
USER_CHARGES


@<TRIPOS>ATOM
      1 CA         12.0432  -27.0692  -44.9075 C.3       0 UNK        -0.2013 
      2 C          13.4012  -26.3933  -45.0260 C.2       0 UNK         0.4866 
      3 O          13.5224  -25.2050  -44.7255 O.2       0 UNK        -0.5176 
      4 N          14.4189  -27.1378  -45.4744 N.am      1 UNK        -0.4884 
      5 CA         15.8086  -26.6845  -45.5910 C.3       1 UNK         0.0853 
      6 C6         16.6399  -27.5616  -46.5762 C.3       10 UNK        -0.0849 
      7 S7         16.3530  -29.3712  -46.5713 S.3       10 UNK        -0.2776 
      8 C8         16.6090  -29.8975  -44.8392 C.3       10 UNK         0.0316 
      9 C9         18.0112  -29.6964  -44.2599 C.ar      10 UNK        -0.0863 
     10 C10        18.1472  -29.6503  -42.8691 C.ar      10 UNK        -0.1009 
     11 C11        19.4044  -29.5476  -42.2655 C.ar      10 UNK        -0.0712 
     12 C12        20.5406  -29.4690  -43.0759 C.ar      10 UNK        -0.0894 
     13 C13        20.4269  -29.4962  -44.4698 C.ar      10 UNK        -0.0745 
     14 C14        19.1612  -29.6133  -45.0555 C.ar      10 UNK        -0.0972 
     15 C15        21.6698  -29.4505  -45.3485 C.3       10 UNK         0.0209 
     16 S16        22.1380  -27.7514  -45.8082 S.3       10 UNK        -0.2568 
     17 C17        23.0411  -27.1833  -44.3272 C.3       10 UNK        -0.0983 
     18 CA         22.4627  -25.8837  -43.7075 C.3       3 UNK         0.0876 
     19 N          21.0830  -26.0376  -43.2494 N.am      3 UNK        -0.4424 
     20 C          20.0114  -25.5381  -43.8677 C.2       2 UNK         0.4918 
     21 O          20.0548  -24.8994  -44.9237 O.2       2 UNK        -0.4875 
     22 CA         18.6558  -25.7758  -43.1940 C.3       2 UNK         0.0481 
     23 CB         18.3011  -24.6380  -42.2218 C.3       2 UNK        -0.1831 
     24 N          17.6707  -25.8615  -44.2623 N.am      2 UNK        -0.4498 
     25 C          16.5087  -26.5183  -44.2239 C.2       1 UNK         0.5027 
     26 O          16.0227  -27.0000  -43.1968 O.2       1 UNK        -0.4969 
     27 C          23.2927  -25.4777  -42.4833 C.2       3 UNK         0.5005 
     28 O          23.0250  -25.9799  -41.3886 O.2       3 UNK        -0.5279 
     29 N          24.3173  -24.6365  -42.6838 N.am      4 UNK        -0.4463 
     30 CA         25.2346  -24.1772  -41.6302 C.3       4 UNK         0.0283 
     31 CB         26.1639  -23.0909  -42.1952 C.3       4 UNK        -0.1875 
     32 C          26.0589  -25.3099  -40.9894 C.2       4 UNK         0.4949 
     33 O          26.3747  -25.2347  -39.8023 O.2       4 UNK        -0.5039 
     34 N          26.3640  -26.3486  -41.7792 N.am      5 UNK        -0.4663 
     35 CA         27.0245  -27.5767  -41.3278 C.3       5 UNK         0.0242 
     36 CB         27.7128  -28.2363  -42.5354 C.3       5 UNK        -0.1982 
     37 C          26.0622  -28.5746  -40.6538 C.2       5 UNK         0.5017 
     38 O          26.5366  -29.5403  -40.0558 O.2       5 UNK        -0.5012 
     39 N          24.7436  -28.3506  -40.7902 N.am      6 UNK        -0.4439 
     40 CA         23.6330  -29.1810  -40.3044 C.3       6 UNK         0.0297 
     41 CB         23.5502  -29.1228  -38.7650 C.3       6 UNK        -0.2006 
     42 C          23.6426  -30.6290  -40.8430 C.2       6 UNK         0.4892 
     43 O          23.1550  -31.5306  -40.1627 O.2       6 UNK        -0.5089 
     44 N          24.1960  -30.8226  -42.0506 N.am      7 UNK        -0.4243 
     45 CA         24.5620  -32.1184  -42.6356 C.3       7 UNK         0.0196 
     46 CB         25.1803  -31.8940  -44.0255 C.3       7 UNK        -0.2007 
     47 C          23.4366  -33.1648  -42.7041 C.2       7 UNK         0.5020 
     48 O          23.6668  -34.3190  -42.3425 O.2       7 UNK        -0.5147 
     49 N          22.2412  -32.7526  -43.1469 N.am      8 UNK        -0.4734 
     50 CA         21.0707  -33.6339  -43.2511 C.3       8 UNK         0.0238 
     51 CB         20.0754  -33.0508  -44.2658 C.3       8 UNK        -0.1912 
     52 C          20.3711  -33.8804  -41.9021 C.2       8 UNK         0.5038 
     53 O          19.5874  -34.8255  -41.8025 O.2       8 UNK        -0.5046 
     54 N          20.6540  -33.0354  -40.9037 N.am      9 UNK        -0.4200 
     55 CA         20.1083  -33.1201  -39.5428 C.3       9 UNK         0.0839 
     56 C          20.9666  -33.9961  -38.5845 C.2       9 UNK         0.5513 
     57 N          22.1165  -34.5166  -38.9978 N.am      9 UNK        -0.7519 
     58 O          20.5689  -34.2263  -37.4453 O.2       9 UNK        -0.4960 
     59 C59        19.8480  -31.7095  -38.9520 C.3       10 UNK        -0.0876 
     60 S60        18.5785  -30.7862  -39.8894 S.3       10 UNK        -0.2414 
     61 C61        19.5323  -29.4835  -40.7452 C.3       10 UNK         0.0169 
     62 H62        11.6977  -27.0367  -43.8746 H         1 UNK         0.0903 
     63 H63        11.3113  -26.5533  -45.5285 H         1 UNK         0.0903 
     64 H64        12.0780  -28.1126  -45.2205 H         1 UNK         0.0903 
     65 H65        14.2688  -28.1107  -45.7022 H         1 UNK         0.3096 
     66 H66        15.7726  -25.6786  -46.0170 H         1 UNK         0.1121 
     67 H67        17.7124  -27.3850  -46.4750 H         1 UNK         0.0849 
     68 H68        16.4080  -27.2326  -47.5903 H         1 UNK         0.0849 
     69 H69        15.8642  -29.4112  -44.2095 H         1 UNK         0.0865 
     70 H70        16.3847  -30.9635  -44.7843 H         1 UNK         0.0865 
     71 H71        17.2642  -29.7053  -42.2468 H         1 UNK         0.1346 
     72 H72        21.5154  -29.3845  -42.6226 H         1 UNK         0.1412 
     73 H73        19.0814  -29.6616  -46.1322 H         1 UNK         0.1426 
     74 H74        21.4896  -30.0169  -46.2635 H         1 UNK         0.0716 
     75 H75        22.5079  -29.9436  -44.8554 H         1 UNK         0.0716 
     76 H76        23.0696  -27.9831  -43.5869 H         1 UNK         0.0695 
     77 H77        24.0776  -27.0250  -44.6310 H         1 UNK         0.0695 
     78 H78        22.5263  -25.0784  -44.4430 H         1 UNK         0.0983 
     79 H79        20.9866  -26.4786  -42.3451 H         1 UNK         0.3095 
     80 H80        18.6888  -26.7246  -42.6553 H         1 UNK         0.0454 
     81 H81        19.0428  -24.5582  -41.4263 H         1 UNK         0.0851 
     82 H82        18.2592  -23.6735  -42.7293 H         1 UNK         0.0851 
     83 H83        17.3347  -24.8087  -41.7472 H         1 UNK         0.0851 
     84 H84        18.0158  -25.4986  -45.1434 H         1 UNK         0.2976 
     85 H85        24.4805  -24.2741  -43.6133 H         1 UNK         0.3116 
     86 H86        24.6297  -23.7288  -40.8390 H         1 UNK         0.0646 
     87 H87        26.8388  -22.7161  -41.4242 H         1 UNK         0.0847 
     88 H88        25.5980  -22.2370  -42.5680 H         1 UNK         0.0847 
     89 H89        26.7812  -23.4688  -43.0111 H         1 UNK         0.0847 
     90 H90        26.0916  -26.3064  -42.7505 H         1 UNK         0.3040 
     91 H91        27.7911  -27.3191  -40.5931 H         1 UNK         0.1015 
     92 H92        28.4452  -27.5674  -42.9881 H         1 UNK         0.0786 
     93 H93        26.9959  -28.5214  -43.3064 H         1 UNK         0.0786 
     94 H94        28.2461  -29.1402  -42.2370 H         1 UNK         0.0786 
     95 H95        24.4587  -27.4790  -41.2229 H         1 UNK         0.3172 
     96 H96        22.7298  -28.7144  -40.6955 H         1 UNK         0.0595 
     97 H97        23.5266  -28.0929  -38.4088 H         1 UNK         0.0839 
     98 H98        24.3995  -29.6211  -38.2965 H         1 UNK         0.0839 
     99 H99        22.6461  -29.6097  -38.3988 H         1 UNK         0.0839 
    100 H100       24.5614  -30.0096  -42.5225 H         1 UNK         0.2998 
    101 H101       25.3386  -32.5365  -41.9914 H         1 UNK         0.0822 
    102 H102       25.4872  -32.8404  -44.4734 H         1 UNK         0.0787 
    103 H103       24.4774  -31.4227  -44.7129 H         1 UNK         0.0787 
    104 H104       26.0685  -31.2643  -43.9686 H         1 UNK         0.0787 
    105 H105       22.1208  -31.7888  -43.4184 H         1 UNK         0.3055 
    106 H106       21.4014  -34.6053  -43.6268 H         1 UNK         0.1106 
    107 H107       20.5581  -32.7952  -45.2091 H         1 UNK         0.0828 
    108 H108       19.2861  -33.7696  -44.4895 H         1 UNK         0.0828 
    109 H109       19.5889  -32.1577  -43.8770 H         1 UNK         0.0828 
    110 H110       21.3758  -32.3400  -41.0399 H         1 UNK         0.2931 
    111 H111       19.1403  -33.6222  -39.5947 H         1 UNK         0.0412 
    112 H112       22.6576  -35.0863  -38.3668 H         1 UNK         0.3472 
    113 H113       22.4672  -34.3098  -39.9209 H         1 UNK         0.3472 
    114 H114       20.7753  -31.1403  -38.8876 H         1 UNK         0.0970 
    115 H115       19.4821  -31.7913  -37.9268 H         1 UNK         0.0970 
    116 H116       19.1685  -28.5120  -40.4087 H         1 UNK         0.0612 
    117 H117       20.5781  -29.5362  -40.4478 H         1 UNK         0.0612 
@<TRIPOS>BOND
     1    1    2 1    
     2    1   62 1    
     3    1   63 1    
     4    1   64 1    
     5    2    3 2    
     6    2    4 am   BACKBONE|DICT|INTERRES
     7    4    5 1    
     8    4   65 1    
     9    5    6 1    
    10    5   25 1    
    11    5   66 1    
    12    6    7 1    
    13    6   67 1    
    14    6   68 1    
    15    7    8 1    
    16    8    9 1    
    17    8   69 1    
    18    8   70 1    
    19    9   10 ar   
    20    9   14 ar   
    21   10   11 ar   
    22   10   71 1    
    23   11   12 ar   
    24   11   61 1    
    25   12   13 ar   
    26   12   72 1    
    27   13   14 ar   
    28   13   15 1    
    29   14   73 1    
    30   15   16 1    
    31   15   74 1    
    32   15   75 1    
    33   16   17 1    
    34   17   18 1    
    35   17   76 1    
    36   17   77 1    
    37   18   19 1    
    38   18   27 1    
    39   18   78 1    
    40   19   20 am   BACKBONE|DICT|INTERRES
    41   19   79 1    
    42   20   21 2    
    43   20   22 1    
    44   22   23 1    
    45   22   24 1    
    46   22   80 1    
    47   23   81 1    
    48   23   82 1    
    49   23   83 1    
    50   24   25 am   BACKBONE|DICT|INTERRES
    51   24   84 1    
    52   25   26 2    
    53   27   28 2    
    54   27   29 am   BACKBONE|DICT|INTERRES
    55   29   30 1    
    56   29   85 1    
    57   30   31 1    
    58   30   32 1    
    59   30   86 1    
    60   31   87 1    
    61   31   88 1    
    62   31   89 1    
    63   32   33 2    
    64   32   34 am   BACKBONE|DICT|INTERRES
    65   34   35 1    
    66   34   90 1    
    67   35   36 1    
    68   35   37 1    
    69   35   91 1    
    70   36   92 1    
    71   36   93 1    
    72   36   94 1    
    73   37   38 2    
    74   37   39 am   BACKBONE|DICT|INTERRES
    75   39   40 1    
    76   39   95 1    
    77   40   41 1    
    78   40   42 1    
    79   40   96 1    
    80   41   97 1    
    81   41   98 1    
    82   41   99 1    
    83   42   43 2    
    84   42   44 am   BACKBONE|DICT|INTERRES
    85   44   45 1    
    86   44  100 1    
    87   45   46 1    
    88   45   47 1    
    89   45  101 1    
    90   46  102 1    
    91   46  103 1    
    92   46  104 1    
    93   47   48 2    
    94   47   49 am   BACKBONE|DICT|INTERRES
    95   49   50 1    
    96   49  105 1    
    97   50   51 1    
    98   50   52 1    
    99   50  106 1    
   100   51  107 1    
   101   51  108 1    
   102   51  109 1    
   103   52   53 2    
   104   52   54 am   BACKBONE|DICT|INTERRES
   105   54   55 1    
   106   54  110 1    
   107   55   56 1    
   108   55   59 1    
   109   55  111 1    
   110   56   57 am   BACKBONE|DICT|INTERRES
   111   56   58 2    
   112   57  112 1    
   113   57  113 1    
   114   59   60 1    
   115   59  114 1    
   116   59  115 1    
   117   60   61 1    
   118   61  116 1    
   119   61  117 1    
@<TRIPOS>SUBSTRUCTURE
     1 UNK         1 GROUP             0       ****    0 ROOT    
