@<TRIPOS>MOLECULE
3R8
117   119    1
SMALL
USER_CHARGES


@<TRIPOS>ATOM
      1 CA         16.5250  -22.8262  -47.0248 C.3       0 UNK        -0.2013 
      2 C          17.3291  -23.9692  -46.4248 C.2       0 UNK         0.4866 
      3 O          18.3132  -24.4073  -47.0213 O.2       0 UNK        -0.5176 
      4 N          16.9333  -24.4477  -45.2386 N.am      1 UNK        -0.4884 
      5 CA         17.5388  -25.5721  -44.5091 C.3       1 UNK         0.0853 
      6 C6         16.5291  -26.2100  -43.5165 C.3       10 UNK        -0.0849 
      7 S7         15.1431  -27.0160  -44.3890 S.3       10 UNK        -0.2776 
      8 C8         15.1619  -28.7023  -43.6776 C.3       10 UNK         0.0316 
      9 C9         16.4797  -29.4599  -43.8469 C.ar      10 UNK        -0.0863 
     10 C10        16.9210  -30.3072  -42.8245 C.ar      10 UNK        -0.1009 
     11 C11        18.1180  -31.0197  -42.9520 C.ar      10 UNK        -0.0712 
     12 C12        18.8857  -30.8746  -44.1109 C.ar      10 UNK        -0.0894 
     13 C13        18.4430  -30.0555  -45.1522 C.ar      10 UNK        -0.0745 
     14 C14        17.2400  -29.3561  -45.0172 C.ar      10 UNK        -0.0972 
     15 C15        19.2330  -29.9542  -46.4457 C.3       10 UNK         0.0209 
     16 S16        20.1415  -28.3850  -46.5535 S.3       10 UNK        -0.2568 
     17 C17        21.7571  -28.7916  -45.7918 C.3       10 UNK        -0.0983 
     18 CA         22.1378  -27.9320  -44.5535 C.3       3 UNK         0.0876 
     19 N          21.6583  -26.5552  -44.6759 N.am      3 UNK        -0.4424 
     20 C          21.9769  -25.5119  -43.9031 C.2       2 UNK         0.4918 
     21 O          22.8083  -25.5596  -42.9979 O.2       2 UNK        -0.4875 
     22 CA         21.1545  -24.2309  -44.1325 C.3       2 UNK         0.0481 
     23 CB         21.8380  -23.3295  -45.1708 C.3       2 UNK        -0.1831 
     24 N          19.7782  -24.5219  -44.5590 N.am      2 UNK        -0.4498 
     25 C          18.8765  -25.1947  -43.8287 C.2       1 UNK         0.5027 
     26 O          19.1015  -25.5533  -42.6727 O.2       1 UNK        -0.4969 
     27 C          21.7792  -28.6172  -43.2150 C.2       3 UNK         0.5005 
     28 O          22.4404  -29.5945  -42.8685 O.2       3 UNK        -0.5279 
     29 N          20.8092  -28.0898  -42.4504 N.am      4 UNK        -0.4463 
     30 CA         20.5270  -28.5416  -41.0833 C.3       4 UNK         0.0283 
     31 CB         19.1104  -28.1090  -40.6743 C.3       4 UNK        -0.1875 
     32 C          21.5556  -28.0267  -40.0575 C.2       4 UNK         0.4949 
     33 O          21.6444  -28.6002  -38.9721 O.2       4 UNK        -0.5039 
     34 N          22.2891  -26.9567  -40.3992 N.am      5 UNK        -0.4663 
     35 CA         23.3378  -26.3582  -39.5705 C.3       5 UNK         0.0242 
     36 CB         23.1194  -24.8377  -39.4965 C.3       5 UNK        -0.1982 
     37 C          24.7363  -26.6755  -40.1205 C.2       5 UNK         0.5017 
     38 O          25.6376  -26.9709  -39.3355 O.2       5 UNK        -0.5012 
     39 N          24.8994  -26.6077  -41.4509 N.am      6 UNK        -0.4439 
     40 CA         26.1514  -26.9024  -42.1575 C.3       6 UNK         0.0297 
     41 CB         26.0772  -26.3310  -43.5827 C.3       6 UNK        -0.2006 
     42 C          26.5003  -28.4023  -42.1915 C.2       6 UNK         0.4892 
     43 O          27.6754  -28.7426  -42.3343 O.2       6 UNK        -0.5089 
     44 N          25.4868  -29.2619  -42.0509 N.am      7 UNK        -0.4243 
     45 CA         25.6003  -30.7068  -41.8824 C.3       7 UNK         0.0196 
     46 CB         25.3953  -31.4128  -43.2393 C.3       7 UNK        -0.2007 
     47 C          24.6005  -31.1211  -40.7898 C.2       7 UNK         0.5020 
     48 O          24.3976  -30.3587  -39.8429 O.2       7 UNK        -0.5147 
     49 N          23.9936  -32.3048  -40.9145 N.am      8 UNK        -0.4734 
     50 CA         22.9571  -32.8034  -40.0147 C.3       8 UNK         0.0238 
     51 CB         23.5942  -33.3717  -38.7310 C.3       8 UNK        -0.1912 
     52 C          22.1391  -33.8778  -40.7374 C.2       8 UNK         0.5038 
     53 O          22.6570  -34.5246  -41.6521 O.2       8 UNK        -0.5046 
     54 N          20.8958  -34.0655  -40.2831 N.am      9 UNK        -0.4200 
     55 CA         19.9883  -35.1398  -40.7188 C.3       9 UNK         0.0839 
     56 C          20.0915  -36.4270  -39.8468 C.2       9 UNK         0.5513 
     57 N          20.9091  -36.4681  -38.8009 N.am      9 UNK        -0.7519 
     58 O          19.4262  -37.4186  -40.1350 O.2       9 UNK        -0.4960 
     59 C59        18.5261  -34.6244  -40.8154 C.3       10 UNK        -0.0876 
     60 S60        18.2242  -33.6926  -42.3524 S.3       10 UNK        -0.2414 
     61 C61        18.5639  -31.9763  -41.8569 C.3       10 UNK         0.0169 
     62 H62        17.1609  -21.9523  -47.1633 H         1 UNK         0.0903 
     63 H63        16.1293  -23.1174  -47.9974 H         1 UNK         0.0903 
     64 H64        15.6868  -22.5394  -46.3900 H         1 UNK         0.0903 
     65 H65        16.1265  -24.0352  -44.7916 H         1 UNK         0.3096 
     66 H66        17.8022  -26.3403  -45.2402 H         1 UNK         0.1121 
     67 H67        16.1313  -25.4587  -42.8322 H         1 UNK         0.0849 
     68 H68        17.0164  -26.9561  -42.8873 H         1 UNK         0.0849 
     69 H69        14.9048  -28.6253  -42.6198 H         1 UNK         0.0865 
     70 H70        14.3666  -29.2853  -44.1437 H         1 UNK         0.0865 
     71 H71        16.3269  -30.4214  -41.9280 H         1 UNK         0.1346 
     72 H72        19.8096  -31.4277  -44.2128 H         1 UNK         0.1412 
     73 H73        16.8970  -28.7309  -45.8301 H         1 UNK         0.1426 
     74 H74        18.5424  -30.0116  -47.2883 H         1 UNK         0.0716 
     75 H75        19.9147  -30.7981  -46.5611 H         1 UNK         0.0716 
     76 H76        22.5051  -28.6263  -46.5687 H         1 UNK         0.0695 
     77 H77        21.8165  -29.8593  -45.5719 H         1 UNK         0.0695 
     78 H78        23.2273  -27.8710  -44.5406 H         1 UNK         0.0983 
     79 H79        20.9578  -26.4206  -45.3917 H         1 UNK         0.3095 
     80 H80        21.1076  -23.6914  -43.1844 H         1 UNK         0.0454 
     81 H81        22.8579  -23.0889  -44.8670 H         1 UNK         0.0851 
     82 H82        21.3054  -22.3857  -45.2880 H         1 UNK         0.0851 
     83 H83        21.8929  -23.8074  -46.1498 H         1 UNK         0.0851 
     84 H84        19.5172  -24.2841  -45.5126 H         1 UNK         0.2976 
     85 H85        20.2995  -27.2743  -42.7702 H         1 UNK         0.3116 
     86 H86        20.5613  -29.6328  -41.0673 H         1 UNK         0.0646 
     87 H87        18.3729  -28.3954  -41.4216 H         1 UNK         0.0847 
     88 H88        19.0408  -27.0306  -40.5299 H         1 UNK         0.0847 
     89 H89        18.8196  -28.5785  -39.7339 H         1 UNK         0.0847 
     90 H90        22.1496  -26.5445  -41.3138 H         1 UNK         0.3040 
     91 H91        23.2894  -26.7551  -38.5537 H         1 UNK         0.1015 
     92 H92        23.8857  -24.3631  -38.8819 H         1 UNK         0.0786 
     93 H93        22.1536  -24.5997  -39.0505 H         1 UNK         0.0786 
     94 H94        23.1558  -24.3714  -40.4819 H         1 UNK         0.0786 
     95 H95        24.1223  -26.2784  -42.0208 H         1 UNK         0.3172 
     96 H96        26.9614  -26.3914  -41.6326 H         1 UNK         0.0595 
     97 H97        25.2917  -26.8051  -44.1702 H         1 UNK         0.0839 
     98 H98        27.0177  -26.4855  -44.1135 H         1 UNK         0.0839 
     99 H99        25.8850  -25.2579  -43.5713 H         1 UNK         0.0839 
    100 H100       24.5582  -28.8941  -41.8886 H         1 UNK         0.2998 
    101 H101       26.5941  -30.9551  -41.5042 H         1 UNK         0.0822 
    102 H102       24.3819  -31.2768  -43.6185 H         1 UNK         0.0787 
    103 H103       26.0832  -31.0242  -43.9904 H         1 UNK         0.0787 
    104 H104       25.5830  -32.4842  -43.1632 H         1 UNK         0.0787 
    105 H105       24.1616  -32.8839  -41.7283 H         1 UNK         0.3055 
    106 H106       22.2895  -31.9767  -39.7580 H         1 UNK         0.1106 
    107 H107       24.2675  -34.2014  -38.9501 H         1 UNK         0.0828 
    108 H108       22.8337  -33.7389  -38.0412 H         1 UNK         0.0828 
    109 H109       24.1651  -32.6116  -38.1976 H         1 UNK         0.0828 
    110 H110       20.5670  -33.5028  -39.5122 H         1 UNK         0.2931 
    111 H111       20.2876  -35.4653  -41.7171 H         1 UNK         0.0412 
    112 H112       20.9652  -37.3137  -38.2544 H         1 UNK         0.3472 
    113 H113       21.4755  -35.6730  -38.5564 H         1 UNK         0.3472 
    114 H114       17.8173  -35.4547  -40.8292 H         1 UNK         0.0970 
    115 H115       18.2555  -34.0247  -39.9449 H         1 UNK         0.0970 
    116 H116       19.6317  -31.8548  -41.6709 H         1 UNK         0.0612 
    117 H117       18.0511  -31.7527  -40.9203 H         1 UNK         0.0612 
@<TRIPOS>BOND
     1    1    2 1    
     2    1   62 1    
     3    1   63 1    
     4    1   64 1    
     5    2    3 2    
     6    2    4 am   BACKBONE|DICT|INTERRES
     7    4    5 1    
     8    4   65 1    
     9    5    6 1    
    10    5   25 1    
    11    5   66 1    
    12    6    7 1    
    13    6   67 1    
    14    6   68 1    
    15    7    8 1    
    16    8    9 1    
    17    8   69 1    
    18    8   70 1    
    19    9   10 ar   
    20    9   14 ar   
    21   10   11 ar   
    22   10   71 1    
    23   11   12 ar   
    24   11   61 1    
    25   12   13 ar   
    26   12   72 1    
    27   13   14 ar   
    28   13   15 1    
    29   14   73 1    
    30   15   16 1    
    31   15   74 1    
    32   15   75 1    
    33   16   17 1    
    34   17   18 1    
    35   17   76 1    
    36   17   77 1    
    37   18   19 1    
    38   18   27 1    
    39   18   78 1    
    40   19   20 am   BACKBONE|DICT|INTERRES
    41   19   79 1    
    42   20   21 2    
    43   20   22 1    
    44   22   23 1    
    45   22   24 1    
    46   22   80 1    
    47   23   81 1    
    48   23   82 1    
    49   23   83 1    
    50   24   25 am   BACKBONE|DICT|INTERRES
    51   24   84 1    
    52   25   26 2    
    53   27   28 2    
    54   27   29 am   BACKBONE|DICT|INTERRES
    55   29   30 1    
    56   29   85 1    
    57   30   31 1    
    58   30   32 1    
    59   30   86 1    
    60   31   87 1    
    61   31   88 1    
    62   31   89 1    
    63   32   33 2    
    64   32   34 am   BACKBONE|DICT|INTERRES
    65   34   35 1    
    66   34   90 1    
    67   35   36 1    
    68   35   37 1    
    69   35   91 1    
    70   36   92 1    
    71   36   93 1    
    72   36   94 1    
    73   37   38 2    
    74   37   39 am   BACKBONE|DICT|INTERRES
    75   39   40 1    
    76   39   95 1    
    77   40   41 1    
    78   40   42 1    
    79   40   96 1    
    80   41   97 1    
    81   41   98 1    
    82   41   99 1    
    83   42   43 2    
    84   42   44 am   BACKBONE|DICT|INTERRES
    85   44   45 1    
    86   44  100 1    
    87   45   46 1    
    88   45   47 1    
    89   45  101 1    
    90   46  102 1    
    91   46  103 1    
    92   46  104 1    
    93   47   48 2    
    94   47   49 am   BACKBONE|DICT|INTERRES
    95   49   50 1    
    96   49  105 1    
    97   50   51 1    
    98   50   52 1    
    99   50  106 1    
   100   51  107 1    
   101   51  108 1    
   102   51  109 1    
   103   52   53 2    
   104   52   54 am   BACKBONE|DICT|INTERRES
   105   54   55 1    
   106   54  110 1    
   107   55   56 1    
   108   55   59 1    
   109   55  111 1    
   110   56   57 am   BACKBONE|DICT|INTERRES
   111   56   58 2    
   112   57  112 1    
   113   57  113 1    
   114   59   60 1    
   115   59  114 1    
   116   59  115 1    
   117   60   61 1    
   118   61  116 1    
   119   61  117 1    
@<TRIPOS>SUBSTRUCTURE
     1 UNK         1 GROUP             0       ****    0 ROOT    
