@<TRIPOS>MOLECULE
3R8
117   119    1
SMALL
USER_CHARGES


@<TRIPOS>ATOM
      1 CA         21.1078  -24.5552  -49.3549 C.3       0 UNK        -0.2013 
      2 C          21.2673  -25.5759  -48.2379 C.2       0 UNK         0.4866 
      3 O          22.2572  -26.3074  -48.2132 O.2       0 UNK        -0.5176 
      4 N          20.3027  -25.6305  -47.3149 N.am      1 UNK        -0.4884 
      5 CA         20.2883  -26.5195  -46.1561 C.3       1 UNK         0.0853 
      6 C6         19.7305  -27.9192  -46.5196 C.3       10 UNK        -0.0849 
      7 S7         19.9970  -29.1517  -45.2041 S.3       10 UNK        -0.2776 
      8 C8         18.2955  -29.4398  -44.6424 C.3       10 UNK         0.0316 
      9 C9         18.2592  -30.4197  -43.4806 C.ar      10 UNK        -0.0863 
     10 C10        18.1366  -31.7924  -43.7154 C.ar      10 UNK        -0.1009 
     11 C11        18.0553  -32.6903  -42.6460 C.ar      10 UNK        -0.0712 
     12 C12        18.0832  -32.2009  -41.3358 C.ar      10 UNK        -0.0894 
     13 C13        18.2271  -30.8332  -41.0850 C.ar      10 UNK        -0.0745 
     14 C14        18.3256  -29.9493  -42.1664 C.ar      10 UNK        -0.0972 
     15 C15        18.3168  -30.3370  -39.6448 C.3       10 UNK         0.0209 
     16 S16        17.3672  -28.8064  -39.3531 S.3       10 UNK        -0.2568 
     17 C17        18.5672  -27.8263  -38.3901 C.3       10 UNK        -0.0983 
     18 CA         19.7078  -27.2327  -39.2565 C.3       3 UNK         0.0876 
     19 N          19.2005  -26.4825  -40.4159 N.am      3 UNK        -0.4424 
     20 C          19.9635  -26.0205  -41.4128 C.2       2 UNK         0.4918 
     21 O          21.1946  -26.0397  -41.3997 O.2       2 UNK        -0.4875 
     22 CA         19.2516  -25.4067  -42.6160 C.3       2 UNK         0.0481 
     23 CB         19.3425  -23.8693  -42.5632 C.3       2 UNK        -0.1831 
     24 N          19.9041  -25.9358  -43.8097 N.am      2 UNK        -0.4498 
     25 C          19.4600  -25.8228  -45.0648 C.2       1 UNK         0.5027 
     26 O          18.4364  -25.2108  -45.3837 O.2       1 UNK        -0.4969 
     27 C          20.6975  -26.4371  -38.3778 C.2       3 UNK         0.5005 
     28 O          21.5568  -27.0429  -37.7361 O.2       3 UNK        -0.5279 
     29 N          20.5792  -25.1016  -38.3829 N.am      4 UNK        -0.4463 
     30 CA         21.5023  -24.1788  -37.7184 C.3       4 UNK         0.0283 
     31 CB         20.8239  -22.8059  -37.5805 C.3       4 UNK        -0.1875 
     32 C          22.8558  -24.0343  -38.4423 C.2       4 UNK         0.4949 
     33 O          23.8216  -23.6057  -37.8099 O.2       4 UNK        -0.5039 
     34 N          22.9058  -24.3677  -39.7396 N.am      5 UNK        -0.4663 
     35 CA         24.1050  -24.3044  -40.5728 C.3       5 UNK         0.0242 
     36 CB         23.7460  -23.7240  -41.9538 C.3       5 UNK        -0.1982 
     37 C          24.7409  -25.6955  -40.6890 C.2       5 UNK         0.5017 
     38 O          25.8601  -25.8874  -40.2124 O.2       5 UNK        -0.5012 
     39 N          24.0137  -26.6366  -41.3032 N.am      6 UNK        -0.4439 
     40 CA         24.4099  -28.0228  -41.5403 C.3       6 UNK         0.0297 
     41 CB         25.6099  -28.1076  -42.5064 C.3       6 UNK        -0.2006 
     42 C          23.2146  -28.7760  -42.1326 C.2       6 UNK         0.4892 
     43 O          22.5028  -28.2192  -42.9716 O.2       6 UNK        -0.5089 
     44 N          23.0420  -30.0323  -41.7088 N.am      7 UNK        -0.4243 
     45 CA         22.0435  -30.9547  -42.2452 C.3       7 UNK         0.0196 
     46 CB         21.6765  -31.9775  -41.1584 C.3       7 UNK        -0.2007 
     47 C          22.5945  -31.6779  -43.4823 C.2       7 UNK         0.5020 
     48 O          23.7712  -32.0469  -43.4986 O.2       7 UNK        -0.5147 
     49 N          21.7303  -31.9005  -44.4790 N.am      8 UNK        -0.4734 
     50 CA         22.0523  -32.6581  -45.6929 C.3       8 UNK         0.0238 
     51 CB         21.0657  -32.2823  -46.8109 C.3       8 UNK        -0.1912 
     52 C          22.0439  -34.1779  -45.4606 C.2       8 UNK         0.5038 
     53 O          22.7987  -34.8939  -46.1200 O.2       8 UNK        -0.5046 
     54 N          21.1865  -34.6377  -44.5421 N.am      9 UNK        -0.4200 
     55 CA         21.0941  -36.0310  -44.0904 C.3       9 UNK         0.0839 
     56 C          22.2837  -36.4483  -43.1808 C.2       9 UNK         0.5513 
     57 N          22.5904  -37.7373  -43.1224 N.am      9 UNK        -0.7519 
     58 O          22.9101  -35.6299  -42.5106 O.2       9 UNK        -0.4960 
     59 C59        19.7173  -36.3268  -43.4347 C.3       10 UNK        -0.0876 
     60 S60        19.2530  -35.1435  -42.1192 S.3       10 UNK        -0.2414 
     61 C61        17.9143  -34.1846  -42.9062 C.3       10 UNK         0.0169 
     62 H62        21.0904  -25.0571  -50.3219 H         1 UNK         0.0903 
     63 H63        20.1868  -23.9810  -49.2547 H         1 UNK         0.0903 
     64 H64        21.9448  -23.8574  -49.3480 H         1 UNK         0.0903 
     65 H65        19.5176  -24.9905  -47.3465 H         1 UNK         0.3096 
     66 H66        21.3129  -26.6274  -45.7903 H         1 UNK         0.1121 
     67 H67        18.6732  -27.8631  -46.7859 H         1 UNK         0.0849 
     68 H68        20.2381  -28.2968  -47.4085 H         1 UNK         0.0849 
     69 H69        17.6977  -29.8204  -45.4723 H         1 UNK         0.0865 
     70 H70        17.8435  -28.4916  -44.3463 H         1 UNK         0.0865 
     71 H71        18.0908  -32.1580  -44.7324 H         1 UNK         0.1346 
     72 H72        18.0151  -32.8953  -40.5093 H         1 UNK         0.1412 
     73 H73        18.4455  -28.8901  -41.9875 H         1 UNK         0.1426 
     74 H74        19.3684  -30.1876  -39.4019 H         1 UNK         0.0716 
     75 H75        17.9508  -31.0971  -38.9529 H         1 UNK         0.0716 
     76 H76        18.9720  -28.4578  -37.5964 H         1 UNK         0.0695 
     77 H77        18.0160  -27.0274  -37.8902 H         1 UNK         0.0695 
     78 H78        20.2866  -28.0636  -39.6656 H         1 UNK         0.0983 
     79 H79        18.1951  -26.4176  -40.4908 H         1 UNK         0.3095 
     80 H80        18.2047  -25.7169  -42.6168 H         1 UNK         0.0454 
     81 H81        18.8083  -23.4050  -43.3917 H         1 UNK         0.0851 
     82 H82        20.3772  -23.5257  -42.5995 H         1 UNK         0.0851 
     83 H83        18.9021  -23.4824  -41.6435 H         1 UNK         0.0851 
     84 H84        20.7385  -26.4821  -43.6189 H         1 UNK         0.2976 
     85 H85        19.8356  -24.6915  -38.9293 H         1 UNK         0.3116 
     86 H86        21.7064  -24.5594  -36.7152 H         1 UNK         0.0646 
     87 H87        21.4722  -22.1015  -37.0572 H         1 UNK         0.0847 
     88 H88        19.8979  -22.8747  -37.0093 H         1 UNK         0.0847 
     89 H89        20.5895  -22.3704  -38.5527 H         1 UNK         0.0847 
     90 H90        22.0901  -24.7911  -40.1688 H         1 UNK         0.3040 
     91 H91        24.8444  -23.6401  -40.1191 H         1 UNK         0.1015 
     92 H92        23.3730  -22.7037  -41.8646 H         1 UNK         0.0786 
     93 H93        22.9833  -24.3102  -42.4671 H         1 UNK         0.0786 
     94 H94        24.6230  -23.6919  -42.6017 H         1 UNK         0.0786 
     95 H95        23.0668  -26.4143  -41.6077 H         1 UNK         0.3172 
     96 H96        24.6788  -28.4717  -40.5820 H         1 UNK         0.0595 
     97 H97        25.4006  -27.5996  -43.4487 H         1 UNK         0.0839 
     98 H98        25.8484  -29.1456  -42.7427 H         1 UNK         0.0839 
     99 H99        26.5093  -27.6648  -42.0794 H         1 UNK         0.0839 
    100 H100       23.7143  -30.4278  -41.0677 H         1 UNK         0.2998 
    101 H101       21.1459  -30.3969  -42.5203 H         1 UNK         0.0822 
    102 H102       20.9224  -32.6752  -41.5219 H         1 UNK         0.0787 
    103 H103       22.5394  -32.5696  -40.8504 H         1 UNK         0.0787 
    104 H104       21.2689  -31.4903  -40.2733 H         1 UNK         0.0787 
    105 H105       20.7997  -31.5091  -44.4133 H         1 UNK         0.3055 
    106 H106       23.0578  -32.3840  -46.0208 H         1 UNK         0.1106 
    107 H107       21.2664  -32.8543  -47.7179 H         1 UNK         0.0828 
    108 H108       20.0317  -32.4769  -46.5244 H         1 UNK         0.0828 
    109 H109       21.1495  -31.2279  -47.0741 H         1 UNK         0.0828 
    110 H110       20.6458  -33.9722  -44.0110 H         1 UNK         0.2931 
    111 H111       21.1566  -36.6550  -44.9847 H         1 UNK         0.0412 
    112 H112       22.0837  -38.4209  -43.6638 H         1 UNK         0.3472 
    113 H113       23.3512  -38.0329  -42.5301 H         1 UNK         0.3472 
    114 H114       18.9466  -36.3408  -44.2059 H         1 UNK         0.0970 
    115 H115       19.7019  -37.3323  -43.0100 H         1 UNK         0.0970 
    116 H116       17.8947  -34.3740  -43.9800 H         1 UNK         0.0612 
    117 H117       16.9557  -34.5290  -42.5160 H         1 UNK         0.0612 
@<TRIPOS>BOND
     1    1    2 1    
     2    1   62 1    
     3    1   63 1    
     4    1   64 1    
     5    2    3 2    
     6    2    4 am   BACKBONE|DICT|INTERRES
     7    4    5 1    
     8    4   65 1    
     9    5    6 1    
    10    5   25 1    
    11    5   66 1    
    12    6    7 1    
    13    6   67 1    
    14    6   68 1    
    15    7    8 1    
    16    8    9 1    
    17    8   69 1    
    18    8   70 1    
    19    9   10 ar   
    20    9   14 ar   
    21   10   11 ar   
    22   10   71 1    
    23   11   12 ar   
    24   11   61 1    
    25   12   13 ar   
    26   12   72 1    
    27   13   14 ar   
    28   13   15 1    
    29   14   73 1    
    30   15   16 1    
    31   15   74 1    
    32   15   75 1    
    33   16   17 1    
    34   17   18 1    
    35   17   76 1    
    36   17   77 1    
    37   18   19 1    
    38   18   27 1    
    39   18   78 1    
    40   19   20 am   BACKBONE|DICT|INTERRES
    41   19   79 1    
    42   20   21 2    
    43   20   22 1    
    44   22   23 1    
    45   22   24 1    
    46   22   80 1    
    47   23   81 1    
    48   23   82 1    
    49   23   83 1    
    50   24   25 am   BACKBONE|DICT|INTERRES
    51   24   84 1    
    52   25   26 2    
    53   27   28 2    
    54   27   29 am   BACKBONE|DICT|INTERRES
    55   29   30 1    
    56   29   85 1    
    57   30   31 1    
    58   30   32 1    
    59   30   86 1    
    60   31   87 1    
    61   31   88 1    
    62   31   89 1    
    63   32   33 2    
    64   32   34 am   BACKBONE|DICT|INTERRES
    65   34   35 1    
    66   34   90 1    
    67   35   36 1    
    68   35   37 1    
    69   35   91 1    
    70   36   92 1    
    71   36   93 1    
    72   36   94 1    
    73   37   38 2    
    74   37   39 am   BACKBONE|DICT|INTERRES
    75   39   40 1    
    76   39   95 1    
    77   40   41 1    
    78   40   42 1    
    79   40   96 1    
    80   41   97 1    
    81   41   98 1    
    82   41   99 1    
    83   42   43 2    
    84   42   44 am   BACKBONE|DICT|INTERRES
    85   44   45 1    
    86   44  100 1    
    87   45   46 1    
    88   45   47 1    
    89   45  101 1    
    90   46  102 1    
    91   46  103 1    
    92   46  104 1    
    93   47   48 2    
    94   47   49 am   BACKBONE|DICT|INTERRES
    95   49   50 1    
    96   49  105 1    
    97   50   51 1    
    98   50   52 1    
    99   50  106 1    
   100   51  107 1    
   101   51  108 1    
   102   51  109 1    
   103   52   53 2    
   104   52   54 am   BACKBONE|DICT|INTERRES
   105   54   55 1    
   106   54  110 1    
   107   55   56 1    
   108   55   59 1    
   109   55  111 1    
   110   56   57 am   BACKBONE|DICT|INTERRES
   111   56   58 2    
   112   57  112 1    
   113   57  113 1    
   114   59   60 1    
   115   59  114 1    
   116   59  115 1    
   117   60   61 1    
   118   61  116 1    
   119   61  117 1    
@<TRIPOS>SUBSTRUCTURE
     1 UNK         1 GROUP             0       ****    0 ROOT    
