@<TRIPOS>MOLECULE
3R8
117   119    1
SMALL
USER_CHARGES


@<TRIPOS>ATOM
      1 CA         19.5061  -28.1483  -41.5826 C.3       0 UNK        -0.2013 
      2 C          18.9632  -26.8477  -42.1515 C.2       0 UNK         0.4866 
      3 O          19.3263  -25.7724  -41.6783 O.2       0 UNK        -0.5176 
      4 N          18.0658  -26.9471  -43.1397 N.am      1 UNK        -0.4884 
      5 CA         17.3517  -25.8275  -43.7560 C.3       1 UNK         0.0853 
      6 C6         15.9614  -26.2607  -44.3025 C.3       10 UNK        -0.0849 
      7 S7         15.9274  -27.5365  -45.6185 S.3       10 UNK        -0.2776 
      8 C8         16.1103  -29.1110  -44.7062 C.3       10 UNK         0.0316 
      9 C9         17.5340  -29.6779  -44.6520 C.ar      10 UNK        -0.0863 
     10 C10        17.8221  -30.6695  -43.7090 C.ar      10 UNK        -0.1009 
     11 C11        19.0788  -31.2816  -43.6694 C.ar      10 UNK        -0.0712 
     12 C12        20.0700  -30.8781  -44.5686 C.ar      10 UNK        -0.0894 
     13 C13        19.8058  -29.8836  -45.5167 C.ar      10 UNK        -0.0745 
     14 C14        18.5365  -29.2975  -45.5561 C.ar      10 UNK        -0.0972 
     15 C15        20.8391  -29.4994  -46.5732 C.3       10 UNK         0.0209 
     16 S16        22.5353  -29.2524  -45.9462 S.3       10 UNK        -0.2568 
     17 C17        22.3756  -27.9052  -44.7281 C.3       10 UNK        -0.0983 
     18 CA         22.3241  -26.4941  -45.3695 C.3       3 UNK         0.0876 
     19 N          20.9901  -26.2236  -45.9045 N.am      3 UNK        -0.4424 
     20 C          20.6762  -25.2856  -46.8061 C.2       2 UNK         0.4918 
     21 O          21.5036  -24.5779  -47.3797 O.2       2 UNK        -0.4875 
     22 CA         19.1743  -25.0886  -47.0917 C.3       2 UNK         0.0481 
     23 CB         18.7831  -25.7876  -48.4032 C.3       2 UNK        -0.1831 
     24 N          18.3005  -25.5692  -46.0127 N.am      2 UNK        -0.4498 
     25 C          18.2608  -25.0906  -44.7619 C.2       1 UNK         0.5027 
     26 O          18.9538  -24.1463  -44.3820 O.2       1 UNK        -0.4969 
     27 C          22.7903  -25.4077  -44.3689 C.2       3 UNK         0.5005 
     28 O          23.9776  -25.3824  -44.0427 O.2       3 UNK        -0.5279 
     29 N          21.8778  -24.5448  -43.8854 N.am      4 UNK        -0.4463 
     30 CA         22.0540  -23.4362  -42.9299 C.3       4 UNK         0.0283 
     31 CB         23.0846  -22.4063  -43.4319 C.3       4 UNK        -0.1875 
     32 C          22.3541  -23.8662  -41.4807 C.2       4 UNK         0.4949 
     33 O          21.8994  -23.2001  -40.5500 O.2       4 UNK        -0.5039 
     34 N          23.0866  -24.9672  -41.3114 N.am      5 UNK        -0.4663 
     35 CA         23.2902  -25.6978  -40.0663 C.3       5 UNK         0.0242 
     36 CB         24.7583  -25.5502  -39.6334 C.3       5 UNK        -0.1982 
     37 C          22.9396  -27.1685  -40.3269 C.2       5 UNK         0.5017 
     38 O          22.8779  -27.5853  -41.4861 O.2       5 UNK        -0.5012 
     39 N          22.7190  -27.9358  -39.2525 N.am      6 UNK        -0.4439 
     40 CA         22.3977  -29.3621  -39.3150 C.3       6 UNK         0.0297 
     41 CB         21.9371  -29.8520  -37.9315 C.3       6 UNK        -0.2006 
     42 C          23.5838  -30.1882  -39.8382 C.2       6 UNK         0.4892 
     43 O          24.5240  -30.4543  -39.0857 O.2       6 UNK        -0.5089 
     44 N          23.5104  -30.5952  -41.1113 N.am      7 UNK        -0.4243 
     45 CA         24.4521  -31.4997  -41.7738 C.3       7 UNK         0.0196 
     46 CB         24.3458  -31.2967  -43.2960 C.3       7 UNK        -0.2007 
     47 C          24.1702  -32.9510  -41.3463 C.2       7 UNK         0.5020 
     48 O          23.7039  -33.7591  -42.1519 O.2       7 UNK        -0.5147 
     49 N          24.3851  -33.2215  -40.0514 N.am      8 UNK        -0.4734 
     50 CA         23.9759  -34.3973  -39.2733 C.3       8 UNK         0.0238 
     51 CB         24.5774  -35.7073  -39.8224 C.3       8 UNK        -0.1912 
     52 C          22.4483  -34.4801  -39.1104 C.2       8 UNK         0.5038 
     53 O          21.9616  -34.4163  -37.9813 O.2       8 UNK        -0.5046 
     54 N          21.7319  -34.5896  -40.2367 N.am      9 UNK        -0.4200 
     55 CA         20.2643  -34.6221  -40.3525 C.3       9 UNK         0.0839 
     56 C          19.5716  -35.8114  -39.6168 C.2       9 UNK         0.5513 
     57 N          20.2637  -36.9147  -39.3586 N.am      9 UNK        -0.7519 
     58 O          18.3847  -35.7539  -39.3045 O.2       9 UNK        -0.4960 
     59 C59        19.6095  -33.2421  -40.0440 C.3       10 UNK        -0.0876 
     60 S60        20.1443  -31.9056  -41.1718 S.3       10 UNK        -0.2414 
     61 C61        19.3309  -32.4355  -42.7103 C.3       10 UNK         0.0169 
     62 H62        20.3993  -28.4635  -42.1181 H         1 UNK         0.0903 
     63 H63        19.7645  -28.0173  -40.5325 H         1 UNK         0.0903 
     64 H64        18.7699  -28.9486  -41.6429 H         1 UNK         0.0903 
     65 H65        17.8407  -27.8610  -43.5107 H         1 UNK         0.3096 
     66 H66        17.1484  -25.0994  -42.9665 H         1 UNK         0.1121 
     67 H67        15.3436  -26.6109  -43.4740 H         1 UNK         0.0849 
     68 H68        15.4380  -25.3834  -44.6874 H         1 UNK         0.0849 
     69 H69        15.7109  -28.9952  -43.6972 H         1 UNK         0.0865 
     70 H70        15.4780  -29.8533  -45.1953 H         1 UNK         0.0865 
     71 H71        17.0513  -30.9963  -43.0237 H         1 UNK         0.1346 
     72 H72        21.0354  -31.3646  -44.5540 H         1 UNK         0.1412 
     73 H73        18.3253  -28.5723  -46.3277 H         1 UNK         0.1426 
     74 H74        20.5324  -28.6045  -47.1144 H         1 UNK         0.0716 
     75 H75        20.8695  -30.2969  -47.3166 H         1 UNK         0.0716 
     76 H76        23.2481  -28.0017  -44.0792 H         1 UNK         0.0695 
     77 H77        21.5120  -28.0827  -44.0878 H         1 UNK         0.0695 
     78 H78        23.0360  -26.4629  -46.1975 H         1 UNK         0.0983 
     79 H79        20.2364  -26.7557  -45.4982 H         1 UNK         0.3095 
     80 H80        19.0006  -24.0170  -47.2078 H         1 UNK         0.0454 
     81 H81        19.3934  -25.4293  -49.2335 H         1 UNK         0.0851 
     82 H82        17.7424  -25.5925  -48.6623 H         1 UNK         0.0851 
     83 H83        18.9175  -26.8681  -48.3434 H         1 UNK         0.0851 
     84 H84        17.6607  -26.3217  -46.2385 H         1 UNK         0.2976 
     85 H85        20.9158  -24.6590  -44.1883 H         1 UNK         0.3116 
     86 H86        21.0851  -22.9350  -42.9010 H         1 UNK         0.0646 
     87 H87        24.0952  -22.8147  -43.4533 H         1 UNK         0.0847 
     88 H88        23.1059  -21.5319  -42.7803 H         1 UNK         0.0847 
     89 H89        22.8409  -22.0572  -44.4353 H         1 UNK         0.0847 
     90 H90        23.4006  -25.4529  -42.1473 H         1 UNK         0.3040 
     91 H91        22.6295  -25.3152  -39.2851 H         1 UNK         0.1015 
     92 H92        25.4412  -25.9544  -40.3821 H         1 UNK         0.0786 
     93 H93        24.9492  -26.0770  -38.6976 H         1 UNK         0.0786 
     94 H94        25.0190  -24.5036  -39.4744 H         1 UNK         0.0786 
     95 H95        22.8244  -27.5340  -38.3319 H         1 UNK         0.3172 
     96 H96        21.5603  -29.4931  -40.0015 H         1 UNK         0.0595 
     97 H97        22.7078  -29.7125  -37.1723 H         1 UNK         0.0839 
     98 H98        21.6956  -30.9159  -37.9586 H         1 UNK         0.0839 
     99 H99        21.0405  -29.3266  -37.6022 H         1 UNK         0.0839 
    100 H100       22.7043  -30.3167  -41.6528 H         1 UNK         0.2998 
    101 H101       25.4702  -31.2488  -41.4680 H         1 UNK         0.0822 
    102 H102       24.5848  -30.2705  -43.5762 H         1 UNK         0.0787 
    103 H103       25.0409  -31.9483  -43.8268 H         1 UNK         0.0787 
    104 H104       23.3438  -31.5177  -43.6652 H         1 UNK         0.0787 
    105 H105       24.7069  -32.4364  -39.4917 H         1 UNK         0.3055 
    106 H106       24.3873  -34.2482  -38.2733 H         1 UNK         0.1106 
    107 H107       24.3340  -36.5467  -39.1699 H         1 UNK         0.0828 
    108 H108       24.2053  -35.9551  -40.8165 H         1 UNK         0.0828 
    109 H109       25.6642  -35.6478  -39.8795 H         1 UNK         0.0828 
    110 H110       22.2475  -34.5691  -41.1112 H         1 UNK         0.2931 
    111 H111       20.0756  -34.8363  -41.4041 H         1 UNK         0.0412 
    112 H112       21.2338  -36.9824  -39.6215 H         1 UNK         0.3472 
    113 H113       19.8104  -37.6853  -38.8929 H         1 UNK         0.3472 
    114 H114       18.5215  -33.3028  -40.1027 H         1 UNK         0.0970 
    115 H115       19.8313  -32.9395  -39.0195 H         1 UNK         0.0970 
    116 H116       18.3856  -32.9273  -42.4759 H         1 UNK         0.0612 
    117 H117       19.9521  -33.1889  -43.1968 H         1 UNK         0.0612 
@<TRIPOS>BOND
     1    1    2 1    
     2    1   62 1    
     3    1   63 1    
     4    1   64 1    
     5    2    3 2    
     6    2    4 am   BACKBONE|DICT|INTERRES
     7    4    5 1    
     8    4   65 1    
     9    5    6 1    
    10    5   25 1    
    11    5   66 1    
    12    6    7 1    
    13    6   67 1    
    14    6   68 1    
    15    7    8 1    
    16    8    9 1    
    17    8   69 1    
    18    8   70 1    
    19    9   10 ar   
    20    9   14 ar   
    21   10   11 ar   
    22   10   71 1    
    23   11   12 ar   
    24   11   61 1    
    25   12   13 ar   
    26   12   72 1    
    27   13   14 ar   
    28   13   15 1    
    29   14   73 1    
    30   15   16 1    
    31   15   74 1    
    32   15   75 1    
    33   16   17 1    
    34   17   18 1    
    35   17   76 1    
    36   17   77 1    
    37   18   19 1    
    38   18   27 1    
    39   18   78 1    
    40   19   20 am   BACKBONE|DICT|INTERRES
    41   19   79 1    
    42   20   21 2    
    43   20   22 1    
    44   22   23 1    
    45   22   24 1    
    46   22   80 1    
    47   23   81 1    
    48   23   82 1    
    49   23   83 1    
    50   24   25 am   BACKBONE|DICT|INTERRES
    51   24   84 1    
    52   25   26 2    
    53   27   28 2    
    54   27   29 am   BACKBONE|DICT|INTERRES
    55   29   30 1    
    56   29   85 1    
    57   30   31 1    
    58   30   32 1    
    59   30   86 1    
    60   31   87 1    
    61   31   88 1    
    62   31   89 1    
    63   32   33 2    
    64   32   34 am   BACKBONE|DICT|INTERRES
    65   34   35 1    
    66   34   90 1    
    67   35   36 1    
    68   35   37 1    
    69   35   91 1    
    70   36   92 1    
    71   36   93 1    
    72   36   94 1    
    73   37   38 2    
    74   37   39 am   BACKBONE|DICT|INTERRES
    75   39   40 1    
    76   39   95 1    
    77   40   41 1    
    78   40   42 1    
    79   40   96 1    
    80   41   97 1    
    81   41   98 1    
    82   41   99 1    
    83   42   43 2    
    84   42   44 am   BACKBONE|DICT|INTERRES
    85   44   45 1    
    86   44  100 1    
    87   45   46 1    
    88   45   47 1    
    89   45  101 1    
    90   46  102 1    
    91   46  103 1    
    92   46  104 1    
    93   47   48 2    
    94   47   49 am   BACKBONE|DICT|INTERRES
    95   49   50 1    
    96   49  105 1    
    97   50   51 1    
    98   50   52 1    
    99   50  106 1    
   100   51  107 1    
   101   51  108 1    
   102   51  109 1    
   103   52   53 2    
   104   52   54 am   BACKBONE|DICT|INTERRES
   105   54   55 1    
   106   54  110 1    
   107   55   56 1    
   108   55   59 1    
   109   55  111 1    
   110   56   57 am   BACKBONE|DICT|INTERRES
   111   56   58 2    
   112   57  112 1    
   113   57  113 1    
   114   59   60 1    
   115   59  114 1    
   116   59  115 1    
   117   60   61 1    
   118   61  116 1    
   119   61  117 1    
@<TRIPOS>SUBSTRUCTURE
     1 UNK         1 GROUP             0       ****    0 ROOT    
