@<TRIPOS>MOLECULE
3R8
117   119    1
SMALL
USER_CHARGES


@<TRIPOS>ATOM
      1 CA         14.7062  -29.6485  -48.9815 C.3       0 UNK        -0.2013 
      2 C          15.4270  -30.0334  -47.6983 C.2       0 UNK         0.4866 
      3 O          15.8674  -31.1748  -47.5628 O.2       0 UNK        -0.5176 
      4 N          15.5565  -29.0881  -46.7570 N.am      1 UNK        -0.4884 
      5 CA         16.2177  -29.2836  -45.4572 C.3       1 UNK         0.0853 
      6 C6         15.6496  -28.3097  -44.3890 C.3       10 UNK        -0.0849 
      7 S7         15.4835  -29.0938  -42.7478 S.3       10 UNK        -0.2776 
      8 C8         15.3505  -27.6456  -41.6481 C.3       10 UNK         0.0316 
      9 C9         16.6864  -26.9333  -41.5108 C.ar      10 UNK        -0.0863 
     10 C10        17.6882  -27.4766  -40.7030 C.ar      10 UNK        -0.1009 
     11 C11        18.9530  -26.8846  -40.6481 C.ar      10 UNK        -0.0712 
     12 C12        19.1893  -25.6991  -41.3490 C.ar      10 UNK        -0.0894 
     13 C13        18.2002  -25.1591  -42.1752 C.ar      10 UNK        -0.0745 
     14 C14        16.9436  -25.7667  -42.2351 C.ar      10 UNK        -0.0972 
     15 C15        18.5054  -23.9711  -43.0714 C.3       10 UNK         0.0209 
     16 S16        18.9212  -24.5346  -44.7559 S.3       10 UNK        -0.2568 
     17 C17        20.6875  -24.9736  -44.5989 C.3       10 UNK        -0.0983 
     18 CA         20.9594  -26.4653  -44.2454 C.3       3 UNK         0.0876 
     19 N          20.2956  -27.4310  -45.1274 N.am      3 UNK        -0.4424 
     20 C          20.5386  -27.6448  -46.4244 C.2       2 UNK         0.4918 
     21 O          21.3789  -27.0272  -47.0787 O.2       2 UNK        -0.4875 
     22 CA         19.7097  -28.7389  -47.1230 C.3       2 UNK         0.0481 
     23 CB         20.4092  -30.1079  -47.0051 C.3       2 UNK        -0.1831 
     24 N          18.2960  -28.8205  -46.7183 N.am      2 UNK        -0.4498 
     25 C          17.7625  -29.2149  -45.5503 C.2       1 UNK         0.5027 
     26 O          18.4416  -29.5162  -44.5675 O.2       1 UNK        -0.4969 
     27 C          22.4646  -26.7644  -44.0622 C.2       3 UNK         0.5005 
     28 O          23.2786  -25.8403  -43.9852 O.2       3 UNK        -0.5279 
     29 N          22.8191  -28.0549  -43.9848 N.am      4 UNK        -0.4463 
     30 CA         24.1884  -28.5479  -43.8268 C.3       4 UNK         0.0283 
     31 CB         24.2688  -29.9901  -44.3497 C.3       4 UNK        -0.1875 
     32 C          24.7052  -28.4017  -42.3819 C.2       4 UNK         0.4949 
     33 O          24.9212  -29.4012  -41.6908 O.2       4 UNK        -0.5039 
     34 N          24.8864  -27.1397  -41.9667 N.am      5 UNK        -0.4663 
     35 CA         25.6242  -26.6500  -40.7912 C.3       5 UNK         0.0242 
     36 CB         27.1352  -26.8777  -41.0113 C.3       5 UNK        -0.1982 
     37 C          25.1642  -27.1923  -39.4223 C.2       5 UNK         0.5017 
     38 O          25.9524  -27.1725  -38.4758 O.2       5 UNK        -0.5012 
     39 N          23.9212  -27.6915  -39.3412 N.am      6 UNK        -0.4439 
     40 CA         23.3408  -28.4340  -38.2098 C.3       6 UNK         0.0297 
     41 CB         23.2349  -27.5519  -36.9475 C.3       6 UNK        -0.2006 
     42 C          24.0352  -29.7862  -37.9377 C.2       6 UNK         0.4892 
     43 O          23.8410  -30.3593  -36.8645 O.2       6 UNK        -0.5089 
     44 N          24.8144  -30.2781  -38.9105 N.am      7 UNK        -0.4243 
     45 CA         25.5594  -31.5319  -38.8441 C.3       7 UNK         0.0196 
     46 CB         26.9850  -31.2936  -39.3692 C.3       7 UNK        -0.2007 
     47 C          24.8703  -32.6322  -39.6596 C.2       7 UNK         0.5020 
     48 O          24.8935  -33.7888  -39.2377 O.2       7 UNK        -0.5147 
     49 N          24.2774  -32.2689  -40.8057 N.am      8 UNK        -0.4734 
     50 CA         23.6607  -33.2139  -41.7417 C.3       8 UNK         0.0238 
     51 CB         24.7098  -33.6642  -42.7788 C.3       8 UNK        -0.1912 
     52 C          22.3859  -32.6489  -42.3892 C.2       8 UNK         0.5038 
     53 O          22.0802  -33.0071  -43.5281 O.2       8 UNK        -0.5046 
     54 N          21.6738  -31.7633  -41.6775 N.am      9 UNK        -0.4200 
     55 CA         20.3884  -31.1923  -42.1146 C.3       9 UNK         0.0839 
     56 C          19.2776  -32.2653  -42.3009 C.2       9 UNK         0.5513 
     57 N          18.3241  -32.0117  -43.1839 N.am      9 UNK        -0.7519 
     58 O          19.2474  -33.2910  -41.6230 O.2       9 UNK        -0.4960 
     59 C59        19.8856  -30.0782  -41.1633 C.3       10 UNK        -0.0876 
     60 S60        21.0323  -28.6700  -41.0081 S.3       10 UNK        -0.2414 
     61 C61        20.0878  -27.5661  -39.9006 C.3       10 UNK         0.0169 
     62 H62        14.3730  -28.6108  -48.9683 H         1 UNK         0.0903 
     63 H63        15.3669  -29.7817  -49.8378 H         1 UNK         0.0903 
     64 H64        13.8316  -30.2828  -49.1245 H         1 UNK         0.0903 
     65 H65        15.1738  -28.1672  -46.9240 H         1 UNK         0.3096 
     66 H66        15.9897  -30.3039  -45.1390 H         1 UNK         0.1121 
     67 H67        14.6487  -27.9755  -44.6671 H         1 UNK         0.0849 
     68 H68        16.2522  -27.4030  -44.3230 H         1 UNK         0.0849 
     69 H69        14.5813  -26.9682  -42.0227 H         1 UNK         0.0865 
     70 H70        15.0132  -27.9763  -40.6646 H         1 UNK         0.0865 
     71 H71        17.4992  -28.3953  -40.1648 H         1 UNK         0.1346 
     72 H72        20.1696  -25.2435  -41.3163 H         1 UNK         0.1412 
     73 H73        16.1831  -25.3572  -42.8862 H         1 UNK         0.1426 
     74 H74        19.3140  -23.3644  -42.6610 H         1 UNK         0.0716 
     75 H75        17.6317  -23.3197  -43.1232 H         1 UNK         0.0716 
     76 H76        21.1374  -24.3168  -43.8525 H         1 UNK         0.0695 
     77 H77        21.1715  -24.7212  -45.5439 H         1 UNK         0.0695 
     78 H78        20.5305  -26.6620  -43.2690 H         1 UNK         0.0983 
     79 H79        19.5943  -28.0241  -44.6919 H         1 UNK         0.3095 
     80 H80        19.6882  -28.4781  -48.1823 H         1 UNK         0.0454 
     81 H81        20.4946  -30.4405  -45.9701 H         1 UNK         0.0851 
     82 H82        21.4204  -30.0636  -47.4119 H         1 UNK         0.0851 
     83 H83        19.8713  -30.8767  -47.5597 H         1 UNK         0.0851 
     84 H84        17.6361  -28.5660  -47.4399 H         1 UNK         0.2976 
     85 H85        22.0888  -28.7511  -44.0121 H         1 UNK         0.3116 
     86 H86        24.8465  -27.9464  -44.4578 H         1 UNK         0.0646 
     87 H87        24.0305  -30.0409  -45.4121 H         1 UNK         0.0847 
     88 H88        25.2718  -30.3998  -44.2228 H         1 UNK         0.0847 
     89 H89        23.5778  -30.6419  -43.8230 H         1 UNK         0.0847 
     90 H90        24.5623  -26.4186  -42.6075 H         1 UNK         0.3040 
     91 H91        25.4533  -25.5729  -40.7528 H         1 UNK         0.1015 
     92 H92        27.3860  -27.9393  -41.0021 H         1 UNK         0.0786 
     93 H93        27.7279  -26.3956  -40.2327 H         1 UNK         0.0786 
     94 H94        27.4650  -26.4637  -41.9642 H         1 UNK         0.0786 
     95 H95        23.3644  -27.6792  -40.1857 H         1 UNK         0.3172 
     96 H96        22.3235  -28.6921  -38.4962 H         1 UNK         0.0595 
     97 H97        24.2128  -27.3311  -36.5195 H         1 UNK         0.0839 
     98 H98        22.6507  -28.0492  -36.1723 H         1 UNK         0.0839 
     99 H99        22.7404  -26.6053  -37.1650 H         1 UNK         0.0839 
    100 H100       24.8937  -29.7561  -39.7785 H         1 UNK         0.2998 
    101 H101       25.6316  -31.8753  -37.8098 H         1 UNK         0.0822 
    102 H102       27.5759  -32.2095  -39.3257 H         1 UNK         0.0787 
    103 H103       26.9838  -30.9531  -40.4058 H         1 UNK         0.0787 
    104 H104       27.5042  -30.5429  -38.7730 H         1 UNK         0.0787 
    105 H105       24.3365  -31.3008  -41.1079 H         1 UNK         0.3055 
    106 H106       23.3276  -34.1004  -41.1972 H         1 UNK         0.1106 
    107 H107       24.2993  -34.4098  -43.4609 H         1 UNK         0.0828 
    108 H108       25.0632  -32.8272  -43.3811 H         1 UNK         0.0828 
    109 H109       25.5756  -34.1174  -42.2959 H         1 UNK         0.0828 
    110 H110       21.9784  -31.5283  -40.7454 H         1 UNK         0.2931 
    111 H111       20.5679  -30.7377  -43.0915 H         1 UNK         0.0412 
    112 H112       17.5785  -32.6759  -43.3156 H         1 UNK         0.3472 
    113 H113       18.3354  -31.1402  -43.7076 H         1 UNK         0.3472 
    114 H114       18.9383  -29.6928  -41.5422 H         1 UNK         0.0970 
    115 H115       19.6823  -30.4807  -40.1692 H         1 UNK         0.0970 
    116 H116       20.7636  -26.8144  -39.4899 H         1 UNK         0.0612 
    117 H117       19.7054  -28.1326  -39.0501 H         1 UNK         0.0612 
@<TRIPOS>BOND
     1    1    2 1    
     2    1   62 1    
     3    1   63 1    
     4    1   64 1    
     5    2    3 2    
     6    2    4 am   BACKBONE|DICT|INTERRES
     7    4    5 1    
     8    4   65 1    
     9    5    6 1    
    10    5   25 1    
    11    5   66 1    
    12    6    7 1    
    13    6   67 1    
    14    6   68 1    
    15    7    8 1    
    16    8    9 1    
    17    8   69 1    
    18    8   70 1    
    19    9   10 ar   
    20    9   14 ar   
    21   10   11 ar   
    22   10   71 1    
    23   11   12 ar   
    24   11   61 1    
    25   12   13 ar   
    26   12   72 1    
    27   13   14 ar   
    28   13   15 1    
    29   14   73 1    
    30   15   16 1    
    31   15   74 1    
    32   15   75 1    
    33   16   17 1    
    34   17   18 1    
    35   17   76 1    
    36   17   77 1    
    37   18   19 1    
    38   18   27 1    
    39   18   78 1    
    40   19   20 am   BACKBONE|DICT|INTERRES
    41   19   79 1    
    42   20   21 2    
    43   20   22 1    
    44   22   23 1    
    45   22   24 1    
    46   22   80 1    
    47   23   81 1    
    48   23   82 1    
    49   23   83 1    
    50   24   25 am   BACKBONE|DICT|INTERRES
    51   24   84 1    
    52   25   26 2    
    53   27   28 2    
    54   27   29 am   BACKBONE|DICT|INTERRES
    55   29   30 1    
    56   29   85 1    
    57   30   31 1    
    58   30   32 1    
    59   30   86 1    
    60   31   87 1    
    61   31   88 1    
    62   31   89 1    
    63   32   33 2    
    64   32   34 am   BACKBONE|DICT|INTERRES
    65   34   35 1    
    66   34   90 1    
    67   35   36 1    
    68   35   37 1    
    69   35   91 1    
    70   36   92 1    
    71   36   93 1    
    72   36   94 1    
    73   37   38 2    
    74   37   39 am   BACKBONE|DICT|INTERRES
    75   39   40 1    
    76   39   95 1    
    77   40   41 1    
    78   40   42 1    
    79   40   96 1    
    80   41   97 1    
    81   41   98 1    
    82   41   99 1    
    83   42   43 2    
    84   42   44 am   BACKBONE|DICT|INTERRES
    85   44   45 1    
    86   44  100 1    
    87   45   46 1    
    88   45   47 1    
    89   45  101 1    
    90   46  102 1    
    91   46  103 1    
    92   46  104 1    
    93   47   48 2    
    94   47   49 am   BACKBONE|DICT|INTERRES
    95   49   50 1    
    96   49  105 1    
    97   50   51 1    
    98   50   52 1    
    99   50  106 1    
   100   51  107 1    
   101   51  108 1    
   102   51  109 1    
   103   52   53 2    
   104   52   54 am   BACKBONE|DICT|INTERRES
   105   54   55 1    
   106   54  110 1    
   107   55   56 1    
   108   55   59 1    
   109   55  111 1    
   110   56   57 am   BACKBONE|DICT|INTERRES
   111   56   58 2    
   112   57  112 1    
   113   57  113 1    
   114   59   60 1    
   115   59  114 1    
   116   59  115 1    
   117   60   61 1    
   118   61  116 1    
   119   61  117 1    
@<TRIPOS>SUBSTRUCTURE
     1 UNK         1 GROUP             0       ****    0 ROOT    
