@<TRIPOS>MOLECULE
3R8
117   119    1
SMALL
USER_CHARGES


@<TRIPOS>ATOM
      1 CA         18.8763  -23.6786  -39.8564 C.3       0 UNK        -0.2013 
      2 C          18.7834  -23.9859  -41.3434 C.2       0 UNK         0.4866 
      3 O          18.7850  -23.0650  -42.1609 O.2       0 UNK        -0.5176 
      4 N          18.6866  -25.2740  -41.6950 N.am      1 UNK        -0.4884 
      5 CA         18.6031  -25.7777  -43.0707 C.3       1 UNK         0.0853 
      6 C6         18.2967  -27.2948  -43.1094 C.3       10 UNK        -0.0849 
      7 S7         16.8630  -27.7839  -42.0824 S.3       10 UNK        -0.2776 
      8 C8         15.8741  -28.8198  -43.2131 C.3       10 UNK         0.0316 
      9 C9         16.7141  -29.8737  -43.9227 C.ar      10 UNK        -0.0863 
     10 C10        17.3785  -30.8666  -43.1936 C.ar      10 UNK        -0.1009 
     11 C11        18.2021  -31.7891  -43.8459 C.ar      10 UNK        -0.0712 
     12 C12        18.3387  -31.7294  -45.2354 C.ar      10 UNK        -0.0894 
     13 C13        17.6919  -30.7331  -45.9705 C.ar      10 UNK        -0.0745 
     14 C14        16.8657  -29.8201  -45.3120 C.ar      10 UNK        -0.0972 
     15 C15        17.9374  -30.6041  -47.4663 C.3       10 UNK         0.0209 
     16 S16        19.0397  -29.2012  -47.8465 S.3       10 UNK        -0.2568 
     17 C17        20.5522  -29.6633  -46.9324 C.3       10 UNK        -0.0983 
     18 CA         21.6286  -28.5509  -46.9331 C.3       3 UNK         0.0876 
     19 N          21.1000  -27.2901  -46.3983 N.am      3 UNK        -0.4424 
     20 C          21.6715  -26.0879  -46.5436 C.2       2 UNK         0.4918 
     21 O          22.7695  -25.9158  -47.0735 O.2       2 UNK        -0.4875 
     22 CA         20.8745  -24.8608  -46.0575 C.3       2 UNK         0.0481 
     23 CB         20.3320  -24.0719  -47.2607 C.3       2 UNK        -0.1831 
     24 N          19.7570  -25.1845  -45.1614 N.am      2 UNK        -0.4498 
     25 C          19.8971  -25.4867  -43.8636 C.2       1 UNK         0.5027 
     26 O          20.9905  -25.5725  -43.3025 O.2       1 UNK        -0.4969 
     27 C          22.8955  -29.0552  -46.2073 C.2       3 UNK         0.5005 
     28 O          23.6404  -29.8451  -46.7909 O.2       3 UNK        -0.5279 
     29 N          23.1135  -28.6260  -44.9585 N.am      4 UNK        -0.4463 
     30 CA         24.2155  -29.0506  -44.0969 C.3       4 UNK         0.0283 
     31 CB         23.8624  -30.3959  -43.4241 C.3       4 UNK        -0.1875 
     32 C          24.5169  -27.9391  -43.0808 C.2       4 UNK         0.4949 
     33 O          24.1070  -26.7929  -43.2809 O.2       4 UNK        -0.5039 
     34 N          25.2222  -28.2873  -41.9968 N.am      5 UNK        -0.4663 
     35 CA         25.4559  -27.4287  -40.8334 C.3       5 UNK         0.0242 
     36 CB         26.6403  -27.9934  -40.0270 C.3       5 UNK        -0.1982 
     37 C          24.1693  -27.3212  -39.9934 C.2       5 UNK         0.5017 
     38 O          24.0535  -27.9762  -38.9563 O.2       5 UNK        -0.5012 
     39 N          23.2066  -26.5411  -40.5030 N.am      6 UNK        -0.4439 
     40 CA         21.8114  -26.4644  -40.0642 C.3       6 UNK         0.0297 
     41 CB         21.6938  -25.9705  -38.6024 C.3       6 UNK        -0.2006 
     42 C          21.0817  -27.7919  -40.3567 C.2       6 UNK         0.4892 
     43 O          21.3856  -28.4449  -41.3561 O.2       6 UNK        -0.5089 
     44 N          20.1301  -28.1718  -39.4947 N.am      7 UNK        -0.4243 
     45 CA         19.3625  -29.4172  -39.6047 C.3       7 UNK         0.0196 
     46 CB         18.0839  -29.2862  -38.7603 C.3       7 UNK        -0.2007 
     47 C          20.1538  -30.6767  -39.1980 C.2       7 UNK         0.5020 
     48 O          19.6492  -31.7855  -39.3821 O.2       7 UNK        -0.5147 
     49 N          21.3613  -30.5081  -38.6390 N.am      8 UNK        -0.4734 
     50 CA         22.2501  -31.5821  -38.1888 C.3       8 UNK         0.0238 
     51 CB         23.2312  -31.0156  -37.1456 C.3       8 UNK        -0.1912 
     52 C          22.9681  -32.2654  -39.3690 C.2       8 UNK         0.5038 
     53 O          24.1924  -32.1823  -39.4847 O.2       8 UNK        -0.5046 
     54 N          22.1828  -32.9233  -40.2280 N.am      9 UNK        -0.4200 
     55 CA         22.6463  -33.6810  -41.4005 C.3       9 UNK         0.0839 
     56 C          23.3830  -35.0117  -41.0680 C.2       9 UNK         0.5513 
     57 N          23.3294  -35.5185  -39.8418 N.am      9 UNK        -0.7519 
     58 O          24.0187  -35.5940  -41.9428 O.2       9 UNK        -0.4960 
     59 C59        21.4949  -33.9311  -42.4078 C.3       10 UNK        -0.0876 
     60 S60        20.7524  -32.3827  -43.0200 S.3       10 UNK        -0.2414 
     61 C61        18.9885  -32.8248  -43.0599 C.3       10 UNK         0.0169 
     62 H62        18.6298  -24.5468  -39.2458 H         1 UNK         0.0903 
     63 H63        19.8852  -23.3542  -39.6028 H         1 UNK         0.0903 
     64 H64        18.1849  -22.8783  -39.5938 H         1 UNK         0.0903 
     65 H65        18.6500  -25.9871  -40.9821 H         1 UNK         0.3096 
     66 H66        17.7789  -25.2479  -43.5536 H         1 UNK         0.1121 
     67 H67        19.1551  -27.8765  -42.7685 H         1 UNK         0.0849 
     68 H68        18.1251  -27.5974  -44.1428 H         1 UNK         0.0849 
     69 H69        15.0842  -29.3126  -42.6448 H         1 UNK         0.0865 
     70 H70        15.3730  -28.1713  -43.9335 H         1 UNK         0.0865 
     71 H71        17.2823  -30.8957  -42.1166 H         1 UNK         0.1346 
     72 H72        18.9942  -32.4289  -45.7363 H         1 UNK         0.1412 
     73 H73        16.3768  -29.0411  -45.8813 H         1 UNK         0.1426 
     74 H74        16.9864  -30.4601  -47.9810 H         1 UNK         0.0716 
     75 H75        18.3701  -31.5209  -47.8699 H         1 UNK         0.0716 
     76 H76        20.9434  -30.5812  -47.3760 H         1 UNK         0.0695 
     77 H77        20.2865  -29.9067  -45.9026 H         1 UNK         0.0695 
     78 H78        21.9188  -28.3671  -47.9701 H         1 UNK         0.0983 
     79 H79        20.1839  -27.3385  -45.9799 H         1 UNK         0.3095 
     80 H80        21.5721  -24.2144  -45.5204 H         1 UNK         0.0454 
     81 H81        21.1401  -23.7762  -47.9314 H         1 UNK         0.0851 
     82 H82        19.8293  -23.1581  -46.9435 H         1 UNK         0.0851 
     83 H83        19.6243  -24.6610  -47.8454 H         1 UNK         0.0851 
     84 H84        18.8302  -25.1352  -45.5612 H         1 UNK         0.2976 
     85 H85        22.5143  -27.9112  -44.5635 H         1 UNK         0.3116 
     86 H86        25.1138  -29.1787  -44.7041 H         1 UNK         0.0646 
     87 H87        23.0394  -30.2841  -42.7160 H         1 UNK         0.0847 
     88 H88        23.5646  -31.1448  -44.1581 H         1 UNK         0.0847 
     89 H89        24.7103  -30.8124  -42.8803 H         1 UNK         0.0847 
     90 H90        25.5019  -29.2524  -41.8982 H         1 UNK         0.3040 
     91 H91        25.7254  -26.4256  -41.1726 H         1 UNK         0.1015 
     92 H92        26.8379  -27.3808  -39.1463 H         1 UNK         0.0786 
     93 H93        27.5537  -28.0087  -40.6219 H         1 UNK         0.0786 
     94 H94        26.4485  -29.0100  -39.6803 H         1 UNK         0.0786 
     95 H95        23.3779  -26.1744  -41.4349 H         1 UNK         0.3172 
     96 H96        21.3452  -25.7114  -40.6981 H         1 UNK         0.0595 
     97 H97        22.0382  -26.7146  -37.8835 H         1 UNK         0.0839 
     98 H98        20.6646  -25.7195  -38.3464 H         1 UNK         0.0839 
     99 H99        22.2839  -25.0672  -38.4473 H         1 UNK         0.0839 
    100 H100       19.9506  -27.5996  -38.6823 H         1 UNK         0.2998 
    101 H101       19.0691  -29.5505  -40.6486 H         1 UNK         0.0822 
    102 H102       17.4552  -30.1716  -38.8646 H         1 UNK         0.0787 
    103 H103       18.3099  -29.1693  -37.6997 H         1 UNK         0.0787 
    104 H104       17.4855  -28.4308  -39.0742 H         1 UNK         0.0787 
    105 H105       21.7286  -29.5691  -38.5746 H         1 UNK         0.3055 
    106 H106       21.6486  -32.3468  -37.6917 H         1 UNK         0.1106 
    107 H107       22.7032  -30.5808  -36.2968 H         1 UNK         0.0828 
    108 H108       23.8800  -31.8003  -36.7544 H         1 UNK         0.0828 
    109 H109       23.8750  -30.2451  -37.5708 H         1 UNK         0.0828 
    110 H110       21.1795  -32.8730  -40.0852 H         1 UNK         0.2931 
    111 H111       23.3857  -33.0565  -41.9058 H         1 UNK         0.0412 
    112 H112       23.8143  -36.3795  -39.6413 H         1 UNK         0.3472 
    113 H113       22.8081  -35.0524  -39.1171 H         1 UNK         0.3472 
    114 H114       21.8560  -34.4840  -43.2774 H         1 UNK         0.0970 
    115 H115       20.7243  -34.5538  -41.9495 H         1 UNK         0.0970 
    116 H116       18.6144  -32.9096  -42.0382 H         1 UNK         0.0612 
    117 H117       18.8644  -33.8032  -43.5265 H         1 UNK         0.0612 
@<TRIPOS>BOND
     1    1    2 1    
     2    1   62 1    
     3    1   63 1    
     4    1   64 1    
     5    2    3 2    
     6    2    4 am   BACKBONE|DICT|INTERRES
     7    4    5 1    
     8    4   65 1    
     9    5    6 1    
    10    5   25 1    
    11    5   66 1    
    12    6    7 1    
    13    6   67 1    
    14    6   68 1    
    15    7    8 1    
    16    8    9 1    
    17    8   69 1    
    18    8   70 1    
    19    9   10 ar   
    20    9   14 ar   
    21   10   11 ar   
    22   10   71 1    
    23   11   12 ar   
    24   11   61 1    
    25   12   13 ar   
    26   12   72 1    
    27   13   14 ar   
    28   13   15 1    
    29   14   73 1    
    30   15   16 1    
    31   15   74 1    
    32   15   75 1    
    33   16   17 1    
    34   17   18 1    
    35   17   76 1    
    36   17   77 1    
    37   18   19 1    
    38   18   27 1    
    39   18   78 1    
    40   19   20 am   BACKBONE|DICT|INTERRES
    41   19   79 1    
    42   20   21 2    
    43   20   22 1    
    44   22   23 1    
    45   22   24 1    
    46   22   80 1    
    47   23   81 1    
    48   23   82 1    
    49   23   83 1    
    50   24   25 am   BACKBONE|DICT|INTERRES
    51   24   84 1    
    52   25   26 2    
    53   27   28 2    
    54   27   29 am   BACKBONE|DICT|INTERRES
    55   29   30 1    
    56   29   85 1    
    57   30   31 1    
    58   30   32 1    
    59   30   86 1    
    60   31   87 1    
    61   31   88 1    
    62   31   89 1    
    63   32   33 2    
    64   32   34 am   BACKBONE|DICT|INTERRES
    65   34   35 1    
    66   34   90 1    
    67   35   36 1    
    68   35   37 1    
    69   35   91 1    
    70   36   92 1    
    71   36   93 1    
    72   36   94 1    
    73   37   38 2    
    74   37   39 am   BACKBONE|DICT|INTERRES
    75   39   40 1    
    76   39   95 1    
    77   40   41 1    
    78   40   42 1    
    79   40   96 1    
    80   41   97 1    
    81   41   98 1    
    82   41   99 1    
    83   42   43 2    
    84   42   44 am   BACKBONE|DICT|INTERRES
    85   44   45 1    
    86   44  100 1    
    87   45   46 1    
    88   45   47 1    
    89   45  101 1    
    90   46  102 1    
    91   46  103 1    
    92   46  104 1    
    93   47   48 2    
    94   47   49 am   BACKBONE|DICT|INTERRES
    95   49   50 1    
    96   49  105 1    
    97   50   51 1    
    98   50   52 1    
    99   50  106 1    
   100   51  107 1    
   101   51  108 1    
   102   51  109 1    
   103   52   53 2    
   104   52   54 am   BACKBONE|DICT|INTERRES
   105   54   55 1    
   106   54  110 1    
   107   55   56 1    
   108   55   59 1    
   109   55  111 1    
   110   56   57 am   BACKBONE|DICT|INTERRES
   111   56   58 2    
   112   57  112 1    
   113   57  113 1    
   114   59   60 1    
   115   59  114 1    
   116   59  115 1    
   117   60   61 1    
   118   61  116 1    
   119   61  117 1    
@<TRIPOS>SUBSTRUCTURE
     1 UNK         1 GROUP             0       ****    0 ROOT    
