@<TRIPOS>MOLECULE
3R8
117   119    1
SMALL
USER_CHARGES


@<TRIPOS>ATOM
      1 CA         12.0766  -25.1272  -44.4593 C.3       0 UNK        -0.2013 
      2 C          13.5484  -25.1652  -44.8430 C.2       0 UNK         0.4866 
      3 O          14.2177  -24.1320  -44.8053 O.2       0 UNK        -0.5176 
      4 N          14.0557  -26.3454  -45.2206 N.am      1 UNK        -0.4884 
      5 CA         15.4649  -26.5778  -45.5503 C.3       1 UNK         0.0853 
      6 C6         15.6356  -27.8964  -46.3457 C.3       10 UNK        -0.0849 
      7 S7         17.2850  -28.0763  -47.1165 S.3       10 UNK        -0.2776 
      8 C8         17.7540  -29.7721  -46.6366 C.3       10 UNK         0.0316 
      9 C9         18.4816  -29.8320  -45.2981 C.ar      10 UNK        -0.0863 
     10 C10        17.7633  -29.8422  -44.0986 C.ar      10 UNK        -0.1009 
     11 C11        18.4251  -29.9521  -42.8721 C.ar      10 UNK        -0.0712 
     12 C12        19.8159  -30.0643  -42.8470 C.ar      10 UNK        -0.0894 
     13 C13        20.5443  -30.0796  -44.0379 C.ar      10 UNK        -0.0745 
     14 C14        19.8760  -29.9454  -45.2596 C.ar      10 UNK        -0.0972 
     15 C15        22.0444  -30.3147  -43.9943 C.3       10 UNK         0.0209 
     16 S16        22.9583  -28.8773  -43.3664 S.3       10 UNK        -0.2568 
     17 C17        22.8404  -27.7192  -44.7756 C.3       10 UNK        -0.0983 
     18 CA         22.2990  -26.3236  -44.3758 C.3       3 UNK         0.0876 
     19 N          20.9636  -26.4352  -43.7771 N.am      3 UNK        -0.4424 
     20 C          19.9015  -25.7053  -44.1242 C.2       2 UNK         0.4918 
     21 O          19.9220  -24.8092  -44.9710 O.2       2 UNK        -0.4875 
     22 CA         18.5933  -26.0179  -43.3932 C.3       2 UNK         0.0481 
     23 CB         18.3218  -24.9991  -42.2717 C.3       2 UNK        -0.1831 
     24 N          17.5307  -25.9920  -44.3877 N.am      2 UNK        -0.4498 
     25 C          16.3296  -26.5645  -44.2730 C.2       1 UNK         0.5027 
     26 O          15.9107  -27.0982  -43.2421 O.2       1 UNK        -0.4969 
     27 C          23.2896  -25.5626  -43.4646 C.2       3 UNK         0.5005 
     28 O          24.4914  -25.5867  -43.7339 O.2       3 UNK        -0.5279 
     29 N          22.7875  -24.9410  -42.3844 N.am      4 UNK        -0.4463 
     30 CA         23.5479  -24.2933  -41.3051 C.3       4 UNK         0.0283 
     31 CB         24.3187  -23.0589  -41.8213 C.3       4 UNK        -0.1875 
     32 C          24.4414  -25.2890  -40.5350 C.2       4 UNK         0.4949 
     33 O          25.5706  -24.9570  -40.1723 O.2       4 UNK        -0.5039 
     34 N          23.8995  -26.4954  -40.3034 N.am      5 UNK        -0.4663 
     35 CA         24.4992  -27.6246  -39.5793 C.3       5 UNK         0.0242 
     36 CB         24.7187  -27.2716  -38.0919 C.3       5 UNK        -0.1982 
     37 C          25.7599  -28.2092  -40.2487 C.2       5 UNK         0.5017 
     38 O          26.6201  -28.7551  -39.5554 O.2       5 UNK        -0.5012 
     39 N          25.8365  -28.1246  -41.5856 N.am      6 UNK        -0.4439 
     40 CA         26.8703  -28.7737  -42.4017 C.3       6 UNK         0.0297 
     41 CB         26.8240  -28.2099  -43.8300 C.3       6 UNK        -0.2006 
     42 C          26.7442  -30.3108  -42.4236 C.2       6 UNK         0.4892 
     43 O          27.7461  -30.9959  -42.6320 O.2       6 UNK        -0.5089 
     44 N          25.5296  -30.8179  -42.1867 N.am      7 UNK        -0.4243 
     45 CA         25.1996  -32.2211  -41.9724 C.3       7 UNK         0.0196 
     46 CB         24.8667  -32.9017  -43.3129 C.3       7 UNK        -0.2007 
     47 C          24.0471  -32.2957  -40.9592 C.2       7 UNK         0.5020 
     48 O          23.4598  -31.2684  -40.6106 O.2       7 UNK        -0.5147 
     49 N          23.7618  -33.5112  -40.4807 N.am      8 UNK        -0.4734 
     50 CA         22.8965  -33.7835  -39.3262 C.3       8 UNK         0.0238 
     51 CB         23.2680  -35.1683  -38.7632 C.3       8 UNK        -0.1912 
     52 C          21.3762  -33.6850  -39.5716 C.2       8 UNK         0.5038 
     53 O          20.6209  -33.9710  -38.6412 O.2       8 UNK        -0.5046 
     54 N          20.9404  -33.3146  -40.7856 N.am      9 UNK        -0.4200 
     55 CA         19.5233  -33.2855  -41.2072 C.3       9 UNK         0.0839 
     56 C          18.9020  -34.7087  -41.3895 C.2       9 UNK         0.5513 
     57 N          19.7024  -35.7499  -41.5908 N.am      9 UNK        -0.7519 
     58 O          17.6869  -34.8842  -41.3697 O.2       9 UNK        -0.4960 
     59 C59        18.6649  -32.3224  -40.3262 C.3       10 UNK        -0.0876 
     60 S60        17.1561  -31.6749  -41.1330 S.3       10 UNK        -0.2414 
     61 C61        17.6321  -29.9759  -41.5773 C.3       10 UNK         0.0169 
     62 H62        11.6048  -26.1053  -44.5521 H         1 UNK         0.0903 
     63 H63        11.9669  -24.7947  -43.4274 H         1 UNK         0.0903 
     64 H64        11.5391  -24.4297  -45.1012 H         1 UNK         0.0903 
     65 H65        13.4677  -27.1666  -45.1986 H         1 UNK         0.3096 
     66 H66        15.7866  -25.7533  -46.1915 H         1 UNK         0.1121 
     67 H67        15.4067  -28.7579  -45.7173 H         1 UNK         0.0849 
     68 H68        14.9077  -27.9276  -47.1583 H         1 UNK         0.0849 
     69 H69        16.8726  -30.4147  -46.6143 H         1 UNK         0.0865 
     70 H70        18.3929  -30.1819  -47.4204 H         1 UNK         0.0865 
     71 H71        16.6848  -29.7769  -44.1127 H         1 UNK         0.1346 
     72 H72        20.3326  -30.1723  -41.9028 H         1 UNK         0.1412 
     73 H73        20.4385  -29.9646  -46.1831 H         1 UNK         0.1426 
     74 H74        22.4316  -30.5983  -44.9742 H         1 UNK         0.0716 
     75 H75        22.2353  -31.1574  -43.3305 H         1 UNK         0.0716 
     76 H76        22.1919  -28.1444  -45.5421 H         1 UNK         0.0695 
     77 H77        23.8208  -27.6380  -45.2474 H         1 UNK         0.0695 
     78 H78        22.2386  -25.7323  -45.2921 H         1 UNK         0.0983 
     79 H79        20.8528  -27.1815  -43.1049 H         1 UNK         0.3095 
     80 H80        18.6528  -27.0211  -42.9664 H         1 UNK         0.0454 
     81 H81        19.1245  -25.0050  -41.5338 H         1 UNK         0.0851 
     82 H82        17.3970  -25.2268  -41.7417 H         1 UNK         0.0851 
     83 H83        18.2412  -23.9837  -42.6618 H         1 UNK         0.0851 
     84 H84        17.8106  -25.5917  -45.2749 H         1 UNK         0.2976 
     85 H85        21.7854  -24.9665  -42.2620 H         1 UNK         0.3116 
     86 H86        22.8097  -23.9357  -40.5856 H         1 UNK         0.0646 
     87 H87        23.6607  -22.3739  -42.3557 H         1 UNK         0.0847 
     88 H88        25.1315  -23.3367  -42.4929 H         1 UNK         0.0847 
     89 H89        24.7610  -22.5024  -40.9942 H         1 UNK         0.0847 
     90 H90        22.9690  -26.6596  -40.6611 H         1 UNK         0.3040 
     91 H91        23.7606  -28.4280  -39.6136 H         1 UNK         0.1015 
     92 H92        25.0131  -28.1520  -37.5193 H         1 UNK         0.0786 
     93 H93        23.8073  -26.8835  -37.6371 H         1 UNK         0.0786 
     94 H94        25.5029  -26.5249  -37.9638 H         1 UNK         0.0786 
     95 H95        25.1040  -27.6345  -42.0816 H         1 UNK         0.3172 
     96 H96        27.8429  -28.5274  -41.9708 H         1 UNK         0.0595 
     97 H97        27.6304  -28.6227  -44.4375 H         1 UNK         0.0839 
     98 H98        26.9363  -27.1254  -43.8350 H         1 UNK         0.0839 
     99 H99        25.8859  -28.4524  -44.3289 H         1 UNK         0.0839 
    100 H100       24.7671  -30.1822  -41.9839 H         1 UNK         0.2998 
    101 H101       26.0582  -32.7227  -41.5205 H         1 UNK         0.0822 
    102 H102       24.5832  -33.9452  -43.1723 H         1 UNK         0.0787 
    103 H103       25.7305  -32.8929  -43.9780 H         1 UNK         0.0787 
    104 H104       24.0497  -32.4072  -43.8343 H         1 UNK         0.0787 
    105 H105       24.2728  -34.3023  -40.8472 H         1 UNK         0.3055 
    106 H106       23.1234  -33.0405  -38.5579 H         1 UNK         0.1106 
    107 H107       24.3259  -35.2228  -38.5055 H         1 UNK         0.0828 
    108 H108       22.7095  -35.3896  -37.8525 H         1 UNK         0.0828 
    109 H109       23.0534  -35.9646  -39.4769 H         1 UNK         0.0828 
    110 H110       21.6261  -33.0959  -41.4925 H         1 UNK         0.2931 
    111 H111       19.5473  -32.8657  -42.2131 H         1 UNK         0.0412 
    112 H112       20.7022  -35.6321  -41.6212 H         1 UNK         0.3472 
    113 H113       19.2977  -36.6651  -41.7138 H         1 UNK         0.3472 
    114 H114       19.2707  -31.4742  -40.0058 H         1 UNK         0.0970 
    115 H115       18.3624  -32.8220  -39.4044 H         1 UNK         0.0970 
    116 H116       18.1973  -29.5138  -40.7666 H         1 UNK         0.0612 
    117 H117       16.7263  -29.3784  -41.6920 H         1 UNK         0.0612 
@<TRIPOS>BOND
     1    1    2 1    
     2    1   62 1    
     3    1   63 1    
     4    1   64 1    
     5    2    3 2    
     6    2    4 am   BACKBONE|DICT|INTERRES
     7    4    5 1    
     8    4   65 1    
     9    5    6 1    
    10    5   25 1    
    11    5   66 1    
    12    6    7 1    
    13    6   67 1    
    14    6   68 1    
    15    7    8 1    
    16    8    9 1    
    17    8   69 1    
    18    8   70 1    
    19    9   10 ar   
    20    9   14 ar   
    21   10   11 ar   
    22   10   71 1    
    23   11   12 ar   
    24   11   61 1    
    25   12   13 ar   
    26   12   72 1    
    27   13   14 ar   
    28   13   15 1    
    29   14   73 1    
    30   15   16 1    
    31   15   74 1    
    32   15   75 1    
    33   16   17 1    
    34   17   18 1    
    35   17   76 1    
    36   17   77 1    
    37   18   19 1    
    38   18   27 1    
    39   18   78 1    
    40   19   20 am   BACKBONE|DICT|INTERRES
    41   19   79 1    
    42   20   21 2    
    43   20   22 1    
    44   22   23 1    
    45   22   24 1    
    46   22   80 1    
    47   23   81 1    
    48   23   82 1    
    49   23   83 1    
    50   24   25 am   BACKBONE|DICT|INTERRES
    51   24   84 1    
    52   25   26 2    
    53   27   28 2    
    54   27   29 am   BACKBONE|DICT|INTERRES
    55   29   30 1    
    56   29   85 1    
    57   30   31 1    
    58   30   32 1    
    59   30   86 1    
    60   31   87 1    
    61   31   88 1    
    62   31   89 1    
    63   32   33 2    
    64   32   34 am   BACKBONE|DICT|INTERRES
    65   34   35 1    
    66   34   90 1    
    67   35   36 1    
    68   35   37 1    
    69   35   91 1    
    70   36   92 1    
    71   36   93 1    
    72   36   94 1    
    73   37   38 2    
    74   37   39 am   BACKBONE|DICT|INTERRES
    75   39   40 1    
    76   39   95 1    
    77   40   41 1    
    78   40   42 1    
    79   40   96 1    
    80   41   97 1    
    81   41   98 1    
    82   41   99 1    
    83   42   43 2    
    84   42   44 am   BACKBONE|DICT|INTERRES
    85   44   45 1    
    86   44  100 1    
    87   45   46 1    
    88   45   47 1    
    89   45  101 1    
    90   46  102 1    
    91   46  103 1    
    92   46  104 1    
    93   47   48 2    
    94   47   49 am   BACKBONE|DICT|INTERRES
    95   49   50 1    
    96   49  105 1    
    97   50   51 1    
    98   50   52 1    
    99   50  106 1    
   100   51  107 1    
   101   51  108 1    
   102   51  109 1    
   103   52   53 2    
   104   52   54 am   BACKBONE|DICT|INTERRES
   105   54   55 1    
   106   54  110 1    
   107   55   56 1    
   108   55   59 1    
   109   55  111 1    
   110   56   57 am   BACKBONE|DICT|INTERRES
   111   56   58 2    
   112   57  112 1    
   113   57  113 1    
   114   59   60 1    
   115   59  114 1    
   116   59  115 1    
   117   60   61 1    
   118   61  116 1    
   119   61  117 1    
@<TRIPOS>SUBSTRUCTURE
     1 UNK         1 GROUP             0       ****    0 ROOT    
