@<TRIPOS>MOLECULE
3R8
117   119    1
SMALL
USER_CHARGES


@<TRIPOS>ATOM
      1 CA         13.2068  -22.3228  -42.7919 C.3       0 UNK        -0.2013 
      2 C          14.2338  -22.9935  -43.6925 C.2       0 UNK         0.4866 
      3 O          14.7641  -22.3517  -44.6000 O.2       0 UNK        -0.5176 
      4 N          14.5130  -24.2818  -43.4557 N.am      1 UNK        -0.4884 
      5 CA         15.5223  -25.0622  -44.1778 C.3       1 UNK         0.0853 
      6 C6         15.3004  -26.5807  -43.9705 C.3       10 UNK        -0.0849 
      7 S7         16.0582  -27.5903  -45.2869 S.3       10 UNK        -0.2776 
      8 C8         16.0908  -29.2339  -44.5010 C.3       10 UNK         0.0316 
      9 C9         17.4134  -29.5004  -43.7958 C.ar      10 UNK        -0.0863 
     10 C10        18.4389  -30.1756  -44.4659 C.ar      10 UNK        -0.1009 
     11 C11        19.6518  -30.4417  -43.8242 C.ar      10 UNK        -0.0712 
     12 C12        19.8369  -30.0283  -42.5029 C.ar      10 UNK        -0.0894 
     13 C13        18.8310  -29.3291  -41.8324 C.ar      10 UNK        -0.0745 
     14 C14        17.6150  -29.0826  -42.4764 C.ar      10 UNK        -0.0972 
     15 C15        19.0682  -28.8181  -40.4211 C.3       10 UNK         0.0209 
     16 S16        19.5054  -27.0482  -40.4175 S.3       10 UNK        -0.2568 
     17 C17        21.2040  -27.0470  -41.0927 C.3       10 UNK        -0.0983 
     18 CA         21.2690  -26.8241  -42.6282 C.3       3 UNK         0.0876 
     19 N          20.5488  -25.6176  -43.0488 N.am      3 UNK        -0.4424 
     20 C          20.0040  -25.4365  -44.2568 C.2       2 UNK         0.4918 
     21 O          20.0905  -26.2528  -45.1773 O.2       2 UNK        -0.4875 
     22 CA         19.2441  -24.1244  -44.4859 C.3       2 UNK         0.0481 
     23 CB         19.8132  -23.3604  -45.6933 C.3       2 UNK        -0.1831 
     24 N          17.8334  -24.4240  -44.7182 N.am      2 UNK        -0.4498 
     25 C          16.9385  -24.6305  -43.7440 C.2       1 UNK         0.5027 
     26 O          17.1906  -24.5030  -42.5427 O.2       1 UNK        -0.4969 
     27 C          22.7153  -26.8225  -43.1743 C.2       3 UNK         0.5005 
     28 O          23.6761  -26.7847  -42.4031 O.2       3 UNK        -0.5279 
     29 N          22.8421  -26.8239  -44.5092 N.am      4 UNK        -0.4463 
     30 CA         24.0971  -26.6907  -45.2569 C.3       4 UNK         0.0283 
     31 CB         23.7774  -26.5391  -46.7523 C.3       4 UNK        -0.1875 
     32 C          25.0971  -27.8388  -45.0362 C.2       4 UNK         0.4949 
     33 O          26.3030  -27.6041  -45.0953 O.2       4 UNK        -0.5039 
     34 N          24.5866  -29.0451  -44.7619 N.am      5 UNK        -0.4663 
     35 CA         25.3743  -30.2410  -44.4434 C.3       5 UNK         0.0242 
     36 CB         24.8018  -31.4429  -45.2185 C.3       5 UNK        -0.1982 
     37 C          25.4384  -30.4898  -42.9230 C.2       5 UNK         0.5017 
     38 O          25.5171  -31.6451  -42.5009 O.2       5 UNK        -0.5012 
     39 N          25.3922  -29.4027  -42.1367 N.am      6 UNK        -0.4439 
     40 CA         25.3106  -29.3348  -40.6726 C.3       6 UNK         0.0297 
     41 CB         26.4636  -30.1105  -39.9986 C.3       6 UNK        -0.2006 
     42 C          23.9330  -29.7695  -40.1434 C.2       6 UNK         0.4892 
     43 O          23.0895  -30.2467  -40.9051 O.2       6 UNK        -0.5089 
     44 N          23.7244  -29.5887  -38.8314 N.am      7 UNK        -0.4243 
     45 CA         22.4695  -29.8758  -38.1237 C.3       7 UNK         0.0196 
     46 CB         22.6157  -29.4691  -36.6486 C.3       7 UNK        -0.2007 
     47 C          21.9963  -31.3378  -38.2309 C.2       7 UNK         0.5020 
     48 O          20.7915  -31.5878  -38.2096 O.2       7 UNK        -0.5147 
     49 N          22.9493  -32.2701  -38.3587 N.am      8 UNK        -0.4734 
     50 CA         22.6977  -33.6976  -38.5681 C.3       8 UNK         0.0238 
     51 CB         23.9503  -34.4861  -38.1498 C.3       8 UNK        -0.1912 
     52 C          22.3051  -34.0510  -40.0158 C.2       8 UNK         0.5038 
     53 O          21.7845  -35.1460  -40.2307 O.2       8 UNK        -0.5046 
     54 N          22.5671  -33.1459  -40.9705 N.am      9 UNK        -0.4200 
     55 CA         22.3910  -33.3261  -42.4169 C.3       9 UNK         0.0839 
     56 C          23.2680  -34.4820  -42.9775 C.2       9 UNK         0.5513 
     57 N          24.5821  -34.3074  -42.9822 N.am      9 UNK        -0.7519 
     58 O          22.7784  -35.5303  -43.3914 O.2       9 UNK        -0.4960 
     59 C59        20.8933  -33.3880  -42.8282 C.3       10 UNK        -0.0876 
     60 S60        20.6132  -32.9472  -44.5789 S.3       10 UNK        -0.2414 
     61 C61        20.7808  -31.1332  -44.5704 C.3       10 UNK         0.0169 
     62 H62        12.8099  -23.0088  -42.0435 H         1 UNK         0.0903 
     63 H63        13.6586  -21.4780  -42.2717 H         1 UNK         0.0903 
     64 H64        12.3725  -21.9502  -43.3867 H         1 UNK         0.0903 
     65 H65        14.0746  -24.7473  -42.6735 H         1 UNK         0.3096 
     66 H66        15.3987  -24.8391  -45.2407 H         1 UNK         0.1121 
     67 H67        15.6593  -26.8982  -42.9908 H         1 UNK         0.0849 
     68 H68        14.2326  -26.8059  -43.9834 H         1 UNK         0.0849 
     69 H69        15.9250  -29.9894  -45.2707 H         1 UNK         0.0865 
     70 H70        15.2594  -29.3357  -43.8016 H         1 UNK         0.0865 
     71 H71        18.2962  -30.4920  -45.4903 H         1 UNK         0.1346 
     72 H72        20.7781  -30.2211  -42.0067 H         1 UNK         0.1412 
     73 H73        16.8344  -28.5519  -41.9502 H         1 UNK         0.1426 
     74 H74        19.8476  -29.3985  -39.9278 H         1 UNK         0.0716 
     75 H75        18.1640  -28.9586  -39.8272 H         1 UNK         0.0716 
     76 H76        21.6837  -27.9881  -40.8263 H         1 UNK         0.0695 
     77 H77        21.7618  -26.2666  -40.5720 H         1 UNK         0.0695 
     78 H78        20.7769  -27.6731  -43.1001 H         1 UNK         0.0983 
     79 H79        20.4265  -24.9066  -42.3425 H         1 UNK         0.3095 
     80 H80        19.3445  -23.4851  -43.6059 H         1 UNK         0.0454 
     81 H81        19.2920  -22.4150  -45.8450 H         1 UNK         0.0851 
     82 H82        19.7348  -23.9374  -46.6158 H         1 UNK         0.0851 
     83 H83        20.8684  -23.1280  -45.5443 H         1 UNK         0.0851 
     84 H84        17.5648  -24.6012  -45.6756 H         1 UNK         0.2976 
     85 H85        21.9821  -26.8103  -45.0509 H         1 UNK         0.3116 
     86 H86        24.5803  -25.7719  -44.9184 H         1 UNK         0.0646 
     87 H87        24.6899  -26.4083  -47.3359 H         1 UNK         0.0847 
     88 H88        23.1488  -25.6680  -46.9386 H         1 UNK         0.0847 
     89 H89        23.2618  -27.4158  -47.1462 H         1 UNK         0.0847 
     90 H90        23.5828  -29.1333  -44.7062 H         1 UNK         0.3040 
     91 H91        26.4066  -30.1048  -44.7732 H         1 UNK         0.1015 
     92 H92        24.7741  -31.2452  -46.2901 H         1 UNK         0.0786 
     93 H93        23.7916  -31.6929  -44.8993 H         1 UNK         0.0786 
     94 H94        25.4173  -32.3317  -45.0745 H         1 UNK         0.0786 
     95 H95        25.2501  -28.5140  -42.6001 H         1 UNK         0.3172 
     96 H96        25.4233  -28.2786  -40.4238 H         1 UNK         0.0595 
     97 H97        26.3348  -31.1902  -40.0800 H         1 UNK         0.0839 
     98 H98        26.5321  -29.8753  -38.9362 H         1 UNK         0.0839 
     99 H99        27.4256  -29.8552  -40.4430 H         1 UNK         0.0839 
    100 H100       24.4667  -29.1859  -38.2776 H         1 UNK         0.2998 
    101 H101       21.6971  -29.2487  -38.5705 H         1 UNK         0.0822 
    102 H102       23.4023  -30.0359  -36.1489 H         1 UNK         0.0787 
    103 H103       22.8488  -28.4087  -36.5494 H         1 UNK         0.0787 
    104 H104       21.6885  -29.6463  -36.1014 H         1 UNK         0.0787 
    105 H105       23.9133  -31.9695  -38.3587 H         1 UNK         0.3055 
    106 H106       21.8688  -34.0038  -37.9254 H         1 UNK         0.1106 
    107 H107       23.7892  -35.5600  -38.2554 H         1 UNK         0.0828 
    108 H108       24.8151  -34.2258  -38.7617 H         1 UNK         0.0828 
    109 H109       24.2070  -34.3012  -37.1066 H         1 UNK         0.0828 
    110 H110       22.9608  -32.2508  -40.7019 H         1 UNK         0.2931 
    111 H111       22.8009  -32.4098  -42.8392 H         1 UNK         0.0412 
    112 H112       24.9814  -33.4195  -42.6850 H         1 UNK         0.3472 
    113 H113       25.1805  -35.0395  -43.3295 H         1 UNK         0.3472 
    114 H114       20.4849  -34.3836  -42.6466 H         1 UNK         0.0970 
    115 H115       20.3002  -32.7195  -42.2048 H         1 UNK         0.0970 
    116 H116       21.7414  -30.8485  -44.1418 H         1 UNK         0.0612 
    117 H117       20.7992  -30.7828  -45.6034 H         1 UNK         0.0612 
@<TRIPOS>BOND
     1    1    2 1    
     2    1   62 1    
     3    1   63 1    
     4    1   64 1    
     5    2    3 2    
     6    2    4 am   BACKBONE|DICT|INTERRES
     7    4    5 1    
     8    4   65 1    
     9    5    6 1    
    10    5   25 1    
    11    5   66 1    
    12    6    7 1    
    13    6   67 1    
    14    6   68 1    
    15    7    8 1    
    16    8    9 1    
    17    8   69 1    
    18    8   70 1    
    19    9   10 ar   
    20    9   14 ar   
    21   10   11 ar   
    22   10   71 1    
    23   11   12 ar   
    24   11   61 1    
    25   12   13 ar   
    26   12   72 1    
    27   13   14 ar   
    28   13   15 1    
    29   14   73 1    
    30   15   16 1    
    31   15   74 1    
    32   15   75 1    
    33   16   17 1    
    34   17   18 1    
    35   17   76 1    
    36   17   77 1    
    37   18   19 1    
    38   18   27 1    
    39   18   78 1    
    40   19   20 am   BACKBONE|DICT|INTERRES
    41   19   79 1    
    42   20   21 2    
    43   20   22 1    
    44   22   23 1    
    45   22   24 1    
    46   22   80 1    
    47   23   81 1    
    48   23   82 1    
    49   23   83 1    
    50   24   25 am   BACKBONE|DICT|INTERRES
    51   24   84 1    
    52   25   26 2    
    53   27   28 2    
    54   27   29 am   BACKBONE|DICT|INTERRES
    55   29   30 1    
    56   29   85 1    
    57   30   31 1    
    58   30   32 1    
    59   30   86 1    
    60   31   87 1    
    61   31   88 1    
    62   31   89 1    
    63   32   33 2    
    64   32   34 am   BACKBONE|DICT|INTERRES
    65   34   35 1    
    66   34   90 1    
    67   35   36 1    
    68   35   37 1    
    69   35   91 1    
    70   36   92 1    
    71   36   93 1    
    72   36   94 1    
    73   37   38 2    
    74   37   39 am   BACKBONE|DICT|INTERRES
    75   39   40 1    
    76   39   95 1    
    77   40   41 1    
    78   40   42 1    
    79   40   96 1    
    80   41   97 1    
    81   41   98 1    
    82   41   99 1    
    83   42   43 2    
    84   42   44 am   BACKBONE|DICT|INTERRES
    85   44   45 1    
    86   44  100 1    
    87   45   46 1    
    88   45   47 1    
    89   45  101 1    
    90   46  102 1    
    91   46  103 1    
    92   46  104 1    
    93   47   48 2    
    94   47   49 am   BACKBONE|DICT|INTERRES
    95   49   50 1    
    96   49  105 1    
    97   50   51 1    
    98   50   52 1    
    99   50  106 1    
   100   51  107 1    
   101   51  108 1    
   102   51  109 1    
   103   52   53 2    
   104   52   54 am   BACKBONE|DICT|INTERRES
   105   54   55 1    
   106   54  110 1    
   107   55   56 1    
   108   55   59 1    
   109   55  111 1    
   110   56   57 am   BACKBONE|DICT|INTERRES
   111   56   58 2    
   112   57  112 1    
   113   57  113 1    
   114   59   60 1    
   115   59  114 1    
   116   59  115 1    
   117   60   61 1    
   118   61  116 1    
   119   61  117 1    
@<TRIPOS>SUBSTRUCTURE
     1 UNK         1 GROUP             0       ****    0 ROOT    
