@<TRIPOS>MOLECULE
3R8
117   119    1
SMALL
USER_CHARGES


@<TRIPOS>ATOM
      1 CA         15.3280  -25.1130  -42.9473 C.3       0 UNK        -0.2013 
      2 C          16.2549  -24.9520  -44.1417 C.2       0 UNK         0.4866 
      3 O          16.6827  -23.8346  -44.4311 O.2       0 UNK        -0.5176 
      4 N          16.5459  -26.0504  -44.8520 N.am      1 UNK        -0.4884 
      5 CA         17.3113  -26.0589  -46.1073 C.3       1 UNK         0.0853 
      6 C6         17.1685  -27.3757  -46.9290 C.3       10 UNK        -0.0849 
      7 S7         15.5878  -28.2631  -46.6729 S.3       10 UNK        -0.2776 
      8 C8         16.1362  -29.9368  -46.1896 C.3       10 UNK         0.0316 
      9 C9         17.1386  -29.9513  -45.0386 C.ar      10 UNK        -0.0863 
     10 C10        18.4621  -30.3364  -45.2744 C.ar      10 UNK        -0.1009 
     11 C11        19.3804  -30.4170  -44.2241 C.ar      10 UNK        -0.0712 
     12 C12        18.9748  -30.0862  -42.9290 C.ar      10 UNK        -0.0894 
     13 C13        17.6611  -29.6787  -42.6806 C.ar      10 UNK        -0.0745 
     14 C14        16.7440  -29.6231  -43.7376 C.ar      10 UNK        -0.0972 
     15 C15        17.2219  -29.3143  -41.2704 C.3       10 UNK         0.0209 
     16 S16        17.0295  -27.5148  -41.0981 S.3       10 UNK        -0.2568 
     17 C17        18.4769  -27.0161  -40.1059 C.3       10 UNK        -0.0983 
     18 CA         19.8535  -27.2082  -40.7917 C.3       3 UNK         0.0876 
     19 N          19.8894  -26.7051  -42.1674 N.am      3 UNK        -0.4424 
     20 C          20.9113  -26.8872  -43.0164 C.2       2 UNK         0.4918 
     21 O          21.9285  -27.5212  -42.7294 O.2       2 UNK        -0.4875 
     22 CA         20.7604  -26.2738  -44.4168 C.3       2 UNK         0.0481 
     23 CB         21.7599  -26.8572  -45.4373 C.3       2 UNK        -0.1831 
     24 N          19.3838  -26.4352  -44.8820 N.am      2 UNK        -0.4498 
     25 C          18.7955  -25.7320  -45.8579 C.2       1 UNK         0.5027 
     26 O          19.3578  -24.8634  -46.5265 O.2       1 UNK        -0.4969 
     27 C          20.9623  -26.5385  -39.9589 C.2       3 UNK         0.5005 
     28 O          21.1039  -25.3142  -40.0201 O.2       3 UNK        -0.5279 
     29 N          21.7534  -27.3472  -39.2427 N.am      4 UNK        -0.4463 
     30 CA         22.9530  -26.9930  -38.4701 C.3       4 UNK         0.0283 
     31 CB         22.6782  -25.9117  -37.4066 C.3       4 UNK        -0.1875 
     32 C          24.1602  -26.6269  -39.3526 C.2       4 UNK         0.4949 
     33 O          25.2626  -27.0934  -39.0688 O.2       4 UNK        -0.5039 
     34 N          23.9355  -25.8599  -40.4287 N.am      5 UNK        -0.4663 
     35 CA         24.9300  -25.4739  -41.4370 C.3       5 UNK         0.0242 
     36 CB         24.2783  -24.5320  -42.4623 C.3       5 UNK        -0.1982 
     37 C          25.5824  -26.6767  -42.1419 C.2       5 UNK         0.5017 
     38 O          26.7990  -26.6789  -42.3306 O.2       5 UNK        -0.5012 
     39 N          24.7678  -27.6868  -42.4697 N.am      6 UNK        -0.4439 
     40 CA         25.1896  -28.9982  -42.9636 C.3       6 UNK         0.0297 
     41 CB         24.5699  -29.2330  -44.3535 C.3       6 UNK        -0.2006 
     42 C          24.7926  -30.0970  -41.9599 C.2       6 UNK         0.4892 
     43 O          24.5323  -31.2296  -42.3694 O.2       6 UNK        -0.5089 
     44 N          24.7327  -29.7448  -40.6644 N.am      7 UNK        -0.4243 
     45 CA         24.2322  -30.5575  -39.5508 C.3       7 UNK         0.0196 
     46 CB         25.1991  -31.7266  -39.2491 C.3       7 UNK        -0.2007 
     47 C          22.7708  -30.9776  -39.8049 C.2       7 UNK         0.5020 
     48 O          21.9152  -30.1040  -39.9629 O.2       7 UNK        -0.5147 
     49 N          22.5199  -32.2888  -39.8663 N.am      8 UNK        -0.4734 
     50 CA         21.2538  -32.8848  -40.2996 C.3       8 UNK         0.0238 
     51 CB         20.8017  -33.9033  -39.2373 C.3       8 UNK        -0.1912 
     52 C          21.3762  -33.5471  -41.6872 C.2       8 UNK         0.5038 
     53 O          20.4145  -34.1842  -42.1167 O.2       8 UNK        -0.5046 
     54 N          22.5449  -33.4064  -42.3381 N.am      9 UNK        -0.4200 
     55 CA         22.9438  -33.9446  -43.6540 C.3       9 UNK         0.0839 
     56 C          22.6564  -35.4536  -43.9294 C.2       9 UNK         0.5513 
     57 N          22.5820  -36.2999  -42.9093 N.am      9 UNK        -0.7519 
     58 O          22.5477  -35.8783  -45.0773 O.2       9 UNK        -0.4960 
     59 C59        22.6180  -32.9856  -44.8365 C.3       10 UNK        -0.0876 
     60 S60        20.8491  -32.6042  -45.0543 S.3       10 UNK        -0.2414 
     61 C61        20.8058  -30.8759  -44.4860 C.3       10 UNK         0.0169 
     62 H62        14.9643  -26.1357  -42.8489 H         1 UNK         0.0903 
     63 H63        15.8478  -24.8434  -42.0284 H         1 UNK         0.0903 
     64 H64        14.4637  -24.4581  -43.0530 H         1 UNK         0.0903 
     65 H65        16.1474  -26.9413  -44.5893 H         1 UNK         0.3096 
     66 H66        16.9071  -25.2505  -46.7215 H         1 UNK         0.1121 
     67 H67        17.9926  -28.0616  -46.7336 H         1 UNK         0.0849 
     68 H68        17.2523  -27.1455  -47.9925 H         1 UNK         0.0849 
     69 H69        15.2613  -30.5237  -45.9063 H         1 UNK         0.0865 
     70 H70        16.5549  -30.4315  -47.0676 H         1 UNK         0.0865 
     71 H71        18.7778  -30.6019  -46.2743 H         1 UNK         0.1346 
     72 H72        19.6837  -30.1527  -42.1154 H         1 UNK         0.1412 
     73 H73        15.7214  -29.3271  -43.5458 H         1 UNK         0.1426 
     74 H74        17.9233  -29.6950  -40.5264 H         1 UNK         0.0716 
     75 H75        16.2643  -29.7917  -41.0580 H         1 UNK         0.0716 
     76 H76        18.4481  -27.5612  -39.1605 H         1 UNK         0.0695 
     77 H77        18.3258  -25.9654  -39.8492 H         1 UNK         0.0695 
     78 H78        20.0626  -28.2776  -40.8366 H         1 UNK         0.0983 
     79 H79        19.1064  -26.1352  -42.4492 H         1 UNK         0.3095 
     80 H80        20.9645  -25.2069  -44.3077 H         1 UNK         0.0454 
     81 H81        21.5933  -27.9219  -45.5955 H         1 UNK         0.0851 
     82 H82        22.7883  -26.7320  -45.0963 H         1 UNK         0.0851 
     83 H83        21.6845  -26.3602  -46.4040 H         1 UNK         0.0851 
     84 H84        18.8362  -27.1389  -44.4033 H         1 UNK         0.2976 
     85 H85        21.6181  -28.3508  -39.3625 H         1 UNK         0.3116 
     86 H86        23.2224  -27.9019  -37.9312 H         1 UNK         0.0646 
     87 H87        22.4684  -24.9381  -37.8499 H         1 UNK         0.0847 
     88 H88        23.5436  -25.7847  -36.7550 H         1 UNK         0.0847 
     89 H89        21.8333  -26.1823  -36.7736 H         1 UNK         0.0847 
     90 H90        22.9871  -25.5187  -40.5566 H         1 UNK         0.3040 
     91 H91        25.7229  -24.9273  -40.9219 H         1 UNK         0.1015 
     92 H92        23.4568  -25.0155  -42.9917 H         1 UNK         0.0786 
     93 H93        25.0031  -24.2086  -43.2108 H         1 UNK         0.0786 
     94 H94        23.8861  -23.6346  -41.9834 H         1 UNK         0.0786 
     95 H95        23.7654  -27.5781  -42.3209 H         1 UNK         0.3172 
     96 H96        26.2758  -29.0414  -43.0622 H         1 UNK         0.0595 
     97 H97        23.4817  -29.2779  -44.3030 H         1 UNK         0.0839 
     98 H98        24.9182  -30.1716  -44.7860 H         1 UNK         0.0839 
     99 H99        24.8412  -28.4381  -45.0480 H         1 UNK         0.0839 
    100 H100       24.9813  -28.7923  -40.4265 H         1 UNK         0.2998 
    101 H101       24.2178  -29.9124  -38.6723 H         1 UNK         0.0822 
    102 H102       26.1995  -31.3526  -39.0307 H         1 UNK         0.0787 
    103 H103       24.8765  -32.2912  -38.3732 H         1 UNK         0.0787 
    104 H104       25.2892  -32.4229  -40.0835 H         1 UNK         0.0787 
    105 H105       23.2864  -32.9276  -39.7049 H         1 UNK         0.3055 
    106 H106       20.4806  -32.1181  -40.3879 H         1 UNK         0.1106 
    107 H107       19.8348  -34.3381  -39.4948 H         1 UNK         0.0828 
    108 H108       21.5120  -34.7245  -39.1354 H         1 UNK         0.0828 
    109 H109       20.6907  -33.4324  -38.2605 H         1 UNK         0.0828 
    110 H110       23.2390  -32.7930  -41.9272 H         1 UNK         0.2931 
    111 H111       24.0328  -33.9350  -43.5932 H         1 UNK         0.0412 
    112 H112       22.4102  -37.2767  -43.0891 H         1 UNK         0.3472 
    113 H113       22.6682  -35.9674  -41.9625 H         1 UNK         0.3472 
    114 H114       22.9971  -33.3914  -45.7758 H         1 UNK         0.0970 
    115 H115       23.1667  -32.0533  -44.6971 H         1 UNK         0.0970 
    116 H116       21.2629  -30.2397  -45.2437 H         1 UNK         0.0612 
    117 H117       21.4110  -30.7746  -43.5828 H         1 UNK         0.0612 
@<TRIPOS>BOND
     1    1    2 1    
     2    1   62 1    
     3    1   63 1    
     4    1   64 1    
     5    2    3 2    
     6    2    4 am   BACKBONE|DICT|INTERRES
     7    4    5 1    
     8    4   65 1    
     9    5    6 1    
    10    5   25 1    
    11    5   66 1    
    12    6    7 1    
    13    6   67 1    
    14    6   68 1    
    15    7    8 1    
    16    8    9 1    
    17    8   69 1    
    18    8   70 1    
    19    9   10 ar   
    20    9   14 ar   
    21   10   11 ar   
    22   10   71 1    
    23   11   12 ar   
    24   11   61 1    
    25   12   13 ar   
    26   12   72 1    
    27   13   14 ar   
    28   13   15 1    
    29   14   73 1    
    30   15   16 1    
    31   15   74 1    
    32   15   75 1    
    33   16   17 1    
    34   17   18 1    
    35   17   76 1    
    36   17   77 1    
    37   18   19 1    
    38   18   27 1    
    39   18   78 1    
    40   19   20 am   BACKBONE|DICT|INTERRES
    41   19   79 1    
    42   20   21 2    
    43   20   22 1    
    44   22   23 1    
    45   22   24 1    
    46   22   80 1    
    47   23   81 1    
    48   23   82 1    
    49   23   83 1    
    50   24   25 am   BACKBONE|DICT|INTERRES
    51   24   84 1    
    52   25   26 2    
    53   27   28 2    
    54   27   29 am   BACKBONE|DICT|INTERRES
    55   29   30 1    
    56   29   85 1    
    57   30   31 1    
    58   30   32 1    
    59   30   86 1    
    60   31   87 1    
    61   31   88 1    
    62   31   89 1    
    63   32   33 2    
    64   32   34 am   BACKBONE|DICT|INTERRES
    65   34   35 1    
    66   34   90 1    
    67   35   36 1    
    68   35   37 1    
    69   35   91 1    
    70   36   92 1    
    71   36   93 1    
    72   36   94 1    
    73   37   38 2    
    74   37   39 am   BACKBONE|DICT|INTERRES
    75   39   40 1    
    76   39   95 1    
    77   40   41 1    
    78   40   42 1    
    79   40   96 1    
    80   41   97 1    
    81   41   98 1    
    82   41   99 1    
    83   42   43 2    
    84   42   44 am   BACKBONE|DICT|INTERRES
    85   44   45 1    
    86   44  100 1    
    87   45   46 1    
    88   45   47 1    
    89   45  101 1    
    90   46  102 1    
    91   46  103 1    
    92   46  104 1    
    93   47   48 2    
    94   47   49 am   BACKBONE|DICT|INTERRES
    95   49   50 1    
    96   49  105 1    
    97   50   51 1    
    98   50   52 1    
    99   50  106 1    
   100   51  107 1    
   101   51  108 1    
   102   51  109 1    
   103   52   53 2    
   104   52   54 am   BACKBONE|DICT|INTERRES
   105   54   55 1    
   106   54  110 1    
   107   55   56 1    
   108   55   59 1    
   109   55  111 1    
   110   56   57 am   BACKBONE|DICT|INTERRES
   111   56   58 2    
   112   57  112 1    
   113   57  113 1    
   114   59   60 1    
   115   59  114 1    
   116   59  115 1    
   117   60   61 1    
   118   61  116 1    
   119   61  117 1    
@<TRIPOS>SUBSTRUCTURE
     1 UNK         1 GROUP             0       ****    0 ROOT    
