@<TRIPOS>MOLECULE
3R8
117   119    1
SMALL
USER_CHARGES


@<TRIPOS>ATOM
      1 CA         15.1193  -26.9398  -39.5593 C.3       0 UNK        -0.2013 
      2 C          15.2068  -26.7666  -41.0684 C.2       0 UNK         0.4866 
      3 O          14.6022  -25.8404  -41.6105 O.2       0 UNK        -0.5176 
      4 N          15.9440  -27.6511  -41.7527 N.am      1 UNK        -0.4884 
      5 CA         16.1938  -27.5754  -43.1958 C.3       1 UNK         0.0853 
      6 C6         16.5932  -28.9485  -43.7897 C.3       10 UNK        -0.0849 
      7 S7         16.0402  -29.1072  -45.5225 S.3       10 UNK        -0.2776 
      8 C8         16.7085  -30.7384  -45.9827 C.3       10 UNK         0.0316 
      9 C9         18.2286  -30.7274  -45.9966 C.ar      10 UNK        -0.0863 
     10 C10        18.9479  -31.3628  -44.9810 C.ar      10 UNK        -0.1009 
     11 C11        20.3465  -31.2839  -44.9355 C.ar      10 UNK        -0.0712 
     12 C12        21.0155  -30.6053  -45.9598 C.ar      10 UNK        -0.0894 
     13 C13        20.3071  -29.9795  -46.9918 C.ar      10 UNK        -0.0745 
     14 C14        18.9131  -30.0491  -47.0070 C.ar      10 UNK        -0.0972 
     15 C15        21.0416  -29.1987  -48.0742 C.3       10 UNK         0.0209 
     16 S16        20.8639  -27.3950  -47.8606 S.3       10 UNK        -0.2568 
     17 C17        21.7205  -27.1488  -46.2705 C.3       10 UNK        -0.0983 
     18 CA         21.3080  -25.8649  -45.5083 C.3       3 UNK         0.0876 
     19 N          19.8530  -25.7043  -45.3963 N.am      3 UNK        -0.4424 
     20 C          19.2596  -24.5594  -45.0344 C.2       2 UNK         0.4918 
     21 O          19.8765  -23.5329  -44.7469 O.2       2 UNK        -0.4875 
     22 CA         17.7212  -24.5305  -44.9996 C.3       2 UNK         0.0481 
     23 CB         17.1739  -24.0485  -46.3529 C.3       2 UNK        -0.1831 
     24 N          17.0500  -25.7826  -44.6303 N.am      2 UNK        -0.4498 
     25 C          17.2386  -26.4804  -43.5011 C.2       1 UNK         0.5027 
     26 O          18.1737  -26.2916  -42.7184 O.2       1 UNK        -0.4969 
     27 C          22.0041  -25.8817  -44.1334 C.2       3 UNK         0.5005 
     28 O          23.1379  -25.4102  -44.0236 O.2       3 UNK        -0.5279 
     29 N          21.3400  -26.4956  -43.1401 N.am      4 UNK        -0.4463 
     30 CA         21.8623  -26.9695  -41.8524 C.3       4 UNK         0.0283 
     31 CB         22.3376  -25.8128  -40.9516 C.3       4 UNK        -0.1875 
     32 C          22.9372  -28.0603  -42.0228 C.2       4 UNK         0.4949 
     33 O          22.6817  -29.2129  -41.6760 O.2       4 UNK        -0.5039 
     34 N          24.0925  -27.6823  -42.5871 N.am      5 UNK        -0.4663 
     35 CA         25.2598  -28.5116  -42.9132 C.3       5 UNK         0.0242 
     36 CB         24.8749  -29.5599  -43.9826 C.3       5 UNK        -0.1982 
     37 C          25.9312  -29.1600  -41.6839 C.2       5 UNK         0.5017 
     38 O          25.5174  -28.9376  -40.5436 O.2       5 UNK        -0.5012 
     39 N          26.9640  -29.9763  -41.9405 N.am      6 UNK        -0.4439 
     40 CA         27.6821  -30.7654  -40.9299 C.3       6 UNK         0.0297 
     41 CB         28.9316  -31.3923  -41.5695 C.3       6 UNK        -0.2006 
     42 C          26.8143  -31.8525  -40.2647 C.2       6 UNK         0.4892 
     43 O          27.1278  -32.2803  -39.1536 O.2       6 UNK        -0.5089 
     44 N          25.7347  -32.2615  -40.9462 N.am      7 UNK        -0.4243 
     45 CA         24.7062  -33.1725  -40.4427 C.3       7 UNK         0.0196 
     46 CB         23.8659  -33.6674  -41.6306 C.3       7 UNK        -0.2007 
     47 C          23.7970  -32.5462  -39.3667 C.2       7 UNK         0.5020 
     48 O          23.1300  -33.2968  -38.6544 O.2       7 UNK        -0.5147 
     49 N          23.7830  -31.2062  -39.2663 N.am      8 UNK        -0.4734 
     50 CA         22.9813  -30.3910  -38.3456 C.3       8 UNK         0.0238 
     51 CB         23.4303  -30.6071  -36.8844 C.3       8 UNK        -0.1912 
     52 C          21.4672  -30.5882  -38.5530 C.2       8 UNK         0.5038 
     53 O          20.7358  -30.8593  -37.5984 O.2       8 UNK        -0.5046 
     54 N          21.0328  -30.4436  -39.8097 N.am      9 UNK        -0.4200 
     55 CA         19.6333  -30.5348  -40.2497 C.3       9 UNK         0.0839 
     56 C          18.7390  -29.3266  -39.8455 C.2       9 UNK         0.5513 
     57 N          19.2574  -28.2770  -39.2198 N.am      9 UNK        -0.7519 
     58 O          17.5412  -29.3445  -40.1148 O.2       9 UNK        -0.4960 
     59 C59        19.5308  -30.7930  -41.7746 C.3       10 UNK        -0.0876 
     60 S60        20.2696  -32.3792  -42.2934 S.3       10 UNK        -0.2414 
     61 C61        21.1805  -31.8946  -43.8040 C.3       10 UNK         0.0169 
     62 H62        15.6771  -26.1492  -39.0584 H         1 UNK         0.0903 
     63 H63        14.0808  -26.8837  -39.2340 H         1 UNK         0.0903 
     64 H64        15.5192  -27.8995  -39.2342 H         1 UNK         0.0903 
     65 H65        16.4793  -28.3477  -41.2369 H         1 UNK         0.3096 
     66 H66        15.2486  -27.2707  -43.6523 H         1 UNK         0.1121 
     67 H67        17.6693  -29.1162  -43.7180 H         1 UNK         0.0849 
     68 H68        16.1229  -29.7572  -43.2275 H         1 UNK         0.0849 
     69 H69        16.3260  -31.4958  -45.2966 H         1 UNK         0.0865 
     70 H70        16.3394  -31.0086  -46.9732 H         1 UNK         0.0865 
     71 H71        18.4044  -31.8938  -44.2136 H         1 UNK         0.1346 
     72 H72        22.0951  -30.5403  -45.9383 H         1 UNK         0.1412 
     73 H73        18.3590  -29.5478  -47.7893 H         1 UNK         0.1426 
     74 H74        20.6477  -29.4794  -49.0520 H         1 UNK         0.0716 
     75 H75        22.1019  -29.4561  -48.0863 H         1 UNK         0.0716 
     76 H76        21.5393  -28.0171  -45.6381 H         1 UNK         0.0695 
     77 H77        22.7943  -27.1424  -46.4687 H         1 UNK         0.0695 
     78 H78        21.6958  -25.0064  -46.0616 H         1 UNK         0.0983 
     79 H79        19.2832  -26.4967  -45.6547 H         1 UNK         0.3095 
     80 H80        17.4383  -23.7940  -44.2448 H         1 UNK         0.0454 
     81 H81        17.6309  -23.1021  -46.6460 H         1 UNK         0.0851 
     82 H82        17.3759  -24.7670  -47.1485 H         1 UNK         0.0851 
     83 H83        16.0971  -23.8840  -46.3126 H         1 UNK         0.0851 
     84 H84        16.2857  -26.0607  -45.2298 H         1 UNK         0.2976 
     85 H85        20.3850  -26.7717  -43.3326 H         1 UNK         0.3116 
     86 H86        21.0158  -27.4404  -41.3510 H         1 UNK         0.0646 
     87 H87        22.6697  -26.1886  -39.9831 H         1 UNK         0.0847 
     88 H88        21.5300  -25.1051  -40.7647 H         1 UNK         0.0847 
     89 H89        23.1704  -25.2592  -41.3850 H         1 UNK         0.0847 
     90 H90        24.1451  -26.7127  -42.8850 H         1 UNK         0.3040 
     91 H91        25.9959  -27.8338  -43.3486 H         1 UNK         0.1015 
     92 H92        24.3308  -29.0998  -44.8080 H         1 UNK         0.0786 
     93 H93        24.2444  -30.3477  -43.5697 H         1 UNK         0.0786 
     94 H94        25.7544  -30.0383  -44.4139 H         1 UNK         0.0786 
     95 H95        27.2643  -30.0916  -42.8982 H         1 UNK         0.3172 
     96 H96        28.0076  -30.0825  -40.1423 H         1 UNK         0.0595 
     97 H97        29.5022  -31.9611  -40.8338 H         1 UNK         0.0839 
     98 H98        29.5985  -30.6296  -41.9721 H         1 UNK         0.0839 
     99 H99        28.6731  -32.0763  -42.3789 H         1 UNK         0.0839 
    100 H100       25.5738  -31.8600  -41.8576 H         1 UNK         0.2998 
    101 H101       25.2031  -34.0327  -39.9887 H         1 UNK         0.0822 
    102 H102       24.4778  -34.2020  -42.3573 H         1 UNK         0.0787 
    103 H103       23.0828  -34.3518  -41.3008 H         1 UNK         0.0787 
    104 H104       23.3778  -32.8393  -42.1442 H         1 UNK         0.0787 
    105 H105       24.3592  -30.6732  -39.9087 H         1 UNK         0.3055 
    106 H106       23.1908  -29.3507  -38.6017 H         1 UNK         0.1106 
    107 H107       23.2192  -31.6193  -36.5382 H         1 UNK         0.0828 
    108 H108       24.4994  -30.4292  -36.7686 H         1 UNK         0.0828 
    109 H109       22.9131  -29.9210  -36.2126 H         1 UNK         0.0828 
    110 H110       21.7045  -30.1805  -40.5292 H         1 UNK         0.2931 
    111 H111       19.1968  -31.3985  -39.7446 H         1 UNK         0.0412 
    112 H112       20.2322  -28.2586  -38.9723 H         1 UNK         0.3472 
    113 H113       18.6583  -27.5069  -38.9700 H         1 UNK         0.3472 
    114 H114       18.4852  -30.8193  -42.0851 H         1 UNK         0.0970 
    115 H115       19.9913  -29.9715  -42.3269 H         1 UNK         0.0970 
    116 H116       21.9566  -31.1868  -43.5106 H         1 UNK         0.0612 
    117 H117       21.6939  -32.7759  -44.1901 H         1 UNK         0.0612 
@<TRIPOS>BOND
     1    1    2 1    
     2    1   62 1    
     3    1   63 1    
     4    1   64 1    
     5    2    3 2    
     6    2    4 am   BACKBONE|DICT|INTERRES
     7    4    5 1    
     8    4   65 1    
     9    5    6 1    
    10    5   25 1    
    11    5   66 1    
    12    6    7 1    
    13    6   67 1    
    14    6   68 1    
    15    7    8 1    
    16    8    9 1    
    17    8   69 1    
    18    8   70 1    
    19    9   10 ar   
    20    9   14 ar   
    21   10   11 ar   
    22   10   71 1    
    23   11   12 ar   
    24   11   61 1    
    25   12   13 ar   
    26   12   72 1    
    27   13   14 ar   
    28   13   15 1    
    29   14   73 1    
    30   15   16 1    
    31   15   74 1    
    32   15   75 1    
    33   16   17 1    
    34   17   18 1    
    35   17   76 1    
    36   17   77 1    
    37   18   19 1    
    38   18   27 1    
    39   18   78 1    
    40   19   20 am   BACKBONE|DICT|INTERRES
    41   19   79 1    
    42   20   21 2    
    43   20   22 1    
    44   22   23 1    
    45   22   24 1    
    46   22   80 1    
    47   23   81 1    
    48   23   82 1    
    49   23   83 1    
    50   24   25 am   BACKBONE|DICT|INTERRES
    51   24   84 1    
    52   25   26 2    
    53   27   28 2    
    54   27   29 am   BACKBONE|DICT|INTERRES
    55   29   30 1    
    56   29   85 1    
    57   30   31 1    
    58   30   32 1    
    59   30   86 1    
    60   31   87 1    
    61   31   88 1    
    62   31   89 1    
    63   32   33 2    
    64   32   34 am   BACKBONE|DICT|INTERRES
    65   34   35 1    
    66   34   90 1    
    67   35   36 1    
    68   35   37 1    
    69   35   91 1    
    70   36   92 1    
    71   36   93 1    
    72   36   94 1    
    73   37   38 2    
    74   37   39 am   BACKBONE|DICT|INTERRES
    75   39   40 1    
    76   39   95 1    
    77   40   41 1    
    78   40   42 1    
    79   40   96 1    
    80   41   97 1    
    81   41   98 1    
    82   41   99 1    
    83   42   43 2    
    84   42   44 am   BACKBONE|DICT|INTERRES
    85   44   45 1    
    86   44  100 1    
    87   45   46 1    
    88   45   47 1    
    89   45  101 1    
    90   46  102 1    
    91   46  103 1    
    92   46  104 1    
    93   47   48 2    
    94   47   49 am   BACKBONE|DICT|INTERRES
    95   49   50 1    
    96   49  105 1    
    97   50   51 1    
    98   50   52 1    
    99   50  106 1    
   100   51  107 1    
   101   51  108 1    
   102   51  109 1    
   103   52   53 2    
   104   52   54 am   BACKBONE|DICT|INTERRES
   105   54   55 1    
   106   54  110 1    
   107   55   56 1    
   108   55   59 1    
   109   55  111 1    
   110   56   57 am   BACKBONE|DICT|INTERRES
   111   56   58 2    
   112   57  112 1    
   113   57  113 1    
   114   59   60 1    
   115   59  114 1    
   116   59  115 1    
   117   60   61 1    
   118   61  116 1    
   119   61  117 1    
@<TRIPOS>SUBSTRUCTURE
     1 UNK         1 GROUP             0       ****    0 ROOT    
