@<TRIPOS>MOLECULE
3R8
117   119    1
SMALL
USER_CHARGES


@<TRIPOS>ATOM
      1 CA         18.4788  -26.7831  -49.1960 C.3       0 UNK        -0.2013 
      2 C          18.5577  -27.1747  -47.7285 C.2       0 UNK         0.4866 
      3 O          19.5152  -27.8319  -47.3183 O.2       0 UNK        -0.5176 
      4 N          17.5670  -26.7666  -46.9252 N.am      1 UNK        -0.4884 
      5 CA         17.4482  -27.0641  -45.4907 C.3       1 UNK         0.0853 
      6 C6         15.9698  -27.0290  -45.0211 C.3       10 UNK        -0.0849 
      7 S7         15.0152  -28.3975  -45.7633 S.3       10 UNK        -0.2776 
      8 C8         14.7119  -29.4913  -44.3305 C.3       10 UNK         0.0316 
      9 C9         15.9720  -29.8178  -43.5332 C.ar      10 UNK        -0.0863 
     10 C10        17.0845  -30.3894  -44.1569 C.ar      10 UNK        -0.1009 
     11 C11        18.2460  -30.6583  -43.4282 C.ar      10 UNK        -0.0712 
     12 C12        18.2768  -30.3978  -42.0545 C.ar      10 UNK        -0.0894 
     13 C13        17.1635  -29.8443  -41.4111 C.ar      10 UNK        -0.0745 
     14 C14        16.0197  -29.5508  -42.1611 C.ar      10 UNK        -0.0972 
     15 C15        17.1511  -29.5925  -39.9038 C.3       10 UNK         0.0209 
     16 S16        18.6962  -28.8955  -39.2274 S.3       10 UNK        -0.2568 
     17 C17        18.8503  -27.3189  -40.1297 C.3       10 UNK        -0.0983 
     18 CA         20.2399  -27.1739  -40.8044 C.3       3 UNK         0.0876 
     19 N          20.1440  -26.4144  -42.0559 N.am      3 UNK        -0.4424 
     20 C          21.1305  -26.2266  -42.9412 C.2       2 UNK         0.4918 
     21 O          22.2881  -26.6080  -42.7605 O.2       2 UNK        -0.4875 
     22 CA         20.7465  -25.4884  -44.2385 C.3       2 UNK         0.0481 
     23 CB         21.9414  -25.3070  -45.1916 C.3       2 UNK        -0.1831 
     24 N          19.6745  -26.1857  -44.9512 N.am      2 UNK        -0.4498 
     25 C          18.3727  -26.1686  -44.6380 C.2       1 UNK         0.5027 
     26 O          17.9153  -25.4988  -43.7090 O.2       1 UNK        -0.4969 
     27 C          21.2911  -26.6046  -39.8247 C.2       3 UNK         0.5005 
     28 O          21.9166  -27.3654  -39.0874 O.2       3 UNK        -0.5279 
     29 N          21.4944  -25.2792  -39.8582 N.am      4 UNK        -0.4463 
     30 CA         22.5223  -24.5777  -39.0856 C.3       4 UNK         0.0283 
     31 CB         22.2335  -23.0681  -39.1141 C.3       4 UNK        -0.1875 
     32 C          23.9564  -24.8573  -39.5748 C.2       4 UNK         0.4949 
     33 O          24.8885  -24.7453  -38.7782 O.2       4 UNK        -0.5039 
     34 N          24.1146  -25.1984  -40.8617 N.am      5 UNK        -0.4663 
     35 CA         25.4026  -25.5203  -41.4773 C.3       5 UNK         0.0242 
     36 CB         25.4219  -25.0143  -42.9293 C.3       5 UNK        -0.1982 
     37 C          25.6861  -27.0278  -41.4290 C.2       5 UNK         0.5017 
     38 O          26.8122  -27.4156  -41.1149 O.2       5 UNK        -0.5012 
     39 N          24.6735  -27.8468  -41.7409 N.am      6 UNK        -0.4439 
     40 CA         24.7685  -29.3012  -41.7961 C.3       6 UNK         0.0297 
     41 CB         25.2098  -29.7420  -43.2057 C.3       6 UNK        -0.2006 
     42 C          23.4208  -29.9082  -41.3982 C.2       6 UNK         0.4892 
     43 O          22.5792  -30.1510  -42.2633 O.2       6 UNK        -0.5089 
     44 N          23.2441  -30.1692  -40.0965 N.am      7 UNK        -0.4243 
     45 CA         22.0510  -30.8161  -39.5344 C.3       7 UNK         0.0196 
     46 CB         22.1096  -30.7572  -37.9999 C.3       7 UNK        -0.2007 
     47 C          21.8520  -32.2667  -40.0107 C.2       7 UNK         0.5020 
     48 O          20.7162  -32.7342  -40.0765 O.2       7 UNK        -0.5147 
     49 N          22.9576  -32.9410  -40.3557 N.am      8 UNK        -0.4734 
     50 CA         22.9769  -34.2774  -40.9573 C.3       8 UNK         0.0238 
     51 CB         24.3355  -34.9330  -40.6540 C.3       8 UNK        -0.1912 
     52 C          22.7037  -34.2705  -42.4754 C.2       8 UNK         0.5038 
     53 O          22.6163  -35.3486  -43.0645 O.2       8 UNK        -0.5046 
     54 N          22.5962  -33.0789  -43.0819 N.am      9 UNK        -0.4200 
     55 CA         22.3508  -32.8381  -44.5140 C.3       9 UNK         0.0839 
     56 C          23.5397  -33.2026  -45.4533 C.2       9 UNK         0.5513 
     57 N          24.7420  -33.4395  -44.9420 N.am      9 UNK        -0.7519 
     58 O          23.3804  -33.2409  -46.6708 O.2       9 UNK        -0.4960 
     59 C59        20.9932  -33.4111  -45.0231 C.3       10 UNK        -0.0876 
     60 S60        19.5536  -33.0235  -43.9670 S.3       10 UNK        -0.2414 
     61 C61        19.4721  -31.2167  -44.1289 C.3       10 UNK         0.0169 
     62 H62        19.3456  -26.1828  -49.4710 H         1 UNK         0.0903 
     63 H63        18.4698  -27.6754  -49.8213 H         1 UNK         0.0903 
     64 H64        17.5814  -26.2054  -49.4167 H         1 UNK         0.0903 
     65 H65        16.8142  -26.2163  -47.3142 H         1 UNK         0.3096 
     66 H66        17.8178  -28.0778  -45.3295 H         1 UNK         0.1121 
     67 H67        15.5014  -26.0809  -45.2909 H         1 UNK         0.0849 
     68 H68        15.8956  -27.0978  -43.9342 H         1 UNK         0.0849 
     69 H69        13.9623  -29.0211  -43.6919 H         1 UNK         0.0865 
     70 H70        14.2675  -30.4221  -44.6854 H         1 UNK         0.0865 
     71 H71        17.0536  -30.6009  -45.2173 H         1 UNK         0.1346 
     72 H72        19.1680  -30.6336  -41.4886 H         1 UNK         0.1412 
     73 H73        15.1559  -29.1228  -41.6703 H         1 UNK         0.1426 
     74 H74        16.9511  -30.5389  -39.4001 H         1 UNK         0.0716 
     75 H75        16.3328  -28.9229  -39.6343 H         1 UNK         0.0716 
     76 H76        18.6401  -26.4922  -39.4482 H         1 UNK         0.0695 
     77 H77        18.0602  -27.2801  -40.8812 H         1 UNK         0.0695 
     78 H78        20.5923  -28.1656  -41.0980 H         1 UNK         0.0983 
     79 H79        19.2255  -26.0636  -42.3083 H         1 UNK         0.3095 
     80 H80        20.3923  -24.4948  -43.9571 H         1 UNK         0.0454 
     81 H81        22.3752  -26.2642  -45.4842 H         1 UNK         0.0851 
     82 H82        22.7294  -24.7189  -44.7206 H         1 UNK         0.0851 
     83 H83        21.6487  -24.7802  -46.0999 H         1 UNK         0.0851 
     84 H84        19.9502  -26.7809  -45.7280 H         1 UNK         0.2976 
     85 H85        20.9311  -24.7237  -40.4859 H         1 UNK         0.3116 
     86 H86        22.4575  -24.9167  -38.0493 H         1 UNK         0.0646 
     87 H87        22.2721  -22.6669  -40.1276 H         1 UNK         0.0847 
     88 H88        22.9666  -22.5203  -38.5201 H         1 UNK         0.0847 
     89 H89        21.2512  -22.8425  -38.6988 H         1 UNK         0.0847 
     90 H90        23.2929  -25.3322  -41.4376 H         1 UNK         0.3040 
     91 H91        26.2051  -25.0118  -40.9376 H         1 UNK         0.1015 
     92 H92        24.6819  -25.5225  -43.5478 H         1 UNK         0.0786 
     93 H93        26.3973  -25.1864  -43.3862 H         1 UNK         0.0786 
     94 H94        25.2249  -23.9433  -42.9799 H         1 UNK         0.0786 
     95 H95        23.7749  -27.4481  -42.0090 H         1 UNK         0.3172 
     96 H96        25.5145  -29.6530  -41.0800 H         1 UNK         0.0595 
     97 H97        25.2415  -30.8292  -43.2847 H         1 UNK         0.0839 
     98 H98        26.2067  -29.3707  -43.4433 H         1 UNK         0.0839 
     99 H99        24.5266  -29.3783  -43.9746 H         1 UNK         0.0839 
    100 H100       23.9657  -29.9012  -39.4423 H         1 UNK         0.2998 
    101 H101       21.1830  -30.2465  -39.8673 H         1 UNK         0.0822 
    102 H102       22.1608  -29.7275  -37.6455 H         1 UNK         0.0787 
    103 H103       21.2163  -31.2031  -37.5599 H         1 UNK         0.0787 
    104 H104       22.9729  -31.2945  -37.6057 H         1 UNK         0.0787 
    105 H105       23.8486  -32.4784  -40.2473 H         1 UNK         0.3055 
    106 H106       22.1931  -34.8831  -40.4963 H         1 UNK         0.1106 
    107 H107       24.3765  -35.9502  -41.0463 H         1 UNK         0.0828 
    108 H108       25.1622  -34.3790  -41.1003 H         1 UNK         0.0828 
    109 H109       24.5142  -34.9975  -39.5804 H         1 UNK         0.0828 
    110 H110       22.6567  -32.2391  -42.5194 H         1 UNK         0.2931 
    111 H111       22.2864  -31.7534  -44.5969 H         1 UNK         0.0412 
    112 H112       25.5055  -33.6639  -45.5608 H         1 UNK         0.3472 
    113 H113       24.8883  -33.4156  -43.9465 H         1 UNK         0.3472 
    114 H114       21.0551  -34.4969  -45.1124 H         1 UNK         0.0970 
    115 H115       20.7803  -33.0436  -46.0286 H         1 UNK         0.0970 
    116 H116       20.3681  -30.7690  -43.6981 H         1 UNK         0.0612 
    117 H117       19.4642  -30.9437  -45.1854 H         1 UNK         0.0612 
@<TRIPOS>BOND
     1    1    2 1    
     2    1   62 1    
     3    1   63 1    
     4    1   64 1    
     5    2    3 2    
     6    2    4 am   BACKBONE|DICT|INTERRES
     7    4    5 1    
     8    4   65 1    
     9    5    6 1    
    10    5   25 1    
    11    5   66 1    
    12    6    7 1    
    13    6   67 1    
    14    6   68 1    
    15    7    8 1    
    16    8    9 1    
    17    8   69 1    
    18    8   70 1    
    19    9   10 ar   
    20    9   14 ar   
    21   10   11 ar   
    22   10   71 1    
    23   11   12 ar   
    24   11   61 1    
    25   12   13 ar   
    26   12   72 1    
    27   13   14 ar   
    28   13   15 1    
    29   14   73 1    
    30   15   16 1    
    31   15   74 1    
    32   15   75 1    
    33   16   17 1    
    34   17   18 1    
    35   17   76 1    
    36   17   77 1    
    37   18   19 1    
    38   18   27 1    
    39   18   78 1    
    40   19   20 am   BACKBONE|DICT|INTERRES
    41   19   79 1    
    42   20   21 2    
    43   20   22 1    
    44   22   23 1    
    45   22   24 1    
    46   22   80 1    
    47   23   81 1    
    48   23   82 1    
    49   23   83 1    
    50   24   25 am   BACKBONE|DICT|INTERRES
    51   24   84 1    
    52   25   26 2    
    53   27   28 2    
    54   27   29 am   BACKBONE|DICT|INTERRES
    55   29   30 1    
    56   29   85 1    
    57   30   31 1    
    58   30   32 1    
    59   30   86 1    
    60   31   87 1    
    61   31   88 1    
    62   31   89 1    
    63   32   33 2    
    64   32   34 am   BACKBONE|DICT|INTERRES
    65   34   35 1    
    66   34   90 1    
    67   35   36 1    
    68   35   37 1    
    69   35   91 1    
    70   36   92 1    
    71   36   93 1    
    72   36   94 1    
    73   37   38 2    
    74   37   39 am   BACKBONE|DICT|INTERRES
    75   39   40 1    
    76   39   95 1    
    77   40   41 1    
    78   40   42 1    
    79   40   96 1    
    80   41   97 1    
    81   41   98 1    
    82   41   99 1    
    83   42   43 2    
    84   42   44 am   BACKBONE|DICT|INTERRES
    85   44   45 1    
    86   44  100 1    
    87   45   46 1    
    88   45   47 1    
    89   45  101 1    
    90   46  102 1    
    91   46  103 1    
    92   46  104 1    
    93   47   48 2    
    94   47   49 am   BACKBONE|DICT|INTERRES
    95   49   50 1    
    96   49  105 1    
    97   50   51 1    
    98   50   52 1    
    99   50  106 1    
   100   51  107 1    
   101   51  108 1    
   102   51  109 1    
   103   52   53 2    
   104   52   54 am   BACKBONE|DICT|INTERRES
   105   54   55 1    
   106   54  110 1    
   107   55   56 1    
   108   55   59 1    
   109   55  111 1    
   110   56   57 am   BACKBONE|DICT|INTERRES
   111   56   58 2    
   112   57  112 1    
   113   57  113 1    
   114   59   60 1    
   115   59  114 1    
   116   59  115 1    
   117   60   61 1    
   118   61  116 1    
   119   61  117 1    
@<TRIPOS>SUBSTRUCTURE
     1 UNK         1 GROUP             0       ****    0 ROOT    
