@<TRIPOS>MOLECULE
3R8
117   119    1
SMALL
USER_CHARGES


@<TRIPOS>ATOM
      1 CA         17.3967  -24.5822  -39.5961 C.3       0 UNK        -0.2013 
      2 C          16.8774  -24.8772  -40.9955 C.2       0 UNK         0.4866 
      3 O          16.0712  -24.1101  -41.5236 O.2       0 UNK        -0.5176 
      4 N          17.3267  -25.9862  -41.5967 N.am      1 UNK        -0.4884 
      5 CA         16.9981  -26.3798  -42.9710 C.3       1 UNK         0.0853 
      6 C6         17.2498  -27.8915  -43.1875 C.3       10 UNK        -0.0849 
      7 S7         16.2358  -28.5781  -44.5413 S.3       10 UNK        -0.2776 
      8 C8         16.6676  -30.3454  -44.4489 C.3       10 UNK         0.0316 
      9 C9         18.1553  -30.5669  -44.6731 C.ar      10 UNK        -0.0863 
     10 C10        18.9879  -30.8976  -43.6005 C.ar      10 UNK        -0.1009 
     11 C11        20.3617  -31.0640  -43.7940 C.ar      10 UNK        -0.0712 
     12 C12        20.9037  -30.8858  -45.0704 C.ar      10 UNK        -0.0894 
     13 C13        20.0802  -30.5482  -46.1497 C.ar      10 UNK        -0.0745 
     14 C14        18.7044  -30.4076  -45.9479 C.ar      10 UNK        -0.0972 
     15 C15        20.6772  -30.3087  -47.5294 C.3       10 UNK         0.0209 
     16 S16        20.4837  -28.5776  -48.0696 S.3       10 UNK        -0.2568 
     17 C17        21.4613  -27.6901  -46.8112 C.3       10 UNK        -0.0983 
     18 CA         21.1643  -26.1708  -46.7914 C.3       3 UNK         0.0876 
     19 N          19.7490  -25.8855  -46.5248 N.am      3 UNK        -0.4424 
     20 C          19.1663  -24.6960  -46.7255 C.2       2 UNK         0.4918 
     21 O          19.7478  -23.7258  -47.2123 O.2       2 UNK        -0.4875 
     22 CA         17.6910  -24.5452  -46.3076 C.3       2 UNK         0.0481 
     23 CB         16.7755  -24.7491  -47.5253 C.3       2 UNK        -0.1831 
     24 N          17.2356  -25.4175  -45.2165 N.am      2 UNK        -0.4498 
     25 C          17.7719  -25.5138  -43.9910 C.2       1 UNK         0.5027 
     26 O          18.8346  -24.9784  -43.6633 O.2       1 UNK        -0.4969 
     27 C          22.1105  -25.4657  -45.7942 C.2       3 UNK         0.5005 
     28 O          23.2685  -25.2288  -46.1412 O.2       3 UNK        -0.5279 
     29 N          21.6173  -25.1674  -44.5784 N.am      4 UNK        -0.4463 
     30 CA         22.3274  -24.5489  -43.4488 C.3       4 UNK         0.0283 
     31 CB         22.6866  -23.0832  -43.7716 C.3       4 UNK        -0.1875 
     32 C          23.5423  -25.3570  -42.9410 C.2       4 UNK         0.4949 
     33 O          24.4453  -24.7832  -42.3296 O.2       4 UNK        -0.5039 
     34 N          23.5510  -26.6711  -43.1986 N.am      5 UNK        -0.4663 
     35 CA         24.6145  -27.5906  -42.8012 C.3       5 UNK         0.0242 
     36 CB         24.6113  -28.8000  -43.7513 C.3       5 UNK        -0.1982 
     37 C          24.4266  -28.0408  -41.3456 C.2       5 UNK         0.5017 
     38 O          23.3155  -28.4181  -40.9660 O.2       5 UNK        -0.5012 
     39 N          25.5183  -28.0245  -40.5717 N.am      6 UNK        -0.4439 
     40 CA         25.5769  -28.5487  -39.2088 C.3       6 UNK         0.0297 
     41 CB         26.6561  -27.7888  -38.4165 C.3       6 UNK        -0.2006 
     42 C          25.8685  -30.0544  -39.2749 C.2       6 UNK         0.4892 
     43 O          27.0238  -30.4439  -39.4575 O.2       6 UNK        -0.5089 
     44 N          24.8133  -30.8657  -39.1724 N.am      7 UNK        -0.4243 
     45 CA         24.8452  -32.3218  -39.2695 C.3       7 UNK         0.0196 
     46 CB         24.9585  -32.7408  -40.7489 C.3       7 UNK        -0.2007 
     47 C          23.5849  -32.8946  -38.6087 C.2       7 UNK         0.5020 
     48 O          22.6782  -32.1369  -38.2521 O.2       7 UNK        -0.5147 
     49 N          23.5393  -34.2273  -38.4720 N.am      8 UNK        -0.4734 
     50 CA         22.4560  -34.9873  -37.8281 C.3       8 UNK         0.0238 
     51 CB         22.8480  -36.4733  -37.7750 C.3       8 UNK        -0.1912 
     52 C          21.0662  -34.8222  -38.4744 C.2       8 UNK         0.5038 
     53 O          20.0606  -35.0560  -37.8027 O.2       8 UNK        -0.5046 
     54 N          21.0343  -34.4086  -39.7466 N.am      9 UNK        -0.4200 
     55 CA         19.8345  -33.9703  -40.4728 C.3       9 UNK         0.0839 
     56 C          19.1946  -32.6494  -39.9500 C.2       9 UNK         0.5513 
     57 N          19.8639  -31.8578  -39.1195 N.am      9 UNK        -0.7519 
     58 O          18.0592  -32.3427  -40.3030 O.2       9 UNK        -0.4960 
     59 C59        20.0698  -33.9354  -42.0099 C.3       10 UNK        -0.0876 
     60 S60        21.6531  -33.1778  -42.5306 S.3       10 UNK        -0.2414 
     61 C61        21.2651  -31.4015  -42.6183 C.3       10 UNK         0.0169 
     62 H62        18.0872  -25.3495  -39.2464 H         1 UNK         0.0903 
     63 H63        17.9188  -23.6258  -39.5845 H         1 UNK         0.0903 
     64 H64        16.5671  -24.5264  -38.8917 H         1 UNK         0.0903 
     65 H65        18.0157  -26.5574  -41.1285 H         1 UNK         0.3096 
     66 H66        15.9321  -26.1835  -43.1108 H         1 UNK         0.1121 
     67 H67        16.9901  -28.4481  -42.2851 H         1 UNK         0.0849 
     68 H68        18.3075  -28.0921  -43.3705 H         1 UNK         0.0849 
     69 H69        16.3550  -30.7449  -43.4826 H         1 UNK         0.0865 
     70 H70        16.1006  -30.8921  -45.2038 H         1 UNK         0.0865 
     71 H71        18.5681  -31.0124  -42.6106 H         1 UNK         0.1346 
     72 H72        21.9691  -30.9989  -45.2178 H         1 UNK         0.1412 
     73 H73        18.0655  -30.1364  -46.7776 H         1 UNK         0.1426 
     74 H74        20.1838  -30.9618  -48.2504 H         1 UNK         0.0716 
     75 H75        21.7360  -30.5717  -47.5492 H         1 UNK         0.0716 
     76 H76        21.2632  -28.1196  -45.8281 H         1 UNK         0.0695 
     77 H77        22.5168  -27.8756  -47.0213 H         1 UNK         0.0695 
     78 H78        21.4003  -25.7711  -47.7804 H         1 UNK         0.0983 
     79 H79        19.1948  -26.6444  -46.1565 H         1 UNK         0.3095 
     80 H80        17.5652  -23.5179  -45.9601 H         1 UNK         0.0454 
     81 H81        17.0663  -24.0946  -48.3484 H         1 UNK         0.0851 
     82 H82        16.8187  -25.7746  -47.8946 H         1 UNK         0.0851 
     83 H83        15.7368  -24.5202  -47.2867 H         1 UNK         0.0851 
     84 H84        16.3936  -25.9459  -45.3999 H         1 UNK         0.2976 
     85 H85        20.6322  -25.3489  -44.4047 H         1 UNK         0.3116 
     86 H86        21.6143  -24.5357  -42.6231 H         1 UNK         0.0646 
     87 H87        23.0746  -22.5702  -42.8908 H         1 UNK         0.0847 
     88 H88        21.8124  -22.5263  -44.1089 H         1 UNK         0.0847 
     89 H89        23.4485  -23.0154  -44.5486 H         1 UNK         0.0847 
     90 H90        22.7472  -27.0744  -43.6555 H         1 UNK         0.3040 
     91 H91        25.5766  -27.0820  -42.8996 H         1 UNK         0.1015 
     92 H92        24.8130  -28.4953  -44.7785 H         1 UNK         0.0786 
     93 H93        23.6538  -29.3205  -43.7409 H         1 UNK         0.0786 
     94 H94        25.3792  -29.5221  -43.4700 H         1 UNK         0.0786 
     95 H95        26.3987  -27.7374  -40.9758 H         1 UNK         0.3172 
     96 H96        24.6195  -28.3901  -38.7068 H         1 UNK         0.0595 
     97 H97        26.7333  -28.1738  -37.3988 H         1 UNK         0.0839 
     98 H98        26.4189  -26.7272  -38.3434 H         1 UNK         0.0839 
     99 H99        27.6421  -27.8800  -38.8741 H         1 UNK         0.0839 
    100 H100       23.8918  -30.4813  -38.9976 H         1 UNK         0.2998 
    101 H101       25.7078  -32.6980  -38.7153 H         1 UNK         0.0822 
    102 H102       25.9140  -32.4330  -41.1739 H         1 UNK         0.0787 
    103 H103       24.8886  -33.8218  -40.8737 H         1 UNK         0.0787 
    104 H104       24.1720  -32.2866  -41.3509 H         1 UNK         0.0787 
    105 H105       24.3264  -34.7687  -38.8016 H         1 UNK         0.3055 
    106 H106       22.3675  -34.6199  -36.8032 H         1 UNK         0.1106 
    107 H107       22.9815  -36.8915  -38.7734 H         1 UNK         0.0828 
    108 H108       23.7745  -36.6216  -37.2200 H         1 UNK         0.0828 
    109 H109       22.0780  -37.0635  -37.2756 H         1 UNK         0.0828 
    110 H110       21.9109  -34.2355  -40.2158 H         1 UNK         0.2931 
    111 H111       19.0755  -34.7348  -40.2951 H         1 UNK         0.0412 
    112 H112       19.4260  -31.0139  -38.7874 H         1 UNK         0.3472 
    113 H113       20.8111  -32.0793  -38.8287 H         1 UNK         0.3472 
    114 H114       19.2362  -33.4687  -42.5362 H         1 UNK         0.0970 
    115 H115       20.0866  -34.9624  -42.3772 H         1 UNK         0.0970 
    116 H116       22.2017  -30.8516  -42.7105 H         1 UNK         0.0612 
    117 H117       20.8221  -31.0661  -41.6812 H         1 UNK         0.0612 
@<TRIPOS>BOND
     1    1    2 1    
     2    1   62 1    
     3    1   63 1    
     4    1   64 1    
     5    2    3 2    
     6    2    4 am   BACKBONE|DICT|INTERRES
     7    4    5 1    
     8    4   65 1    
     9    5    6 1    
    10    5   25 1    
    11    5   66 1    
    12    6    7 1    
    13    6   67 1    
    14    6   68 1    
    15    7    8 1    
    16    8    9 1    
    17    8   69 1    
    18    8   70 1    
    19    9   10 ar   
    20    9   14 ar   
    21   10   11 ar   
    22   10   71 1    
    23   11   12 ar   
    24   11   61 1    
    25   12   13 ar   
    26   12   72 1    
    27   13   14 ar   
    28   13   15 1    
    29   14   73 1    
    30   15   16 1    
    31   15   74 1    
    32   15   75 1    
    33   16   17 1    
    34   17   18 1    
    35   17   76 1    
    36   17   77 1    
    37   18   19 1    
    38   18   27 1    
    39   18   78 1    
    40   19   20 am   BACKBONE|DICT|INTERRES
    41   19   79 1    
    42   20   21 2    
    43   20   22 1    
    44   22   23 1    
    45   22   24 1    
    46   22   80 1    
    47   23   81 1    
    48   23   82 1    
    49   23   83 1    
    50   24   25 am   BACKBONE|DICT|INTERRES
    51   24   84 1    
    52   25   26 2    
    53   27   28 2    
    54   27   29 am   BACKBONE|DICT|INTERRES
    55   29   30 1    
    56   29   85 1    
    57   30   31 1    
    58   30   32 1    
    59   30   86 1    
    60   31   87 1    
    61   31   88 1    
    62   31   89 1    
    63   32   33 2    
    64   32   34 am   BACKBONE|DICT|INTERRES
    65   34   35 1    
    66   34   90 1    
    67   35   36 1    
    68   35   37 1    
    69   35   91 1    
    70   36   92 1    
    71   36   93 1    
    72   36   94 1    
    73   37   38 2    
    74   37   39 am   BACKBONE|DICT|INTERRES
    75   39   40 1    
    76   39   95 1    
    77   40   41 1    
    78   40   42 1    
    79   40   96 1    
    80   41   97 1    
    81   41   98 1    
    82   41   99 1    
    83   42   43 2    
    84   42   44 am   BACKBONE|DICT|INTERRES
    85   44   45 1    
    86   44  100 1    
    87   45   46 1    
    88   45   47 1    
    89   45  101 1    
    90   46  102 1    
    91   46  103 1    
    92   46  104 1    
    93   47   48 2    
    94   47   49 am   BACKBONE|DICT|INTERRES
    95   49   50 1    
    96   49  105 1    
    97   50   51 1    
    98   50   52 1    
    99   50  106 1    
   100   51  107 1    
   101   51  108 1    
   102   51  109 1    
   103   52   53 2    
   104   52   54 am   BACKBONE|DICT|INTERRES
   105   54   55 1    
   106   54  110 1    
   107   55   56 1    
   108   55   59 1    
   109   55  111 1    
   110   56   57 am   BACKBONE|DICT|INTERRES
   111   56   58 2    
   112   57  112 1    
   113   57  113 1    
   114   59   60 1    
   115   59  114 1    
   116   59  115 1    
   117   60   61 1    
   118   61  116 1    
   119   61  117 1    
@<TRIPOS>SUBSTRUCTURE
     1 UNK         1 GROUP             0       ****    0 ROOT    
