@<TRIPOS>MOLECULE
3R8
117   119    1
SMALL
USER_CHARGES


@<TRIPOS>ATOM
      1 CA         20.5710  -24.5068  -49.9276 C.3       0 UNK        -0.2013 
      2 C          21.1544  -24.9435  -48.5921 C.2       0 UNK         0.4866 
      3 O          22.2308  -24.4804  -48.2145 O.2       0 UNK        -0.5176 
      4 N          20.4542  -25.8351  -47.8781 N.am      1 UNK        -0.4884 
      5 CA         20.8582  -26.3726  -46.5726 C.3       1 UNK         0.0853 
      6 C6         19.9373  -27.5355  -46.1253 C.3       10 UNK        -0.0849 
      7 S7         20.1328  -29.0431  -47.1241 S.3       10 UNK        -0.2776 
      8 C8         18.5764  -29.9221  -46.7450 C.3       10 UNK         0.0316 
      9 C9         18.2863  -30.0079  -45.2486 C.ar      10 UNK        -0.0863 
     10 C10        19.1501  -30.7071  -44.3992 C.ar      10 UNK        -0.1009 
     11 C11        18.8921  -30.7753  -43.0273 C.ar      10 UNK        -0.0712 
     12 C12        17.7479  -30.1627  -42.5093 C.ar      10 UNK        -0.0894 
     13 C13        16.8743  -29.4573  -43.3446 C.ar      10 UNK        -0.0745 
     14 C14        17.1525  -29.3840  -44.7139 C.ar      10 UNK        -0.0972 
     15 C15        15.6192  -28.7938  -42.7806 C.3       10 UNK         0.0209 
     16 S16        15.9273  -27.7955  -41.2814 S.3       10 UNK        -0.2568 
     17 C17        16.7209  -26.2912  -41.9488 C.3       10 UNK        -0.0983 
     18 CA         18.2559  -26.4295  -42.1539 C.3       3 UNK         0.0876 
     19 N          18.7631  -25.5284  -43.1873 N.am      3 UNK        -0.4424 
     20 C          18.8800  -24.1948  -43.1393 C.2       2 UNK         0.4918 
     21 O          18.5211  -23.5095  -42.1809 O.2       2 UNK        -0.4875 
     22 CA         19.4529  -23.4977  -44.3973 C.3       2 UNK         0.0481 
     23 CB         20.5830  -22.5088  -44.0439 C.3       2 UNK        -0.1831 
     24 N          19.8539  -24.4263  -45.4707 N.am      2 UNK        -0.4498 
     25 C          20.8706  -25.3053  -45.4605 C.2       1 UNK         0.5027 
     26 O          21.7329  -25.3580  -44.5851 O.2       1 UNK        -0.4969 
     27 C          19.1216  -26.4130  -40.8715 C.2       3 UNK         0.5005 
     28 O          20.3342  -26.2048  -40.9624 O.2       3 UNK        -0.5279 
     29 N          18.5059  -26.7142  -39.7184 N.am      4 UNK        -0.4463 
     30 CA         19.1425  -27.1124  -38.4579 C.3       4 UNK         0.0283 
     31 CB         19.9976  -25.9729  -37.8558 C.3       4 UNK        -0.1875 
     32 C          19.8843  -28.4469  -38.6678 C.2       4 UNK         0.4949 
     33 O          19.2628  -29.3919  -39.1555 O.2       4 UNK        -0.5039 
     34 N          21.1779  -28.5153  -38.3276 N.am      5 UNK        -0.4663 
     35 CA         22.0312  -29.6668  -38.6380 C.3       5 UNK         0.0242 
     36 CB         23.2396  -29.6828  -37.6890 C.3       5 UNK        -0.1982 
     37 C          22.5046  -29.6714  -40.1020 C.2       5 UNK         0.5017 
     38 O          22.7430  -30.7477  -40.6527 O.2       5 UNK        -0.5012 
     39 N          22.6774  -28.4747  -40.6880 N.am      6 UNK        -0.4439 
     40 CA         23.1299  -28.1783  -42.0596 C.3       6 UNK         0.0297 
     41 CB         22.0367  -28.5715  -43.0711 C.3       6 UNK        -0.2006 
     42 C          24.4920  -28.7874  -42.4647 C.2       6 UNK         0.4892 
     43 O          24.8182  -28.7860  -43.6525 O.2       6 UNK        -0.5089 
     44 N          25.2379  -29.3307  -41.4891 N.am      7 UNK        -0.4243 
     45 CA         26.3980  -30.2185  -41.6420 C.3       7 UNK         0.0196 
     46 CB         27.6060  -29.4540  -42.2249 C.3       7 UNK        -0.2007 
     47 C          26.0682  -31.5120  -42.4236 C.2       7 UNK         0.5020 
     48 O          26.9506  -32.0625  -43.0846 O.2       7 UNK        -0.5147 
     49 N          24.8092  -31.9705  -42.3453 N.am      8 UNK        -0.4734 
     50 CA         24.2888  -33.1069  -43.1117 C.3       8 UNK         0.0238 
     51 CB         23.5280  -32.5886  -44.3449 C.3       8 UNK        -0.1912 
     52 C          23.3986  -34.0340  -42.2727 C.2       8 UNK         0.5038 
     53 O          23.4729  -35.2496  -42.4571 O.2       8 UNK        -0.5046 
     54 N          22.5849  -33.4668  -41.3724 N.am      9 UNK        -0.4200 
     55 CA         21.6969  -34.2154  -40.4662 C.3       9 UNK         0.0839 
     56 C          22.3892  -34.6527  -39.1423 C.2       9 UNK         0.5513 
     57 N          23.6224  -34.2451  -38.8648 N.am      9 UNK        -0.7519 
     58 O          21.7979  -35.3867  -38.3547 O.2       9 UNK        -0.4960 
     59 C59        20.3806  -33.4451  -40.1776 C.3       10 UNK        -0.0876 
     60 S60        19.3605  -33.1519  -41.6654 S.3       10 UNK        -0.2414 
     61 C61        19.8700  -31.4619  -42.0892 C.3       10 UNK         0.0169 
     62 H62        19.6211  -24.9976  -50.1388 H         1 UNK         0.0903 
     63 H63        20.4040  -23.4300  -49.9298 H         1 UNK         0.0903 
     64 H64        21.2626  -24.7460  -50.7350 H         1 UNK         0.0903 
     65 H65        19.5956  -26.2083  -48.2586 H         1 UNK         0.3096 
     66 H66        21.8801  -26.7491  -46.6636 H         1 UNK         0.1121 
     67 H67        20.1386  -27.8226  -45.0920 H         1 UNK         0.0849 
     68 H68        18.8904  -27.2261  -46.1536 H         1 UNK         0.0849 
     69 H69        17.7583  -29.4253  -47.2689 H         1 UNK         0.0865 
     70 H70        18.6308  -30.9310  -47.1565 H         1 UNK         0.0865 
     71 H71        20.0347  -31.1785  -44.8056 H         1 UNK         0.1346 
     72 H72        17.5497  -30.2212  -41.4472 H         1 UNK         0.1412 
     73 H73        16.4801  -28.8443  -45.3671 H         1 UNK         0.1426 
     74 H74        14.9044  -29.5784  -42.5295 H         1 UNK         0.0716 
     75 H75        15.1341  -28.1684  -43.5315 H         1 UNK         0.0716 
     76 H76        16.2368  -26.0626  -42.8997 H         1 UNK         0.0695 
     77 H77        16.4928  -25.4456  -41.2973 H         1 UNK         0.0695 
     78 H78        18.4416  -27.4170  -42.5731 H         1 UNK         0.0983 
     79 H79        19.1230  -25.9818  -44.0101 H         1 UNK         0.3095 
     80 H80        18.6306  -22.9132  -44.8121 H         1 UNK         0.0454 
     81 H81        20.2162  -21.7182  -43.3884 H         1 UNK         0.0851 
     82 H82        20.9852  -22.0284  -44.9357 H         1 UNK         0.0851 
     83 H83        21.4066  -22.9979  -43.5235 H         1 UNK         0.0851 
     84 H84        19.2197  -24.4698  -46.2573 H         1 UNK         0.2976 
     85 H85        17.5168  -26.9235  -39.7825 H         1 UNK         0.3116 
     86 H86        18.3326  -27.3208  -37.7574 H         1 UNK         0.0646 
     87 H87        20.8650  -25.7272  -38.4687 H         1 UNK         0.0847 
     88 H88        19.4083  -25.0625  -37.7465 H         1 UNK         0.0847 
     89 H89        20.3584  -26.2367  -36.8610 H         1 UNK         0.0847 
     90 H90        21.6166  -27.7089  -37.9063 H         1 UNK         0.3040 
     91 H91        21.4632  -30.5849  -38.4735 H         1 UNK         0.1015 
     92 H92        23.8784  -30.5453  -37.8860 H         1 UNK         0.0786 
     93 H93        22.9230  -29.7499  -36.6479 H         1 UNK         0.0786 
     94 H94        23.8547  -28.7884  -37.7954 H         1 UNK         0.0786 
     95 H95        22.4198  -27.6598  -40.1480 H         1 UNK         0.3172 
     96 H96        23.2506  -27.0951  -42.1077 H         1 UNK         0.0595 
     97 H97        21.9675  -29.6512  -43.1861 H         1 UNK         0.0839 
     98 H98        22.2585  -28.1594  -44.0558 H         1 UNK         0.0839 
     99 H99        21.0579  -28.1969  -42.7734 H         1 UNK         0.0839 
    100 H100       24.8700  -29.2607  -40.5514 H         1 UNK         0.2998 
    101 H101       26.6682  -30.5405  -40.6353 H         1 UNK         0.0822 
    102 H102       28.5074  -30.0676  -42.1984 H         1 UNK         0.0787 
    103 H103       27.8154  -28.5489  -41.6550 H         1 UNK         0.0787 
    104 H104       27.4409  -29.1662  -43.2636 H         1 UNK         0.0787 
    105 H105       24.1468  -31.4638  -41.7650 H         1 UNK         0.3055 
    106 H106       25.1194  -33.7233  -43.4634 H         1 UNK         0.1106 
    107 H107       24.1849  -32.0183  -45.0019 H         1 UNK         0.0828 
    108 H108       23.1202  -33.4138  -44.9304 H         1 UNK         0.0828 
    109 H109       22.6962  -31.9420  -44.0657 H         1 UNK         0.0828 
    110 H110       22.5956  -32.4598  -41.2386 H         1 UNK         0.2931 
    111 H111       21.4105  -35.1449  -40.9621 H         1 UNK         0.0412 
    112 H112       24.0595  -34.5419  -38.0063 H         1 UNK         0.3472 
    113 H113       24.1199  -33.6499  -39.5067 H         1 UNK         0.3472 
    114 H114       20.5904  -32.5001  -39.6753 H         1 UNK         0.0970 
    115 H115       19.7576  -34.0123  -39.4833 H         1 UNK         0.0970 
    116 H116       20.8613  -31.5062  -42.5367 H         1 UNK         0.0612 
    117 H117       19.9650  -30.8646  -41.1837 H         1 UNK         0.0612 
@<TRIPOS>BOND
     1    1    2 1    
     2    1   62 1    
     3    1   63 1    
     4    1   64 1    
     5    2    3 2    
     6    2    4 am   BACKBONE|DICT|INTERRES
     7    4    5 1    
     8    4   65 1    
     9    5    6 1    
    10    5   25 1    
    11    5   66 1    
    12    6    7 1    
    13    6   67 1    
    14    6   68 1    
    15    7    8 1    
    16    8    9 1    
    17    8   69 1    
    18    8   70 1    
    19    9   10 ar   
    20    9   14 ar   
    21   10   11 ar   
    22   10   71 1    
    23   11   12 ar   
    24   11   61 1    
    25   12   13 ar   
    26   12   72 1    
    27   13   14 ar   
    28   13   15 1    
    29   14   73 1    
    30   15   16 1    
    31   15   74 1    
    32   15   75 1    
    33   16   17 1    
    34   17   18 1    
    35   17   76 1    
    36   17   77 1    
    37   18   19 1    
    38   18   27 1    
    39   18   78 1    
    40   19   20 am   BACKBONE|DICT|INTERRES
    41   19   79 1    
    42   20   21 2    
    43   20   22 1    
    44   22   23 1    
    45   22   24 1    
    46   22   80 1    
    47   23   81 1    
    48   23   82 1    
    49   23   83 1    
    50   24   25 am   BACKBONE|DICT|INTERRES
    51   24   84 1    
    52   25   26 2    
    53   27   28 2    
    54   27   29 am   BACKBONE|DICT|INTERRES
    55   29   30 1    
    56   29   85 1    
    57   30   31 1    
    58   30   32 1    
    59   30   86 1    
    60   31   87 1    
    61   31   88 1    
    62   31   89 1    
    63   32   33 2    
    64   32   34 am   BACKBONE|DICT|INTERRES
    65   34   35 1    
    66   34   90 1    
    67   35   36 1    
    68   35   37 1    
    69   35   91 1    
    70   36   92 1    
    71   36   93 1    
    72   36   94 1    
    73   37   38 2    
    74   37   39 am   BACKBONE|DICT|INTERRES
    75   39   40 1    
    76   39   95 1    
    77   40   41 1    
    78   40   42 1    
    79   40   96 1    
    80   41   97 1    
    81   41   98 1    
    82   41   99 1    
    83   42   43 2    
    84   42   44 am   BACKBONE|DICT|INTERRES
    85   44   45 1    
    86   44  100 1    
    87   45   46 1    
    88   45   47 1    
    89   45  101 1    
    90   46  102 1    
    91   46  103 1    
    92   46  104 1    
    93   47   48 2    
    94   47   49 am   BACKBONE|DICT|INTERRES
    95   49   50 1    
    96   49  105 1    
    97   50   51 1    
    98   50   52 1    
    99   50  106 1    
   100   51  107 1    
   101   51  108 1    
   102   51  109 1    
   103   52   53 2    
   104   52   54 am   BACKBONE|DICT|INTERRES
   105   54   55 1    
   106   54  110 1    
   107   55   56 1    
   108   55   59 1    
   109   55  111 1    
   110   56   57 am   BACKBONE|DICT|INTERRES
   111   56   58 2    
   112   57  112 1    
   113   57  113 1    
   114   59   60 1    
   115   59  114 1    
   116   59  115 1    
   117   60   61 1    
   118   61  116 1    
   119   61  117 1    
@<TRIPOS>SUBSTRUCTURE
     1 UNK         1 GROUP             0       ****    0 ROOT    
