@<TRIPOS>MOLECULE
3R8
117   119    1
SMALL
USER_CHARGES


@<TRIPOS>ATOM
      1 CA         16.9212  -26.0339  -40.3782 C.3       0 UNK        -0.2013 
      2 C          16.8974  -25.6322  -41.8457 C.2       0 UNK         0.4866 
      3 O          17.1850  -24.4800  -42.1710 O.2       0 UNK        -0.5176 
      4 N          16.5521  -26.5724  -42.7334 N.am      1 UNK        -0.4884 
      5 CA         16.5798  -26.3996  -44.1904 C.3       1 UNK         0.0853 
      6 C6         15.6176  -27.4174  -44.8911 C.3       10 UNK        -0.0849 
      7 S7         16.0973  -28.0944  -46.5305 S.3       10 UNK        -0.2776 
      8 C8         16.3513  -29.8696  -46.1949 C.3       10 UNK         0.0316 
      9 C9         17.5687  -30.1625  -45.3227 C.ar      10 UNK        -0.0863 
     10 C10        17.4197  -30.2753  -43.9367 C.ar      10 UNK        -0.1009 
     11 C11        18.5018  -30.6270  -43.1266 C.ar      10 UNK        -0.0712 
     12 C12        19.7426  -30.8772  -43.7161 C.ar      10 UNK        -0.0894 
     13 C13        19.9127  -30.7731  -45.0997 C.ar      10 UNK        -0.0745 
     14 C14        18.8230  -30.4048  -45.8989 C.ar      10 UNK        -0.0972 
     15 C15        21.2499  -31.1609  -45.7236 C.3       10 UNK         0.0209 
     16 S16        22.2910  -29.7477  -46.2183 S.3       10 UNK        -0.2568 
     17 C17        22.6003  -28.8667  -44.6437 C.3       10 UNK        -0.0983 
     18 CA         22.4439  -27.3287  -44.7727 C.3       3 UNK         0.0876 
     19 N          21.2452  -26.9720  -45.5304 N.am      3 UNK        -0.4424 
     20 C          20.8565  -25.7527  -45.9192 C.2       2 UNK         0.4918 
     21 O          21.5084  -24.7233  -45.7434 O.2       2 UNK        -0.4875 
     22 CA         19.4985  -25.6853  -46.6392 C.3       2 UNK         0.0481 
     23 CB         19.3537  -26.8010  -47.6953 C.3       2 UNK        -0.1831 
     24 N          18.3182  -25.6777  -45.7612 N.am      2 UNK        -0.4498 
     25 C          18.0411  -26.4419  -44.6892 C.2       1 UNK         0.5027 
     26 O          18.8437  -27.1857  -44.1218 O.2       1 UNK        -0.4969 
     27 C          22.4710  -26.6488  -43.3862 C.2       3 UNK         0.5005 
     28 O          23.5481  -26.2805  -42.9159 O.2       3 UNK        -0.5279 
     29 N          21.2817  -26.4630  -42.7883 N.am      4 UNK        -0.4463 
     30 CA         20.9278  -25.6498  -41.6158 C.3       4 UNK         0.0283 
     31 CB         21.1895  -24.1576  -41.8895 C.3       4 UNK        -0.1875 
     32 C          21.5411  -26.0721  -40.2701 C.2       4 UNK         0.4949 
     33 O          20.8301  -26.0754  -39.2656 O.2       4 UNK        -0.5039 
     34 N          22.8290  -26.4200  -40.2624 N.am      5 UNK        -0.4663 
     35 CA         23.5972  -26.8503  -39.0943 C.3       5 UNK         0.0242 
     36 CB         24.0476  -25.6220  -38.2768 C.3       5 UNK        -0.1982 
     37 C          24.7705  -27.7450  -39.5280 C.2       5 UNK         0.5017 
     38 O          25.8437  -27.6856  -38.9253 O.2       5 UNK        -0.5012 
     39 N          24.5593  -28.5405  -40.5823 N.am      6 UNK        -0.4439 
     40 CA         25.5384  -29.4401  -41.1803 C.3       6 UNK         0.0297 
     41 CB         26.3374  -28.6850  -42.2578 C.3       6 UNK        -0.2006 
     42 C          24.8053  -30.6427  -41.7803 C.2       6 UNK         0.4892 
     43 O          23.5938  -30.5680  -42.0111 O.2       6 UNK        -0.5089 
     44 N          25.5613  -31.7223  -42.0274 N.am      7 UNK        -0.4243 
     45 CA         25.1078  -33.0039  -42.5794 C.3       7 UNK         0.0196 
     46 CB         24.7597  -32.8460  -44.0777 C.3       7 UNK        -0.2007 
     47 C          23.9815  -33.6088  -41.7192 C.2       7 UNK         0.5020 
     48 O          24.1862  -33.8049  -40.5201 O.2       7 UNK        -0.5147 
     49 N          22.8052  -33.8460  -42.3146 N.am      8 UNK        -0.4734 
     50 CA         21.5983  -34.3254  -41.6304 C.3       8 UNK         0.0238 
     51 CB         20.5231  -34.6523  -42.6804 C.3       8 UNK        -0.1912 
     52 C          21.0392  -33.3491  -40.5761 C.2       8 UNK         0.5038 
     53 O          20.3032  -33.7866  -39.6912 O.2       8 UNK        -0.5046 
     54 N          21.3913  -32.0618  -40.6889 N.am      9 UNK        -0.4200 
     55 CA         21.0551  -30.9980  -39.7337 C.3       9 UNK         0.0839 
     56 C          22.1617  -30.7914  -38.6547 C.2       9 UNK         0.5513 
     57 N          23.2475  -31.5577  -38.6387 N.am      9 UNK        -0.7519 
     58 O          22.0253  -29.9246  -37.7964 O.2       9 UNK        -0.4960 
     59 C59        20.6867  -29.6789  -40.4811 C.3       10 UNK        -0.0876 
     60 S60        18.8910  -29.3874  -40.6531 S.3       10 UNK        -0.2414 
     61 C61        18.3027  -30.8087  -41.6284 C.3       10 UNK         0.0169 
     62 H62        16.2299  -25.4144  -39.8076 H         1 UNK         0.0903 
     63 H63        16.6384  -27.0769  -40.2365 H         1 UNK         0.0903 
     64 H64        17.9207  -25.8980  -39.9655 H         1 UNK         0.0903 
     65 H65        16.3944  -27.5157  -42.4099 H         1 UNK         0.3096 
     66 H66        16.2032  -25.3972  -44.4081 H         1 UNK         0.1121 
     67 H67        14.6431  -26.9427  -45.0147 H         1 UNK         0.0849 
     68 H68        15.4162  -28.2617  -44.2335 H         1 UNK         0.0849 
     69 H69        15.4507  -30.2819  -45.7372 H         1 UNK         0.0865 
     70 H70        16.4587  -30.3873  -47.1493 H         1 UNK         0.0865 
     71 H71        16.4503  -30.1211  -43.4856 H         1 UNK         0.1346 
     72 H72        20.5741  -31.1830  -43.1003 H         1 UNK         0.1412 
     73 H73        18.9424  -30.3470  -46.9722 H         1 UNK         0.1426 
     74 H74        21.8150  -31.7921  -45.0381 H         1 UNK         0.0716 
     75 H75        21.0644  -31.7754  -46.6056 H         1 UNK         0.0716 
     76 H76        21.9305  -29.2550  -43.8771 H         1 UNK         0.0695 
     77 H77        23.6100  -29.1128  -44.3121 H         1 UNK         0.0695 
     78 H78        23.2973  -26.9456  -45.3359 H         1 UNK         0.0983 
     79 H79        20.6004  -27.7354  -45.6821 H         1 UNK         0.3095 
     80 H80        19.4826  -24.7337  -47.1727 H         1 UNK         0.0454 
     81 H81        19.2176  -27.7825  -47.2411 H         1 UNK         0.0851 
     82 H82        18.4939  -26.6199  -48.3403 H         1 UNK         0.0851 
     83 H83        20.2327  -26.8543  -48.3392 H         1 UNK         0.0851 
     84 H84        17.5723  -25.0822  -46.0923 H         1 UNK         0.2976 
     85 H85        20.4716  -26.8439  -43.2779 H         1 UNK         0.3116 
     86 H86        19.8503  -25.7739  -41.5099 H         1 UNK         0.0646 
     87 H87        22.2504  -23.9506  -42.0338 H         1 UNK         0.0847 
     88 H88        20.6579  -23.8215  -42.7801 H         1 UNK         0.0847 
     89 H89        20.8474  -23.5420  -41.0565 H         1 UNK         0.0847 
     90 H90        23.3304  -26.3726  -41.1509 H         1 UNK         0.3040 
     91 H91        22.9579  -27.4683  -38.4604 H         1 UNK         0.1015 
     92 H92        24.7065  -24.9756  -38.8576 H         1 UNK         0.0786 
     93 H93        24.5892  -25.9234  -37.3792 H         1 UNK         0.0786 
     94 H94        23.1958  -25.0256  -37.9499 H         1 UNK         0.0786 
     95 H95        23.6384  -28.5963  -40.9966 H         1 UNK         0.3172 
     96 H96        26.2171  -29.8088  -40.4082 H         1 UNK         0.0595 
     97 H97        27.0733  -29.3335  -42.7345 H         1 UNK         0.0839 
     98 H98        26.8800  -27.8420  -41.8297 H         1 UNK         0.0839 
     99 H99        25.6862  -28.2964  -43.0419 H         1 UNK         0.0839 
    100 H100       26.5376  -31.6856  -41.7689 H         1 UNK         0.2998 
    101 H101       25.9484  -33.6955  -42.5047 H         1 UNK         0.0822 
    102 H102       23.9620  -32.1218  -44.2405 H         1 UNK         0.0787 
    103 H103       25.6267  -32.4997  -44.6405 H         1 UNK         0.0787 
    104 H104       24.4549  -33.7945  -44.5217 H         1 UNK         0.0787 
    105 H105       22.7232  -33.6491  -43.3013 H         1 UNK         0.3055 
    106 H106       21.8578  -35.2468  -41.1040 H         1 UNK         0.1106 
    107 H107       20.8673  -35.4165  -43.3775 H         1 UNK         0.0828 
    108 H108       19.6181  -35.0352  -42.2064 H         1 UNK         0.0828 
    109 H109       20.2384  -33.7729  -43.2587 H         1 UNK         0.0828 
    110 H110       22.0691  -31.8015  -41.3970 H         1 UNK         0.2931 
    111 H111       20.1818  -31.3098  -39.1582 H         1 UNK         0.0412 
    112 H112       23.9370  -31.4102  -37.9193 H         1 UNK         0.3472 
    113 H113       23.3837  -32.2953  -39.3191 H         1 UNK         0.3472 
    114 H114       21.0610  -28.8123  -39.9386 H         1 UNK         0.0970 
    115 H115       21.1589  -29.6172  -41.4613 H         1 UNK         0.0970 
    116 H116       17.2412  -30.9385  -41.4135 H         1 UNK         0.0612 
    117 H117       18.7754  -31.7296  -41.2943 H         1 UNK         0.0612 
@<TRIPOS>BOND
     1    1    2 1    
     2    1   62 1    
     3    1   63 1    
     4    1   64 1    
     5    2    3 2    
     6    2    4 am   BACKBONE|DICT|INTERRES
     7    4    5 1    
     8    4   65 1    
     9    5    6 1    
    10    5   25 1    
    11    5   66 1    
    12    6    7 1    
    13    6   67 1    
    14    6   68 1    
    15    7    8 1    
    16    8    9 1    
    17    8   69 1    
    18    8   70 1    
    19    9   10 ar   
    20    9   14 ar   
    21   10   11 ar   
    22   10   71 1    
    23   11   12 ar   
    24   11   61 1    
    25   12   13 ar   
    26   12   72 1    
    27   13   14 ar   
    28   13   15 1    
    29   14   73 1    
    30   15   16 1    
    31   15   74 1    
    32   15   75 1    
    33   16   17 1    
    34   17   18 1    
    35   17   76 1    
    36   17   77 1    
    37   18   19 1    
    38   18   27 1    
    39   18   78 1    
    40   19   20 am   BACKBONE|DICT|INTERRES
    41   19   79 1    
    42   20   21 2    
    43   20   22 1    
    44   22   23 1    
    45   22   24 1    
    46   22   80 1    
    47   23   81 1    
    48   23   82 1    
    49   23   83 1    
    50   24   25 am   BACKBONE|DICT|INTERRES
    51   24   84 1    
    52   25   26 2    
    53   27   28 2    
    54   27   29 am   BACKBONE|DICT|INTERRES
    55   29   30 1    
    56   29   85 1    
    57   30   31 1    
    58   30   32 1    
    59   30   86 1    
    60   31   87 1    
    61   31   88 1    
    62   31   89 1    
    63   32   33 2    
    64   32   34 am   BACKBONE|DICT|INTERRES
    65   34   35 1    
    66   34   90 1    
    67   35   36 1    
    68   35   37 1    
    69   35   91 1    
    70   36   92 1    
    71   36   93 1    
    72   36   94 1    
    73   37   38 2    
    74   37   39 am   BACKBONE|DICT|INTERRES
    75   39   40 1    
    76   39   95 1    
    77   40   41 1    
    78   40   42 1    
    79   40   96 1    
    80   41   97 1    
    81   41   98 1    
    82   41   99 1    
    83   42   43 2    
    84   42   44 am   BACKBONE|DICT|INTERRES
    85   44   45 1    
    86   44  100 1    
    87   45   46 1    
    88   45   47 1    
    89   45  101 1    
    90   46  102 1    
    91   46  103 1    
    92   46  104 1    
    93   47   48 2    
    94   47   49 am   BACKBONE|DICT|INTERRES
    95   49   50 1    
    96   49  105 1    
    97   50   51 1    
    98   50   52 1    
    99   50  106 1    
   100   51  107 1    
   101   51  108 1    
   102   51  109 1    
   103   52   53 2    
   104   52   54 am   BACKBONE|DICT|INTERRES
   105   54   55 1    
   106   54  110 1    
   107   55   56 1    
   108   55   59 1    
   109   55  111 1    
   110   56   57 am   BACKBONE|DICT|INTERRES
   111   56   58 2    
   112   57  112 1    
   113   57  113 1    
   114   59   60 1    
   115   59  114 1    
   116   59  115 1    
   117   60   61 1    
   118   61  116 1    
   119   61  117 1    
@<TRIPOS>SUBSTRUCTURE
     1 UNK         1 GROUP             0       ****    0 ROOT    
