@<TRIPOS>MOLECULE
3R8
117   119    1
SMALL
USER_CHARGES


@<TRIPOS>ATOM
      1 CA         11.6169  -27.4360  -41.7010 C.3       0 UNK        -0.2013 
      2 C          12.6682  -26.8946  -42.6585 C.2       0 UNK         0.4866 
      3 O          12.4481  -25.8611  -43.2908 O.2       0 UNK        -0.5176 
      4 N          13.8082  -27.5824  -42.7698 N.am      1 UNK        -0.4884 
      5 CA         14.9484  -27.2122  -43.6055 C.3       1 UNK         0.0853 
      6 C6         14.7494  -27.6557  -45.0763 C.3       10 UNK        -0.0849 
      7 S7         15.8028  -26.7248  -46.2382 S.3       10 UNK        -0.2776 
      8 C8         16.4699  -28.0603  -47.2801 C.3       10 UNK         0.0316 
      9 C9         17.7759  -28.6245  -46.7372 C.ar      10 UNK        -0.0863 
     10 C10        17.7911  -29.7903  -45.9652 C.ar      10 UNK        -0.1009 
     11 C11        19.0036  -30.3498  -45.5432 C.ar      10 UNK        -0.0712 
     12 C12        20.2079  -29.7224  -45.8830 C.ar      10 UNK        -0.0894 
     13 C13        20.2031  -28.5609  -46.6638 C.ar      10 UNK        -0.0745 
     14 C14        18.9852  -28.0135  -47.0765 C.ar      10 UNK        -0.0972 
     15 C15        21.5034  -27.9340  -47.1452 C.3       10 UNK         0.0209 
     16 S16        21.8569  -26.3511  -46.3207 S.3       10 UNK        -0.2568 
     17 C17        22.8150  -26.8895  -44.8708 C.3       10 UNK        -0.0983 
     18 CA         22.1927  -26.4241  -43.5315 C.3       3 UNK         0.0876 
     19 N          20.9884  -27.1704  -43.1838 N.am      3 UNK        -0.4424 
     20 C          19.7384  -26.7055  -43.2571 C.2       2 UNK         0.4918 
     21 O          19.4267  -25.6067  -43.7249 O.2       2 UNK        -0.4875 
     22 CA         18.6589  -27.6047  -42.6461 C.3       2 UNK         0.0481 
     23 CB         18.7176  -27.5395  -41.1059 C.3       2 UNK        -0.1831 
     24 N          17.3511  -27.1804  -43.1348 N.am      2 UNK        -0.4498 
     25 C          16.1998  -27.8401  -42.9723 C.2       1 UNK         0.5027 
     26 O          16.0886  -28.9011  -42.3511 O.2       1 UNK        -0.4969 
     27 C          23.1986  -26.6604  -42.3981 C.2       3 UNK         0.5005 
     28 O          23.3174  -27.7946  -41.9239 O.2       3 UNK        -0.5279 
     29 N          23.9663  -25.6224  -42.0409 N.am      4 UNK        -0.4463 
     30 CA         25.0686  -25.7028  -41.0733 C.3       4 UNK         0.0283 
     31 CB         25.5706  -24.2874  -40.7474 C.3       4 UNK        -0.1875 
     32 C          26.2332  -26.5893  -41.5524 C.2       4 UNK         0.4949 
     33 O          26.9323  -27.1688  -40.7225 O.2       4 UNK        -0.5039 
     34 N          26.4007  -26.6999  -42.8785 N.am      5 UNK        -0.4663 
     35 CA         27.3495  -27.6068  -43.5280 C.3       5 UNK         0.0242 
     36 CB         27.5129  -27.1955  -45.0001 C.3       5 UNK        -0.1982 
     37 C          26.9339  -29.0856  -43.4261 C.2       5 UNK         0.5017 
     38 O          27.8088  -29.9516  -43.4207 O.2       5 UNK        -0.5012 
     39 N          25.6206  -29.3488  -43.3465 N.am      6 UNK        -0.4439 
     40 CA         25.0612  -30.6818  -43.1165 C.3       6 UNK         0.0297 
     41 CB         23.6335  -30.7671  -43.6833 C.3       6 UNK        -0.2006 
     42 C          25.0867  -31.0327  -41.6220 C.2       6 UNK         0.4892 
     43 O          25.4608  -32.1533  -41.2754 O.2       6 UNK        -0.5089 
     44 N          24.6976  -30.0659  -40.7744 N.am      7 UNK        -0.4243 
     45 CA         24.7071  -30.0536  -39.3026 C.3       7 UNK         0.0196 
     46 CB         26.1363  -30.2196  -38.7505 C.3       7 UNK        -0.2007 
     47 C          23.7419  -31.0463  -38.6296 C.2       7 UNK         0.5020 
     48 O          23.0691  -30.6729  -37.6692 O.2       7 UNK        -0.5147 
     49 N          23.6816  -32.2831  -39.1348 N.am      8 UNK        -0.4734 
     50 CA         22.7873  -33.3468  -38.6703 C.3       8 UNK         0.0238 
     51 CB         23.3324  -34.7009  -39.1535 C.3       8 UNK        -0.1912 
     52 C          21.3315  -33.1571  -39.1319 C.2       8 UNK         0.5038 
     53 O          20.4315  -33.7374  -38.5233 O.2       8 UNK        -0.5046 
     54 N          21.1285  -32.3686  -40.1966 N.am      9 UNK        -0.4200 
     55 CA         19.8127  -31.9839  -40.7213 C.3       9 UNK         0.0839 
     56 C          19.0388  -31.0672  -39.7322 C.2       9 UNK         0.5513 
     57 N          17.7293  -31.2378  -39.6155 N.am      9 UNK        -0.7519 
     58 O          19.6128  -30.1861  -39.0966 O.2       9 UNK        -0.4960 
     59 C59        19.9424  -31.3420  -42.1293 C.3       10 UNK        -0.0876 
     60 S60        18.4026  -31.5279  -43.0922 S.3       10 UNK        -0.2414 
     61 C61        19.0043  -31.6815  -44.8028 C.3       10 UNK         0.0169 
     62 H62        11.9370  -28.3633  -41.2253 H         1 UNK         0.0903 
     63 H63        11.4112  -26.7063  -40.9180 H         1 UNK         0.0903 
     64 H64        10.6881  -27.6329  -42.2361 H         1 UNK         0.0903 
     65 H65        13.9781  -28.4074  -42.2049 H         1 UNK         0.3096 
     66 H66        15.0566  -26.1255  -43.5624 H         1 UNK         0.1121 
     67 H67        14.9030  -28.7314  -45.1832 H         1 UNK         0.0849 
     68 H68        13.7183  -27.4756  -45.3849 H         1 UNK         0.0849 
     69 H69        15.7289  -28.8516  -47.4044 H         1 UNK         0.0865 
     70 H70        16.6400  -27.6609  -48.2814 H         1 UNK         0.0865 
     71 H71        16.8615  -30.2842  -45.7169 H         1 UNK         0.1346 
     72 H72        21.1477  -30.1629  -45.5806 H         1 UNK         0.1412 
     73 H73        18.9822  -27.1229  -47.6908 H         1 UNK         0.1426 
     74 H74        22.3425  -28.6212  -47.0252 H         1 UNK         0.0716 
     75 H75        21.4253  -27.7495  -48.2179 H         1 UNK         0.0716 
     76 H76        22.9329  -27.9744  -44.8805 H         1 UNK         0.0695 
     77 H77        23.8176  -26.4765  -44.9979 H         1 UNK         0.0695 
     78 H78        21.9729  -25.3550  -43.5798 H         1 UNK         0.0983 
     79 H79        21.1712  -28.0473  -42.7167 H         1 UNK         0.3095 
     80 H80        18.8340  -28.6246  -42.9865 H         1 UNK         0.0454 
     81 H81        18.5041  -26.5353  -40.7389 H         1 UNK         0.0851 
     82 H82        18.0039  -28.2215  -40.6447 H         1 UNK         0.0851 
     83 H83        19.7034  -27.8193  -40.7328 H         1 UNK         0.0851 
     84 H84        17.3785  -26.3350  -43.6935 H         1 UNK         0.2976 
     85 H85        23.8133  -24.7242  -42.4778 H         1 UNK         0.3116 
     86 H86        24.6773  -26.1469  -40.1554 H         1 UNK         0.0646 
     87 H87        26.3754  -24.3202  -40.0115 H         1 UNK         0.0847 
     88 H88        24.7766  -23.6704  -40.3271 H         1 UNK         0.0847 
     89 H89        25.9595  -23.7807  -41.6314 H         1 UNK         0.0847 
     90 H90        25.8097  -26.1480  -43.4821 H         1 UNK         0.3040 
     91 H91        28.3171  -27.5036  -43.0315 H         1 UNK         0.1015 
     92 H92        27.8782  -26.1722  -45.0880 H         1 UNK         0.0786 
     93 H93        26.5728  -27.2659  -45.5484 H         1 UNK         0.0786 
     94 H94        28.2337  -27.8386  -45.5066 H         1 UNK         0.0786 
     95 H95        24.9796  -28.5707  -43.2960 H         1 UNK         0.3172 
     96 H96        25.6708  -31.4175  -43.6452 H         1 UNK         0.0595 
     97 H97        23.2305  -31.7732  -43.5619 H         1 UNK         0.0839 
     98 H98        23.6196  -30.5427  -44.7498 H         1 UNK         0.0839 
     99 H99        22.9480  -30.0809  -43.1872 H         1 UNK         0.0839 
    100 H100       24.3264  -29.2144  -41.1909 H         1 UNK         0.2998 
    101 H101       24.3659  -29.0547  -39.0247 H         1 UNK         0.0822 
    102 H102       26.8089  -29.4674  -39.1625 H         1 UNK         0.0787 
    103 H103       26.1493  -30.1070  -37.6658 H         1 UNK         0.0787 
    104 H104       26.5518  -31.2015  -38.9791 H         1 UNK         0.0787 
    105 H105       24.3039  -32.4952  -39.9133 H         1 UNK         0.3055 
    106 H106       22.7839  -33.3455  -37.5775 H         1 UNK         0.1106 
    107 H107       22.7017  -35.5222  -38.8099 H         1 UNK         0.0828 
    108 H108       23.3740  -34.7542  -40.2424 H         1 UNK         0.0828 
    109 H109       24.3365  -34.8839  -38.7704 H         1 UNK         0.0828 
    110 H110       21.9303  -31.9072  -40.5958 H         1 UNK         0.2931 
    111 H111       19.2526  -32.9157  -40.8256 H         1 UNK         0.0412 
    112 H112       17.2099  -30.6427  -38.9904 H         1 UNK         0.3472 
    113 H113       17.2461  -31.9280  -40.1695 H         1 UNK         0.3472 
    114 H114       20.7440  -31.8329  -42.6820 H         1 UNK         0.0970 
    115 H115       20.2216  -30.2901  -42.0673 H         1 UNK         0.0970 
    116 H116       18.3473  -32.3735  -45.3321 H         1 UNK         0.0612 
    117 H117       19.9934  -32.1416  -44.8221 H         1 UNK         0.0612 
@<TRIPOS>BOND
     1    1    2 1    
     2    1   62 1    
     3    1   63 1    
     4    1   64 1    
     5    2    3 2    
     6    2    4 am   BACKBONE|DICT|INTERRES
     7    4    5 1    
     8    4   65 1    
     9    5    6 1    
    10    5   25 1    
    11    5   66 1    
    12    6    7 1    
    13    6   67 1    
    14    6   68 1    
    15    7    8 1    
    16    8    9 1    
    17    8   69 1    
    18    8   70 1    
    19    9   10 ar   
    20    9   14 ar   
    21   10   11 ar   
    22   10   71 1    
    23   11   12 ar   
    24   11   61 1    
    25   12   13 ar   
    26   12   72 1    
    27   13   14 ar   
    28   13   15 1    
    29   14   73 1    
    30   15   16 1    
    31   15   74 1    
    32   15   75 1    
    33   16   17 1    
    34   17   18 1    
    35   17   76 1    
    36   17   77 1    
    37   18   19 1    
    38   18   27 1    
    39   18   78 1    
    40   19   20 am   BACKBONE|DICT|INTERRES
    41   19   79 1    
    42   20   21 2    
    43   20   22 1    
    44   22   23 1    
    45   22   24 1    
    46   22   80 1    
    47   23   81 1    
    48   23   82 1    
    49   23   83 1    
    50   24   25 am   BACKBONE|DICT|INTERRES
    51   24   84 1    
    52   25   26 2    
    53   27   28 2    
    54   27   29 am   BACKBONE|DICT|INTERRES
    55   29   30 1    
    56   29   85 1    
    57   30   31 1    
    58   30   32 1    
    59   30   86 1    
    60   31   87 1    
    61   31   88 1    
    62   31   89 1    
    63   32   33 2    
    64   32   34 am   BACKBONE|DICT|INTERRES
    65   34   35 1    
    66   34   90 1    
    67   35   36 1    
    68   35   37 1    
    69   35   91 1    
    70   36   92 1    
    71   36   93 1    
    72   36   94 1    
    73   37   38 2    
    74   37   39 am   BACKBONE|DICT|INTERRES
    75   39   40 1    
    76   39   95 1    
    77   40   41 1    
    78   40   42 1    
    79   40   96 1    
    80   41   97 1    
    81   41   98 1    
    82   41   99 1    
    83   42   43 2    
    84   42   44 am   BACKBONE|DICT|INTERRES
    85   44   45 1    
    86   44  100 1    
    87   45   46 1    
    88   45   47 1    
    89   45  101 1    
    90   46  102 1    
    91   46  103 1    
    92   46  104 1    
    93   47   48 2    
    94   47   49 am   BACKBONE|DICT|INTERRES
    95   49   50 1    
    96   49  105 1    
    97   50   51 1    
    98   50   52 1    
    99   50  106 1    
   100   51  107 1    
   101   51  108 1    
   102   51  109 1    
   103   52   53 2    
   104   52   54 am   BACKBONE|DICT|INTERRES
   105   54   55 1    
   106   54  110 1    
   107   55   56 1    
   108   55   59 1    
   109   55  111 1    
   110   56   57 am   BACKBONE|DICT|INTERRES
   111   56   58 2    
   112   57  112 1    
   113   57  113 1    
   114   59   60 1    
   115   59  114 1    
   116   59  115 1    
   117   60   61 1    
   118   61  116 1    
   119   61  117 1    
@<TRIPOS>SUBSTRUCTURE
     1 UNK         1 GROUP             0       ****    0 ROOT    
