@<TRIPOS>MOLECULE
3R8
117   119    1
SMALL
USER_CHARGES


@<TRIPOS>ATOM
      1 CA         17.4374  -21.2837  -46.4087 C.3       0 UNK        -0.2013 
      2 C          18.3524  -22.4947  -46.5129 C.2       0 UNK         0.4866 
      3 O          19.5612  -22.3344  -46.6818 O.2       0 UNK        -0.5176 
      4 N          17.7844  -23.7049  -46.4172 N.am      1 UNK        -0.4884 
      5 CA         18.5147  -24.9803  -46.4720 C.3       1 UNK         0.0853 
      6 C6         17.5527  -26.1814  -46.6864 C.3       10 UNK        -0.0849 
      7 S7         18.0115  -27.2613  -48.0891 S.3       10 UNK        -0.2776 
      8 C8         19.3845  -28.2903  -47.4447 C.3       10 UNK         0.0316 
      9 C9         19.0506  -29.2989  -46.3408 C.ar      10 UNK        -0.0863 
     10 C10        20.0815  -30.1105  -45.8543 C.ar      10 UNK        -0.1009 
     11 C11        19.8506  -31.0351  -44.8298 C.ar      10 UNK        -0.0712 
     12 C12        18.5782  -31.1213  -44.2575 C.ar      10 UNK        -0.0894 
     13 C13        17.5464  -30.2979  -44.7122 C.ar      10 UNK        -0.0745 
     14 C14        17.7739  -29.4332  -45.7839 C.ar      10 UNK        -0.0972 
     15 C15        16.1938  -30.2847  -44.0219 C.3       10 UNK         0.0209 
     16 S16        15.9633  -28.7190  -43.1144 S.3       10 UNK        -0.2568 
     17 C17        16.9854  -28.9806  -41.6254 C.3       10 UNK        -0.0983 
     18 CA         18.4448  -28.4562  -41.7229 C.3       3 UNK         0.0876 
     19 N          18.5282  -27.0515  -42.1425 N.am      3 UNK        -0.4424 
     20 C          19.6595  -26.3438  -42.2899 C.2       2 UNK         0.4918 
     21 O          20.7918  -26.8056  -42.1154 O.2       2 UNK        -0.4875 
     22 CA         19.4722  -24.8740  -42.7185 C.3       2 UNK         0.0481 
     23 CB         20.7648  -24.0353  -42.6313 C.3       2 UNK        -0.1831 
     24 N          18.8759  -24.7629  -44.0541 N.am      2 UNK        -0.4498 
     25 C          19.3874  -25.2022  -45.2170 C.2       1 UNK         0.5027 
     26 O          20.4818  -25.7516  -45.3322 O.2       1 UNK        -0.4969 
     27 C          19.1548  -28.6778  -40.3709 C.2       3 UNK         0.5005 
     28 O          18.8368  -27.9823  -39.4030 O.2       3 UNK        -0.5279 
     29 N          20.0998  -29.6280  -40.3392 N.am      4 UNK        -0.4463 
     30 CA         20.9473  -29.9983  -39.1967 C.3       4 UNK         0.0283 
     31 CB         20.1040  -30.5771  -38.0410 C.3       4 UNK        -0.1875 
     32 C          21.9121  -28.8848  -38.7330 C.2       4 UNK         0.4949 
     33 O          22.4078  -28.9470  -37.6064 O.2       4 UNK        -0.5039 
     34 N          22.1796  -27.9023  -39.6042 N.am      5 UNK        -0.4663 
     35 CA         23.1519  -26.8295  -39.3893 C.3       5 UNK         0.0242 
     36 CB         22.4167  -25.5086  -39.1171 C.3       5 UNK        -0.1982 
     37 C          24.1219  -26.7102  -40.5738 C.2       5 UNK         0.5017 
     38 O          25.3138  -26.5014  -40.3453 O.2       5 UNK        -0.5012 
     39 N          23.6238  -26.8797  -41.8097 N.am      6 UNK        -0.4439 
     40 CA         24.4383  -26.9477  -43.0317 C.3       6 UNK         0.0297 
     41 CB         23.5201  -26.8608  -44.2609 C.3       6 UNK        -0.2006 
     42 C          25.3137  -28.2133  -43.1201 C.2       6 UNK         0.4892 
     43 O          26.3469  -28.1925  -43.7900 O.2       6 UNK        -0.5089 
     44 N          24.8837  -29.2807  -42.4435 N.am      7 UNK        -0.4243 
     45 CA         25.5446  -30.5716  -42.2993 C.3       7 UNK         0.0196 
     46 CB         25.3316  -31.4193  -43.5703 C.3       7 UNK        -0.2007 
     47 C          24.9535  -31.2391  -41.0489 C.2       7 UNK         0.5020 
     48 O          24.1237  -30.6292  -40.3706 O.2       7 UNK        -0.5147 
     49 N          25.3652  -32.4808  -40.7609 N.am      8 UNK        -0.4734 
     50 CA         24.7876  -33.2910  -39.6796 C.3       8 UNK         0.0238 
     51 CB         25.6497  -34.5435  -39.4520 C.3       8 UNK        -0.1912 
     52 C          23.3210  -33.6789  -39.9482 C.2       8 UNK         0.5038 
     53 O          22.5166  -33.6864  -39.0161 O.2       8 UNK        -0.5046 
     54 N          23.0129  -33.9678  -41.2211 N.am      9 UNK        -0.4200 
     55 CA         21.6727  -34.2605  -41.7604 C.3       9 UNK         0.0839 
     56 C          20.9928  -35.5428  -41.1889 C.2       9 UNK         0.5513 
     57 N          21.7372  -36.4833  -40.6200 N.am      9 UNK        -0.7519 
     58 O          19.7798  -35.7082  -41.2910 O.2       9 UNK        -0.4960 
     59 C59        20.7342  -33.0176  -41.7522 C.3       10 UNK        -0.0876 
     60 S60        21.4571  -31.5868  -42.6320 S.3       10 UNK        -0.2414 
     61 C61        20.9771  -31.9392  -44.3512 C.3       10 UNK         0.0169 
     62 H62        16.3951  -21.5692  -46.2679 H         1 UNK         0.0903 
     63 H63        17.7350  -20.6605  -45.5658 H         1 UNK         0.0903 
     64 H64        17.5044  -20.6840  -47.3161 H         1 UNK         0.0903 
     65 H65        16.7832  -23.7704  -46.2964 H         1 UNK         0.3096 
     66 H66        19.1997  -24.9148  -47.3208 H         1 UNK         0.1121 
     67 H67        16.5474  -25.8250  -46.9168 H         1 UNK         0.0849 
     68 H68        17.4227  -26.7646  -45.7745 H         1 UNK         0.0849 
     69 H69        19.7990  -28.8426  -48.2893 H         1 UNK         0.0865 
     70 H70        20.1836  -27.6351  -47.0984 H         1 UNK         0.0865 
     71 H71        21.0716  -30.0245  -46.2816 H         1 UNK         0.1346 
     72 H72        18.3981  -31.8084  -43.4431 H         1 UNK         0.1412 
     73 H73        16.9457  -28.8415  -46.1421 H         1 UNK         0.1426 
     74 H74        16.0811  -31.1329  -43.3449 H         1 UNK         0.0716 
     75 H75        15.4064  -30.3806  -44.7708 H         1 UNK         0.0716 
     76 H76        16.9824  -30.0452  -41.3835 H         1 UNK         0.0695 
     77 H77        16.4649  -28.4895  -40.8005 H         1 UNK         0.0695 
     78 H78        18.9691  -29.0318  -42.4870 H         1 UNK         0.0983 
     79 H79        17.6440  -26.5961  -42.3118 H         1 UNK         0.3095 
     80 H80        18.7548  -24.4338  -42.0244 H         1 UNK         0.0454 
     81 H81        21.5701  -24.4572  -43.2307 H         1 UNK         0.0851 
     82 H82        21.1225  -23.9699  -41.6057 H         1 UNK         0.0851 
     83 H83        20.5969  -23.0148  -42.9750 H         1 UNK         0.0851 
     84 H84        17.9694  -24.3184  -44.0912 H         1 UNK         0.2976 
     85 H85        20.3128  -30.1244  -41.1966 H         1 UNK         0.3116 
     86 H86        21.5879  -30.8045  -39.5554 H         1 UNK         0.0646 
     87 H87        19.4906  -29.8131  -37.5628 H         1 UNK         0.0847 
     88 H88        20.7440  -31.0080  -37.2701 H         1 UNK         0.0847 
     89 H89        19.4444  -31.3714  -38.3897 H         1 UNK         0.0847 
     90 H90        21.6936  -27.9041  -40.4921 H         1 UNK         0.3040 
     91 H91        23.7687  -27.0552  -38.5162 H         1 UNK         0.1015 
     92 H92        21.6816  -25.2939  -39.8899 H         1 UNK         0.0786 
     93 H93        23.1114  -24.6687  -39.0724 H         1 UNK         0.0786 
     94 H94        21.8891  -25.5459  -38.1639 H         1 UNK         0.0786 
     95 H95        22.6160  -26.9529  -41.9342 H         1 UNK         0.3172 
     96 H96        25.1075  -26.0850  -43.0433 H         1 UNK         0.0595 
     97 H97        22.7589  -27.6425  -44.2569 H         1 UNK         0.0839 
     98 H98        24.0884  -26.9628  -45.1865 H         1 UNK         0.0839 
     99 H99        23.0105  -25.9000  -44.3066 H         1 UNK         0.0839 
    100 H100       24.0610  -29.1909  -41.8588 H         1 UNK         0.2998 
    101 H101       26.6113  -30.4114  -42.1302 H         1 UNK         0.0822 
    102 H102       25.7096  -30.9087  -44.4560 H         1 UNK         0.0787 
    103 H103       25.8556  -32.3732  -43.5077 H         1 UNK         0.0787 
    104 H104       24.2759  -31.6337  -43.7380 H         1 UNK         0.0787 
    105 H105       26.0681  -32.9163  -41.3413 H         1 UNK         0.3055 
    106 H106       24.8025  -32.6946  -38.7641 H         1 UNK         0.1106 
    107 H107       25.2452  -35.1523  -38.6421 H         1 UNK         0.0828 
    108 H108       25.6966  -35.1734  -40.3411 H         1 UNK         0.0828 
    109 H109       26.6698  -34.2773  -39.1747 H         1 UNK         0.0828 
    110 H110       23.7554  -33.9353  -41.9028 H         1 UNK         0.2931 
    111 H111       21.8482  -34.5089  -42.8076 H         1 UNK         0.0412 
    112 H112       22.7342  -36.3657  -40.5373 H         1 UNK         0.3472 
    113 H113       21.2943  -37.3151  -40.2619 H         1 UNK         0.3472 
    114 H114       20.5133  -32.7221  -40.7257 H         1 UNK         0.0970 
    115 H115       19.7714  -33.2566  -42.2056 H         1 UNK         0.0970 
    116 H116       21.8600  -31.8138  -44.9796 H         1 UNK         0.0612 
    117 H117       20.6770  -32.9821  -44.4604 H         1 UNK         0.0612 
@<TRIPOS>BOND
     1    1    2 1    
     2    1   62 1    
     3    1   63 1    
     4    1   64 1    
     5    2    3 2    
     6    2    4 am   BACKBONE|DICT|INTERRES
     7    4    5 1    
     8    4   65 1    
     9    5    6 1    
    10    5   25 1    
    11    5   66 1    
    12    6    7 1    
    13    6   67 1    
    14    6   68 1    
    15    7    8 1    
    16    8    9 1    
    17    8   69 1    
    18    8   70 1    
    19    9   10 ar   
    20    9   14 ar   
    21   10   11 ar   
    22   10   71 1    
    23   11   12 ar   
    24   11   61 1    
    25   12   13 ar   
    26   12   72 1    
    27   13   14 ar   
    28   13   15 1    
    29   14   73 1    
    30   15   16 1    
    31   15   74 1    
    32   15   75 1    
    33   16   17 1    
    34   17   18 1    
    35   17   76 1    
    36   17   77 1    
    37   18   19 1    
    38   18   27 1    
    39   18   78 1    
    40   19   20 am   BACKBONE|DICT|INTERRES
    41   19   79 1    
    42   20   21 2    
    43   20   22 1    
    44   22   23 1    
    45   22   24 1    
    46   22   80 1    
    47   23   81 1    
    48   23   82 1    
    49   23   83 1    
    50   24   25 am   BACKBONE|DICT|INTERRES
    51   24   84 1    
    52   25   26 2    
    53   27   28 2    
    54   27   29 am   BACKBONE|DICT|INTERRES
    55   29   30 1    
    56   29   85 1    
    57   30   31 1    
    58   30   32 1    
    59   30   86 1    
    60   31   87 1    
    61   31   88 1    
    62   31   89 1    
    63   32   33 2    
    64   32   34 am   BACKBONE|DICT|INTERRES
    65   34   35 1    
    66   34   90 1    
    67   35   36 1    
    68   35   37 1    
    69   35   91 1    
    70   36   92 1    
    71   36   93 1    
    72   36   94 1    
    73   37   38 2    
    74   37   39 am   BACKBONE|DICT|INTERRES
    75   39   40 1    
    76   39   95 1    
    77   40   41 1    
    78   40   42 1    
    79   40   96 1    
    80   41   97 1    
    81   41   98 1    
    82   41   99 1    
    83   42   43 2    
    84   42   44 am   BACKBONE|DICT|INTERRES
    85   44   45 1    
    86   44  100 1    
    87   45   46 1    
    88   45   47 1    
    89   45  101 1    
    90   46  102 1    
    91   46  103 1    
    92   46  104 1    
    93   47   48 2    
    94   47   49 am   BACKBONE|DICT|INTERRES
    95   49   50 1    
    96   49  105 1    
    97   50   51 1    
    98   50   52 1    
    99   50  106 1    
   100   51  107 1    
   101   51  108 1    
   102   51  109 1    
   103   52   53 2    
   104   52   54 am   BACKBONE|DICT|INTERRES
   105   54   55 1    
   106   54  110 1    
   107   55   56 1    
   108   55   59 1    
   109   55  111 1    
   110   56   57 am   BACKBONE|DICT|INTERRES
   111   56   58 2    
   112   57  112 1    
   113   57  113 1    
   114   59   60 1    
   115   59  114 1    
   116   59  115 1    
   117   60   61 1    
   118   61  116 1    
   119   61  117 1    
@<TRIPOS>SUBSTRUCTURE
     1 UNK         1 GROUP             0       ****    0 ROOT    
