@<TRIPOS>MOLECULE
3R8
117   119    1
SMALL
USER_CHARGES


@<TRIPOS>ATOM
      1 CA         12.2930  -23.4086  -44.4749 C.3       0 UNK        -0.2013 
      2 C          13.2680  -24.5666  -44.6284 C.2       0 UNK         0.4866 
      3 O          13.2967  -25.4549  -43.7763 O.2       0 UNK        -0.5176 
      4 N          14.0589  -24.5621  -45.7106 N.am      1 UNK        -0.4884 
      5 CA         15.1016  -25.5459  -46.0283 C.3       1 UNK         0.0853 
      6 C6         14.5261  -26.9723  -46.2744 C.3       10 UNK        -0.0849 
      7 S7         15.5818  -27.9588  -47.3888 S.3       10 UNK        -0.2776 
      8 C8         15.4834  -29.6240  -46.6546 C.3       10 UNK         0.0316 
      9 C9         16.6689  -29.9512  -45.7533 C.ar      10 UNK        -0.0863 
     10 C10        16.4759  -30.2530  -44.4004 C.ar      10 UNK        -0.1009 
     11 C11        17.5481  -30.6776  -43.6062 C.ar      10 UNK        -0.0712 
     12 C12        18.8213  -30.7900  -44.1746 C.ar      10 UNK        -0.0894 
     13 C13        19.0344  -30.4604  -45.5151 C.ar      10 UNK        -0.0745 
     14 C14        17.9542  -30.0434  -46.2984 C.ar      10 UNK        -0.0972 
     15 C15        20.4143  -30.6208  -46.1388 C.3       10 UNK         0.0209 
     16 S16        21.3170  -29.0446  -46.2691 S.3       10 UNK        -0.2568 
     17 C17        21.9719  -28.7968  -44.5830 C.3       10 UNK        -0.0983 
     18 CA         21.5911  -27.4038  -44.0117 C.3       3 UNK         0.0876 
     19 N          20.1875  -27.3530  -43.6178 N.am      3 UNK        -0.4424 
     20 C          19.1910  -26.7708  -44.2839 C.2       2 UNK         0.4918 
     21 O          19.3216  -26.1964  -45.3672 O.2       2 UNK        -0.4875 
     22 CA         17.8231  -26.8680  -43.5902 C.3       2 UNK         0.0481 
     23 CB         17.7479  -25.9949  -42.3197 C.3       2 UNK        -0.1831 
     24 N          16.7027  -26.6271  -44.5011 N.am      2 UNK        -0.4498 
     25 C          16.2614  -25.4676  -45.0076 C.2       1 UNK         0.5027 
     26 O          16.7205  -24.3600  -44.7157 O.2       1 UNK        -0.4969 
     27 C          22.4257  -27.0404  -42.7683 C.2       3 UNK         0.5005 
     28 O          21.8726  -26.9096  -41.6703 O.2       3 UNK        -0.5279 
     29 N          23.7410  -26.8626  -42.9593 N.am      4 UNK        -0.4463 
     30 CA         24.7071  -26.6412  -41.8810 C.3       4 UNK         0.0283 
     31 CB         26.0638  -26.2362  -42.4801 C.3       4 UNK        -0.1875 
     32 C          24.8508  -27.9099  -41.0281 C.2       4 UNK         0.4949 
     33 O          25.1309  -28.9730  -41.5850 O.2       4 UNK        -0.5039 
     34 N          24.6753  -27.7697  -39.7066 N.am      5 UNK        -0.4663 
     35 CA         24.5511  -28.8630  -38.7301 C.3       5 UNK         0.0242 
     36 CB         24.3039  -28.2637  -37.3363 C.3       5 UNK        -0.1982 
     37 C          25.7197  -29.8643  -38.6846 C.2       5 UNK         0.5017 
     38 O          25.5205  -31.0021  -38.2583 O.2       5 UNK        -0.5012 
     39 N          26.9063  -29.4377  -39.1378 N.am      6 UNK        -0.4439 
     40 CA         28.0832  -30.2878  -39.3292 C.3       6 UNK         0.0297 
     41 CB         29.3066  -29.3995  -39.6068 C.3       6 UNK        -0.2006 
     42 C          27.9104  -31.3300  -40.4527 C.2       6 UNK         0.4892 
     43 O          28.5687  -32.3698  -40.4028 O.2       6 UNK        -0.5089 
     44 N          27.0463  -31.0393  -41.4355 N.am      7 UNK        -0.4243 
     45 CA         26.7063  -31.9290  -42.5422 C.3       7 UNK         0.0196 
     46 CB         26.6255  -31.1217  -43.8502 C.3       7 UNK        -0.2007 
     47 C          25.3850  -32.6567  -42.2624 C.2       7 UNK         0.5020 
     48 O          25.3571  -33.8866  -42.3160 O.2       7 UNK        -0.5147 
     49 N          24.3173  -31.9013  -41.9721 N.am      8 UNK        -0.4734 
     50 CA         22.9622  -32.4121  -41.7505 C.3       8 UNK         0.0238 
     51 CB         22.3560  -32.9026  -43.0824 C.3       8 UNK        -0.1912 
     52 C          22.0839  -31.3112  -41.1458 C.2       8 UNK         0.5038 
     53 O          22.4259  -30.1358  -41.2544 O.2       8 UNK        -0.5046 
     54 N          20.9384  -31.7038  -40.5762 N.am      9 UNK        -0.4200 
     55 CA         19.9617  -30.8219  -39.9137 C.3       9 UNK         0.0839 
     56 C          20.4365  -30.2971  -38.5259 C.2       9 UNK         0.5513 
     57 N          19.6707  -29.4145  -37.8985 N.am      9 UNK        -0.7519 
     58 O          21.4607  -30.7118  -37.9878 O.2       9 UNK        -0.4960 
     59 C59        19.4142  -29.7001  -40.8584 C.3       10 UNK        -0.0876 
     60 S60        17.5958  -29.7082  -40.9818 S.3       10 UNK        -0.2414 
     61 C61        17.3159  -31.0771  -42.1537 C.3       10 UNK         0.0169 
     62 H62        12.4951  -22.8688  -43.5501 H         1 UNK         0.0903 
     63 H63        12.3632  -22.7021  -45.3019 H         1 UNK         0.0903 
     64 H64        11.2702  -23.7823  -44.4347 H         1 UNK         0.0903 
     65 H65        14.0019  -23.7824  -46.3519 H         1 UNK         0.3096 
     66 H66        15.5315  -25.1981  -46.9694 H         1 UNK         0.1121 
     67 H67        13.5547  -26.8937  -46.7654 H         1 UNK         0.0849 
     68 H68        14.3304  -27.4987  -45.3383 H         1 UNK         0.0849 
     69 H69        14.5367  -29.7472  -46.1263 H         1 UNK         0.0865 
     70 H70        15.4625  -30.3525  -47.4666 H         1 UNK         0.0865 
     71 H71        15.4846  -30.1965  -43.9713 H         1 UNK         0.1346 
     72 H72        19.6465  -31.1561  -43.5812 H         1 UNK         0.1412 
     73 H73        18.1088  -29.8178  -47.3451 H         1 UNK         0.1426 
     74 H74        20.3047  -31.0365  -47.1416 H         1 UNK         0.0716 
     75 H75        21.0120  -31.3434  -45.5834 H         1 UNK         0.0716 
     76 H76        23.0547  -28.9167  -44.6473 H         1 UNK         0.0695 
     77 H77        21.6240  -29.5914  -43.9214 H         1 UNK         0.0695 
     78 H78        21.7937  -26.6343  -44.7601 H         1 UNK         0.0983 
     79 H79        20.0197  -27.6952  -42.6826 H         1 UNK         0.3095 
     80 H80        17.7064  -27.9036  -43.2781 H         1 UNK         0.0454 
     81 H81        16.7579  -26.0395  -41.8661 H         1 UNK         0.0851 
     82 H82        17.9786  -24.9496  -42.5258 H         1 UNK         0.0851 
     83 H83        18.4601  -26.3361  -41.5676 H         1 UNK         0.0851 
     84 H84        16.2910  -27.4688  -44.8808 H         1 UNK         0.2976 
     85 H85        24.1245  -27.0069  -43.8821 H         1 UNK         0.3116 
     86 H86        24.3451  -25.8213  -41.2568 H         1 UNK         0.0646 
     87 H87        26.4735  -27.0179  -43.1216 H         1 UNK         0.0847 
     88 H88        26.7954  -26.0455  -41.6938 H         1 UNK         0.0847 
     89 H89        25.9815  -25.3244  -43.0718 H         1 UNK         0.0847 
     90 H90        24.4645  -26.8458  -39.3570 H         1 UNK         0.3040 
     91 H91        23.6663  -29.4369  -39.0113 H         1 UNK         0.1015 
     92 H92        25.1370  -27.6394  -37.0110 H         1 UNK         0.0786 
     93 H93        24.1728  -29.0501  -36.5913 H         1 UNK         0.0786 
     94 H94        23.3983  -27.6567  -37.3206 H         1 UNK         0.0786 
     95 H95        26.9679  -28.4842  -39.4638 H         1 UNK         0.3172 
     96 H96        28.2599  -30.8322  -38.3991 H         1 UNK         0.0595 
     97 H97        29.1843  -28.8163  -40.5205 H         1 UNK         0.0839 
     98 H98        30.2075  -30.0034  -39.7250 H         1 UNK         0.0839 
     99 H99        29.4901  -28.7061  -38.7858 H         1 UNK         0.0839 
    100 H100       26.4987  -30.1834  -41.3746 H         1 UNK         0.2998 
    101 H101       27.4851  -32.6846  -42.6678 H         1 UNK         0.0822 
    102 H102       27.5801  -30.6483  -44.0799 H         1 UNK         0.0787 
    103 H103       26.3732  -31.7687  -44.6913 H         1 UNK         0.0787 
    104 H104       25.8684  -30.3381  -43.8039 H         1 UNK         0.0787 
    105 H105       24.4087  -30.8895  -41.8949 H         1 UNK         0.3055 
    106 H106       23.0115  -33.2387  -41.0382 H         1 UNK         0.1106 
    107 H107       21.3177  -33.2138  -42.9616 H         1 UNK         0.0828 
    108 H108       22.3787  -32.1174  -43.8377 H         1 UNK         0.0828 
    109 H109       22.8982  -33.7604  -43.4798 H         1 UNK         0.0828 
    110 H110       20.7403  -32.6917  -40.5120 H         1 UNK         0.2931 
    111 H111       19.1449  -31.5019  -39.6694 H         1 UNK         0.0412 
    112 H112       18.8102  -29.0904  -38.3131 H         1 UNK         0.3472 
    113 H113       19.9508  -29.0777  -36.9907 H         1 UNK         0.3472 
    114 H114       19.8232  -29.7852  -41.8614 H         1 UNK         0.0970 
    115 H115       19.7353  -28.7091  -40.5312 H         1 UNK         0.0970 
    116 H116       16.2903  -31.4281  -42.0305 H         1 UNK         0.0612 
    117 H117       17.9533  -31.9224  -41.8902 H         1 UNK         0.0612 
@<TRIPOS>BOND
     1    1    2 1    
     2    1   62 1    
     3    1   63 1    
     4    1   64 1    
     5    2    3 2    
     6    2    4 am   BACKBONE|DICT|INTERRES
     7    4    5 1    
     8    4   65 1    
     9    5    6 1    
    10    5   25 1    
    11    5   66 1    
    12    6    7 1    
    13    6   67 1    
    14    6   68 1    
    15    7    8 1    
    16    8    9 1    
    17    8   69 1    
    18    8   70 1    
    19    9   10 ar   
    20    9   14 ar   
    21   10   11 ar   
    22   10   71 1    
    23   11   12 ar   
    24   11   61 1    
    25   12   13 ar   
    26   12   72 1    
    27   13   14 ar   
    28   13   15 1    
    29   14   73 1    
    30   15   16 1    
    31   15   74 1    
    32   15   75 1    
    33   16   17 1    
    34   17   18 1    
    35   17   76 1    
    36   17   77 1    
    37   18   19 1    
    38   18   27 1    
    39   18   78 1    
    40   19   20 am   BACKBONE|DICT|INTERRES
    41   19   79 1    
    42   20   21 2    
    43   20   22 1    
    44   22   23 1    
    45   22   24 1    
    46   22   80 1    
    47   23   81 1    
    48   23   82 1    
    49   23   83 1    
    50   24   25 am   BACKBONE|DICT|INTERRES
    51   24   84 1    
    52   25   26 2    
    53   27   28 2    
    54   27   29 am   BACKBONE|DICT|INTERRES
    55   29   30 1    
    56   29   85 1    
    57   30   31 1    
    58   30   32 1    
    59   30   86 1    
    60   31   87 1    
    61   31   88 1    
    62   31   89 1    
    63   32   33 2    
    64   32   34 am   BACKBONE|DICT|INTERRES
    65   34   35 1    
    66   34   90 1    
    67   35   36 1    
    68   35   37 1    
    69   35   91 1    
    70   36   92 1    
    71   36   93 1    
    72   36   94 1    
    73   37   38 2    
    74   37   39 am   BACKBONE|DICT|INTERRES
    75   39   40 1    
    76   39   95 1    
    77   40   41 1    
    78   40   42 1    
    79   40   96 1    
    80   41   97 1    
    81   41   98 1    
    82   41   99 1    
    83   42   43 2    
    84   42   44 am   BACKBONE|DICT|INTERRES
    85   44   45 1    
    86   44  100 1    
    87   45   46 1    
    88   45   47 1    
    89   45  101 1    
    90   46  102 1    
    91   46  103 1    
    92   46  104 1    
    93   47   48 2    
    94   47   49 am   BACKBONE|DICT|INTERRES
    95   49   50 1    
    96   49  105 1    
    97   50   51 1    
    98   50   52 1    
    99   50  106 1    
   100   51  107 1    
   101   51  108 1    
   102   51  109 1    
   103   52   53 2    
   104   52   54 am   BACKBONE|DICT|INTERRES
   105   54   55 1    
   106   54  110 1    
   107   55   56 1    
   108   55   59 1    
   109   55  111 1    
   110   56   57 am   BACKBONE|DICT|INTERRES
   111   56   58 2    
   112   57  112 1    
   113   57  113 1    
   114   59   60 1    
   115   59  114 1    
   116   59  115 1    
   117   60   61 1    
   118   61  116 1    
   119   61  117 1    
@<TRIPOS>SUBSTRUCTURE
     1 UNK         1 GROUP             0       ****    0 ROOT    
