@<TRIPOS>MOLECULE
3R8
117   119    1
SMALL
USER_CHARGES


@<TRIPOS>ATOM
      1 CA         14.2284  -25.4016  -44.2255 C.3       0 UNK        -0.2013 
      2 C          15.5585  -25.7577  -43.5787 C.2       0 UNK         0.4866 
      3 O          16.5542  -25.0707  -43.8063 O.2       0 UNK        -0.5176 
      4 N          15.5861  -26.8338  -42.7838 N.am      1 UNK        -0.4884 
      5 CA         16.7642  -27.2947  -42.0389 C.3       1 UNK         0.0853 
      6 C6         16.6519  -28.7973  -41.6479 C.3       10 UNK        -0.0849 
      7 S7         15.9759  -29.9285  -42.9208 S.3       10 UNK        -0.2776 
      8 C8         16.8879  -29.5343  -44.4518 C.3       10 UNK         0.0316 
      9 C9         18.1749  -30.3334  -44.6269 C.ar      10 UNK        -0.0863 
     10 C10        18.1398  -31.7321  -44.6570 C.ar      10 UNK        -0.1009 
     11 C11        19.2907  -32.4671  -44.9559 C.ar      10 UNK        -0.0712 
     12 C12        20.4886  -31.7930  -45.2093 C.ar      10 UNK        -0.0894 
     13 C13        20.5409  -30.3956  -45.1914 C.ar      10 UNK        -0.0745 
     14 C14        19.3805  -29.6735  -44.8864 C.ar      10 UNK        -0.0972 
     15 C15        21.8255  -29.6869  -45.6119 C.3       10 UNK         0.0209 
     16 S16        22.4653  -28.5339  -44.3567 S.3       10 UNK        -0.2568 
     17 C17        21.8032  -26.9447  -44.9888 C.3       10 UNK        -0.0983 
     18 CA         21.4899  -25.9018  -43.8846 C.3       3 UNK         0.0876 
     19 N          20.7233  -26.5093  -42.7987 N.am      3 UNK        -0.4424 
     20 C          19.9873  -25.8522  -41.9011 C.2       2 UNK         0.4918 
     21 O          19.7476  -24.6442  -41.9425 O.2       2 UNK        -0.4875 
     22 CA         19.4679  -26.7073  -40.7365 C.3       2 UNK         0.0481 
     23 CB         20.4816  -26.6711  -39.5813 C.3       2 UNK        -0.1831 
     24 N          18.1766  -26.2327  -40.2416 N.am      2 UNK        -0.4498 
     25 C          16.9606  -26.4085  -40.7793 C.2       1 UNK         0.5027 
     26 O          15.9681  -25.9037  -40.2502 O.2       1 UNK        -0.4969 
     27 C          22.7878  -25.2608  -43.3533 C.2       3 UNK         0.5005 
     28 O          23.2521  -25.6132  -42.2658 O.2       3 UNK        -0.5279 
     29 N          23.4012  -24.3917  -44.1707 N.am      4 UNK        -0.4463 
     30 CA         24.7076  -23.7699  -43.9100 C.3       4 UNK         0.0283 
     31 CB         24.9989  -22.7237  -44.9980 C.3       4 UNK        -0.1875 
     32 C          25.8725  -24.7759  -43.8069 C.2       4 UNK         0.4949 
     33 O          26.8772  -24.4710  -43.1649 O.2       4 UNK        -0.5039 
     34 N          25.7074  -25.9621  -44.4109 N.am      5 UNK        -0.4663 
     35 CA         26.6152  -27.1055  -44.2821 C.3       5 UNK         0.0242 
     36 CB         26.3284  -28.0996  -45.4203 C.3       5 UNK        -0.1982 
     37 C          26.5240  -27.8113  -42.9137 C.2       5 UNK         0.5017 
     38 O          27.4131  -28.6017  -42.5967 O.2       5 UNK        -0.5012 
     39 N          25.4625  -27.5287  -42.1397 N.am      6 UNK        -0.4439 
     40 CA         25.1699  -28.0373  -40.7947 C.3       6 UNK         0.0297 
     41 CB         26.2228  -27.5417  -39.7806 C.3       6 UNK        -0.2006 
     42 C          24.9408  -29.5603  -40.7204 C.2       6 UNK         0.4892 
     43 O          25.1133  -30.1432  -39.6485 O.2       6 UNK        -0.5089 
     44 N          24.5360  -30.1794  -41.8401 N.am      7 UNK        -0.4243 
     45 CA         24.1594  -31.5944  -41.9022 C.3       7 UNK         0.0196 
     46 CB         24.1320  -32.0733  -43.3621 C.3       7 UNK        -0.2007 
     47 C          22.8098  -31.8359  -41.2105 C.2       7 UNK         0.5020 
     48 O          22.7174  -32.7138  -40.3528 O.2       7 UNK        -0.5147 
     49 N          21.8068  -31.0246  -41.5818 N.am      8 UNK        -0.4734 
     50 CA         20.4557  -30.8783  -41.0126 C.3       8 UNK         0.0238 
     51 CB         20.5402  -30.3526  -39.5675 C.3       8 UNK        -0.1912 
     52 C          19.5307  -32.1096  -41.0771 C.2       8 UNK         0.5038 
     53 O          18.3200  -31.9283  -41.1921 O.2       8 UNK        -0.5046 
     54 N          20.0918  -33.3192  -40.9843 N.am      9 UNK        -0.4200 
     55 CA         19.4042  -34.6185  -41.0619 C.3       9 UNK         0.0839 
     56 C          18.3994  -34.8998  -39.9025 C.2       9 UNK         0.5513 
     57 N          18.4992  -34.2214  -38.7654 N.am      9 UNK        -0.7519 
     58 O          17.5384  -35.7691  -40.0156 O.2       9 UNK        -0.4960 
     59 C59        18.8017  -34.8888  -42.4694 C.3       10 UNK        -0.0876 
     60 S60        20.0779  -34.8690  -43.7745 S.3       10 UNK        -0.2414 
     61 C61        19.2247  -33.9807  -45.1117 C.3       10 UNK         0.0169 
     62 H62        13.4414  -26.1048  -43.9536 H         1 UNK         0.0903 
     63 H63        13.9153  -24.4053  -43.9144 H         1 UNK         0.0903 
     64 H64        14.3260  -25.4053  -45.3108 H         1 UNK         0.0903 
     65 H65        14.7373  -27.3549  -42.6148 H         1 UNK         0.3096 
     66 H66        17.6279  -27.1732  -42.6923 H         1 UNK         0.1121 
     67 H67        16.0076  -28.9114  -40.7736 H         1 UNK         0.0849 
     68 H68        17.6234  -29.1864  -41.3435 H         1 UNK         0.0849 
     69 H69        16.2365  -29.7721  -45.2938 H         1 UNK         0.0865 
     70 H70        17.0730  -28.4638  -44.5278 H         1 UNK         0.0865 
     71 H71        17.2028  -32.2450  -44.4879 H         1 UNK         0.1346 
     72 H72        21.3695  -32.3640  -45.4695 H         1 UNK         0.1412 
     73 H73        19.3981  -28.5946  -44.9016 H         1 UNK         0.1426 
     74 H74        21.6511  -29.1596  -46.5507 H         1 UNK         0.0716 
     75 H75        22.6087  -30.4131  -45.8317 H         1 UNK         0.0716 
     76 H76        20.8903  -27.1337  -45.5523 H         1 UNK         0.0695 
     77 H77        22.5027  -26.5490  -45.7274 H         1 UNK         0.0695 
     78 H78        20.8869  -25.1028  -44.3226 H         1 UNK         0.0983 
     79 H79        20.9186  -27.4884  -42.6544 H         1 UNK         0.3095 
     80 H80        19.3690  -27.7416  -41.0658 H         1 UNK         0.0454 
     81 H81        20.6255  -25.6584  -39.2021 H         1 UNK         0.0851 
     82 H82        21.4592  -27.0333  -39.9036 H         1 UNK         0.0851 
     83 H83        20.1608  -27.2964  -38.7480 H         1 UNK         0.0851 
     84 H84        18.2319  -25.6291  -39.4345 H         1 UNK         0.2976 
     85 H85        22.9619  -24.1564  -45.0499 H         1 UNK         0.3116 
     86 H86        24.6410  -23.2544  -42.9495 H         1 UNK         0.0646 
     87 H87        25.0569  -23.1753  -45.9891 H         1 UNK         0.0847 
     88 H88        25.9509  -22.2237  -44.8131 H         1 UNK         0.0847 
     89 H89        24.2309  -21.9505  -45.0235 H         1 UNK         0.0847 
     90 H90        24.8577  -26.1162  -44.9331 H         1 UNK         0.3040 
     91 H91        27.6408  -26.7453  -44.3904 H         1 UNK         0.1015 
     92 H92        25.3144  -28.4965  -45.3682 H         1 UNK         0.0786 
     93 H93        27.0117  -28.9491  -45.3784 H         1 UNK         0.0786 
     94 H94        26.4567  -27.6325  -46.3969 H         1 UNK         0.0786 
     95 H95        24.7878  -26.8493  -42.4805 H         1 UNK         0.3172 
     96 H96        24.2164  -27.5871  -40.5149 H         1 UNK         0.0595 
     97 H97        27.1960  -28.0037  -39.9489 H         1 UNK         0.0839 
     98 H98        25.9249  -27.7765  -38.7580 H         1 UNK         0.0839 
     99 H99        26.3495  -26.4605  -39.8378 H         1 UNK         0.0839 
    100 H100       24.4193  -29.6280  -42.6780 H         1 UNK         0.2998 
    101 H101       24.9177  -32.1753  -41.3720 H         1 UNK         0.0822 
    102 H102       23.8877  -33.1351  -43.4176 H         1 UNK         0.0787 
    103 H103       23.3879  -31.5399  -43.9504 H         1 UNK         0.0787 
    104 H104       25.1011  -31.9373  -43.8428 H         1 UNK         0.0787 
    105 H105       22.0065  -30.3931  -42.3452 H         1 UNK         0.3055 
    106 H106       19.9705  -30.1140  -41.6213 H         1 UNK         0.1106 
    107 H107       19.5538  -30.0740  -39.1938 H         1 UNK         0.0828 
    108 H108       20.9462  -31.1030  -38.8883 H         1 UNK         0.0828 
    109 H109       21.1778  -29.4725  -39.5015 H         1 UNK         0.0828 
    110 H110       21.0946  -33.3485  -40.8175 H         1 UNK         0.2931 
    111 H111       20.1913  -35.3578  -40.9095 H         1 UNK         0.0412 
    112 H112       17.8545  -34.4149  -38.0150 H         1 UNK         0.3472 
    113 H113       19.2078  -33.5140  -38.6553 H         1 UNK         0.3472 
    114 H114       18.3214  -35.8681  -42.5045 H         1 UNK         0.0970 
    115 H115       18.0210  -34.1605  -42.6940 H         1 UNK         0.0970 
    116 H116       18.1912  -34.3244  -45.1776 H         1 UNK         0.0612 
    117 H117       19.6922  -34.2556  -46.0583 H         1 UNK         0.0612 
@<TRIPOS>BOND
     1    1    2 1    
     2    1   62 1    
     3    1   63 1    
     4    1   64 1    
     5    2    3 2    
     6    2    4 am   BACKBONE|DICT|INTERRES
     7    4    5 1    
     8    4   65 1    
     9    5    6 1    
    10    5   25 1    
    11    5   66 1    
    12    6    7 1    
    13    6   67 1    
    14    6   68 1    
    15    7    8 1    
    16    8    9 1    
    17    8   69 1    
    18    8   70 1    
    19    9   10 ar   
    20    9   14 ar   
    21   10   11 ar   
    22   10   71 1    
    23   11   12 ar   
    24   11   61 1    
    25   12   13 ar   
    26   12   72 1    
    27   13   14 ar   
    28   13   15 1    
    29   14   73 1    
    30   15   16 1    
    31   15   74 1    
    32   15   75 1    
    33   16   17 1    
    34   17   18 1    
    35   17   76 1    
    36   17   77 1    
    37   18   19 1    
    38   18   27 1    
    39   18   78 1    
    40   19   20 am   BACKBONE|DICT|INTERRES
    41   19   79 1    
    42   20   21 2    
    43   20   22 1    
    44   22   23 1    
    45   22   24 1    
    46   22   80 1    
    47   23   81 1    
    48   23   82 1    
    49   23   83 1    
    50   24   25 am   BACKBONE|DICT|INTERRES
    51   24   84 1    
    52   25   26 2    
    53   27   28 2    
    54   27   29 am   BACKBONE|DICT|INTERRES
    55   29   30 1    
    56   29   85 1    
    57   30   31 1    
    58   30   32 1    
    59   30   86 1    
    60   31   87 1    
    61   31   88 1    
    62   31   89 1    
    63   32   33 2    
    64   32   34 am   BACKBONE|DICT|INTERRES
    65   34   35 1    
    66   34   90 1    
    67   35   36 1    
    68   35   37 1    
    69   35   91 1    
    70   36   92 1    
    71   36   93 1    
    72   36   94 1    
    73   37   38 2    
    74   37   39 am   BACKBONE|DICT|INTERRES
    75   39   40 1    
    76   39   95 1    
    77   40   41 1    
    78   40   42 1    
    79   40   96 1    
    80   41   97 1    
    81   41   98 1    
    82   41   99 1    
    83   42   43 2    
    84   42   44 am   BACKBONE|DICT|INTERRES
    85   44   45 1    
    86   44  100 1    
    87   45   46 1    
    88   45   47 1    
    89   45  101 1    
    90   46  102 1    
    91   46  103 1    
    92   46  104 1    
    93   47   48 2    
    94   47   49 am   BACKBONE|DICT|INTERRES
    95   49   50 1    
    96   49  105 1    
    97   50   51 1    
    98   50   52 1    
    99   50  106 1    
   100   51  107 1    
   101   51  108 1    
   102   51  109 1    
   103   52   53 2    
   104   52   54 am   BACKBONE|DICT|INTERRES
   105   54   55 1    
   106   54  110 1    
   107   55   56 1    
   108   55   59 1    
   109   55  111 1    
   110   56   57 am   BACKBONE|DICT|INTERRES
   111   56   58 2    
   112   57  112 1    
   113   57  113 1    
   114   59   60 1    
   115   59  114 1    
   116   59  115 1    
   117   60   61 1    
   118   61  116 1    
   119   61  117 1    
@<TRIPOS>SUBSTRUCTURE
     1 UNK         1 GROUP             0       ****    0 ROOT    
