@<TRIPOS>MOLECULE
3R8
117   119    1
SMALL
USER_CHARGES


@<TRIPOS>ATOM
      1 CA         17.6953  -28.1428  -40.2537 C.3       0 UNK        -0.2013 
      2 C          17.0012  -27.0487  -41.0478 C.2       0 UNK         0.4866 
      3 O          15.9072  -26.6230  -40.6767 O.2       0 UNK        -0.5176 
      4 N          17.6278  -26.5916  -42.1363 N.am      1 UNK        -0.4884 
      5 CA         17.1433  -25.5017  -42.9809 C.3       1 UNK         0.0853 
      6 C6         16.0421  -25.9476  -43.9890 C.3       10 UNK        -0.0849 
      7 S7         16.5960  -27.0088  -45.3667 S.3       10 UNK        -0.2776 
      8 C8         16.5050  -28.7023  -44.6782 C.3       10 UNK         0.0316 
      9 C9         17.7533  -29.5428  -44.9604 C.ar      10 UNK        -0.0863 
     10 C10        18.0970  -30.5874  -44.0943 C.ar      10 UNK        -0.1009 
     11 C11        19.2410  -31.3677  -44.3247 C.ar      10 UNK        -0.0712 
     12 C12        20.0395  -31.0803  -45.4376 C.ar      10 UNK        -0.0894 
     13 C13        19.7194  -30.0401  -46.3120 C.ar      10 UNK        -0.0745 
     14 C14        18.5560  -29.3031  -46.0815 C.ar      10 UNK        -0.0972 
     15 C15        20.6118  -29.7575  -47.5204 C.3       10 UNK         0.0209 
     16 S16        20.6708  -27.9939  -48.0070 S.3       10 UNK        -0.2568 
     17 C17        22.2439  -27.3753  -47.3069 C.3       10 UNK        -0.0983 
     18 CA         22.1284  -26.4288  -46.0760 C.3       3 UNK         0.0876 
     19 N          20.9143  -25.6036  -46.0699 N.am      3 UNK        -0.4424 
     20 C          20.8198  -24.4038  -45.4808 C.2       2 UNK         0.4918 
     21 O          21.7568  -23.8423  -44.9124 O.2       2 UNK        -0.4875 
     22 CA         19.4473  -23.7079  -45.5390 C.3       2 UNK         0.0481 
     23 CB         19.0208  -23.4266  -46.9903 C.3       2 UNK        -0.1831 
     24 N          18.3892  -24.4505  -44.8478 N.am      2 UNK        -0.4498 
     25 C          18.3647  -24.7400  -43.5390 C.2       1 UNK         0.5027 
     26 O          19.2594  -24.4142  -42.7562 O.2       1 UNK        -0.4969 
     27 C          22.3102  -27.1743  -44.7428 C.2       3 UNK         0.5005 
     28 O          23.4147  -27.1772  -44.1944 O.2       3 UNK        -0.5279 
     29 N          21.2323  -27.8090  -44.2554 N.am      4 UNK        -0.4463 
     30 CA         21.1235  -28.5473  -42.9863 C.3       4 UNK         0.0283 
     31 CB         21.2480  -27.5764  -41.7938 C.3       4 UNK        -0.1875 
     32 C          22.0844  -29.7473  -42.8273 C.2       4 UNK         0.4949 
     33 O          22.1569  -30.3033  -41.7311 O.2       4 UNK        -0.5039 
     34 N          22.8091  -30.1125  -43.8976 N.am      5 UNK        -0.4663 
     35 CA         23.9113  -31.0830  -43.9569 C.3       5 UNK         0.0242 
     36 CB         23.3870  -32.5293  -43.8553 C.3       5 UNK        -0.1982 
     37 C          25.0183  -30.7680  -42.9324 C.2       5 UNK         0.5017 
     38 O          25.4501  -31.6571  -42.1983 O.2       5 UNK        -0.5012 
     39 N          25.4158  -29.4863  -42.8738 N.am      6 UNK        -0.4439 
     40 CA         26.3577  -28.9066  -41.9054 C.3       6 UNK         0.0297 
     41 CB         27.7818  -29.4697  -42.1025 C.3       6 UNK        -0.2006 
     42 C          25.8491  -29.0312  -40.4541 C.2       6 UNK         0.4892 
     43 O          26.6108  -29.3886  -39.5543 O.2       6 UNK        -0.5089 
     44 N          24.5532  -28.7352  -40.2788 N.am      7 UNK        -0.4243 
     45 CA         23.7709  -28.7718  -39.0379 C.3       7 UNK         0.0196 
     46 CB         24.3668  -27.8387  -37.9619 C.3       7 UNK        -0.2007 
     47 C          23.4793  -30.1863  -38.5002 C.2       7 UNK         0.5020 
     48 O          23.0177  -30.3051  -37.3647 O.2       7 UNK        -0.5147 
     49 N          23.6790  -31.2349  -39.3124 N.am      8 UNK        -0.4734 
     50 CA         23.3158  -32.6152  -38.9675 C.3       8 UNK         0.0238 
     51 CB         23.9795  -33.5971  -39.9429 C.3       8 UNK        -0.1912 
     52 C          21.7933  -32.8425  -38.9014 C.2       8 UNK         0.5038 
     53 O          21.3532  -33.6771  -38.1095 O.2       8 UNK        -0.5046 
     54 N          21.0194  -32.0766  -39.6852 N.am      9 UNK        -0.4200 
     55 CA         19.5563  -31.9641  -39.5438 C.3       9 UNK         0.0839 
     56 C          19.1045  -31.0588  -38.3560 C.2       9 UNK         0.5513 
     57 N          19.9929  -30.4173  -37.6057 N.am      9 UNK        -0.7519 
     58 O          17.9092  -30.9439  -38.0991 O.2       9 UNK        -0.4960 
     59 C59        18.8715  -31.5405  -40.8743 C.3       10 UNK        -0.0876 
     60 S60        18.5997  -32.9397  -42.0116 S.3       10 UNK        -0.2414 
     61 C61        19.6847  -32.5193  -43.4147 C.3       10 UNK         0.0169 
     62 H62        18.0573  -27.7482  -39.3047 H         1 UNK         0.0903 
     63 H63        16.9951  -28.9495  -40.0390 H         1 UNK         0.0903 
     64 H64        18.5419  -28.5605  -40.7949 H         1 UNK         0.0903 
     65 H65        18.5470  -26.9328  -42.3764 H         1 UNK         0.3096 
     66 H66        16.6712  -24.7703  -42.3202 H         1 UNK         0.1121 
     67 H67        15.2347  -26.4547  -43.4584 H         1 UNK         0.0849 
     68 H68        15.5748  -25.0633  -44.4257 H         1 UNK         0.0849 
     69 H69        16.3345  -28.6502  -43.6026 H         1 UNK         0.0865 
     70 H70        15.6367  -29.2075  -45.1027 H         1 UNK         0.0865 
     71 H71        17.4627  -30.7848  -43.2429 H         1 UNK         0.1346 
     72 H72        20.9224  -31.6740  -45.6254 H         1 UNK         0.1412 
     73 H73        18.2779  -28.5329  -46.7854 H         1 UNK         0.1426 
     74 H74        20.2208  -30.3276  -48.3640 H         1 UNK         0.0716 
     75 H75        21.6238  -30.1264  -47.3483 H         1 UNK         0.0716 
     76 H76        22.7193  -26.8172  -48.1151 H         1 UNK         0.0695 
     77 H77        22.9242  -28.2074  -47.1158 H         1 UNK         0.0695 
     78 H78        22.9818  -25.7488  -46.1386 H         1 UNK         0.0983 
     79 H79        20.1101  -25.9920  -46.5413 H         1 UNK         0.3095 
     80 H80        19.5498  -22.7448  -45.0345 H         1 UNK         0.0454 
     81 H81        19.8027  -22.8910  -47.5305 H         1 UNK         0.0851 
     82 H82        18.1254  -22.8058  -47.0246 H         1 UNK         0.0851 
     83 H83        18.8112  -24.3428  -47.5434 H         1 UNK         0.0851 
     84 H84        17.6329  -24.8056  -45.4182 H         1 UNK         0.2976 
     85 H85        20.3949  -27.8003  -44.8221 H         1 UNK         0.3116 
     86 H86        20.1167  -28.9620  -42.9670 H         1 UNK         0.0646 
     87 H87        22.2607  -27.1853  -41.6948 H         1 UNK         0.0847 
     88 H88        20.5807  -26.7222  -41.8985 H         1 UNK         0.0847 
     89 H89        20.9945  -28.0700  -40.8553 H         1 UNK         0.0847 
     90 H90        22.6646  -29.5704  -44.7365 H         1 UNK         0.3040 
     91 H91        24.3750  -30.9737  -44.9386 H         1 UNK         0.1015 
     92 H92        24.2036  -33.2493  -43.9231 H         1 UNK         0.0786 
     93 H93        22.6933  -32.7616  -44.6613 H         1 UNK         0.0786 
     94 H94        22.8774  -32.7053  -42.9108 H         1 UNK         0.0786 
     95 H95        24.9624  -28.8242  -43.4938 H         1 UNK         0.3172 
     96 H96        26.3968  -27.8379  -42.1219 H         1 UNK         0.0595 
     97 H97        27.8414  -30.5278  -41.8462 H         1 UNK         0.0839 
     98 H98        28.4986  -28.9443  -41.4702 H         1 UNK         0.0839 
     99 H99        28.1156  -29.3545  -43.1336 H         1 UNK         0.0839 
    100 H100       24.0246  -28.5043  -41.1077 H         1 UNK         0.2998 
    101 H101       22.7944  -28.3651  -39.3007 H         1 UNK         0.0822 
    102 H102       23.6855  -27.7305  -37.1171 H         1 UNK         0.0787 
    103 H103       24.5483  -26.8396  -38.3580 H         1 UNK         0.0787 
    104 H104       25.3085  -28.2215  -37.5677 H         1 UNK         0.0787 
    105 H105       24.0185  -31.0678  -40.2515 H         1 UNK         0.3055 
    106 H106       23.7118  -32.8209  -37.9703 H         1 UNK         0.1106 
    107 H107       25.0626  -33.4731  -39.9566 H         1 UNK         0.0828 
    108 H108       23.7739  -34.6295  -39.6571 H         1 UNK         0.0828 
    109 H109       23.6159  -33.4637  -40.9593 H         1 UNK         0.0828 
    110 H110       21.4667  -31.4249  -40.3245 H         1 UNK         0.2931 
    111 H111       19.1737  -32.9536  -39.2859 H         1 UNK         0.0412 
    112 H112       19.6602  -29.8492  -36.8430 H         1 UNK         0.3472 
    113 H113       20.9891  -30.5291  -37.7428 H         1 UNK         0.3472 
    114 H114       17.8795  -31.1235  -40.6950 H         1 UNK         0.0970 
    115 H115       19.4399  -30.7517  -41.3666 H         1 UNK         0.0970 
    116 H116       20.6693  -32.2950  -43.0122 H         1 UNK         0.0612 
    117 H117       19.7984  -33.4167  -44.0244 H         1 UNK         0.0612 
@<TRIPOS>BOND
     1    1    2 1    
     2    1   62 1    
     3    1   63 1    
     4    1   64 1    
     5    2    3 2    
     6    2    4 am   BACKBONE|DICT|INTERRES
     7    4    5 1    
     8    4   65 1    
     9    5    6 1    
    10    5   25 1    
    11    5   66 1    
    12    6    7 1    
    13    6   67 1    
    14    6   68 1    
    15    7    8 1    
    16    8    9 1    
    17    8   69 1    
    18    8   70 1    
    19    9   10 ar   
    20    9   14 ar   
    21   10   11 ar   
    22   10   71 1    
    23   11   12 ar   
    24   11   61 1    
    25   12   13 ar   
    26   12   72 1    
    27   13   14 ar   
    28   13   15 1    
    29   14   73 1    
    30   15   16 1    
    31   15   74 1    
    32   15   75 1    
    33   16   17 1    
    34   17   18 1    
    35   17   76 1    
    36   17   77 1    
    37   18   19 1    
    38   18   27 1    
    39   18   78 1    
    40   19   20 am   BACKBONE|DICT|INTERRES
    41   19   79 1    
    42   20   21 2    
    43   20   22 1    
    44   22   23 1    
    45   22   24 1    
    46   22   80 1    
    47   23   81 1    
    48   23   82 1    
    49   23   83 1    
    50   24   25 am   BACKBONE|DICT|INTERRES
    51   24   84 1    
    52   25   26 2    
    53   27   28 2    
    54   27   29 am   BACKBONE|DICT|INTERRES
    55   29   30 1    
    56   29   85 1    
    57   30   31 1    
    58   30   32 1    
    59   30   86 1    
    60   31   87 1    
    61   31   88 1    
    62   31   89 1    
    63   32   33 2    
    64   32   34 am   BACKBONE|DICT|INTERRES
    65   34   35 1    
    66   34   90 1    
    67   35   36 1    
    68   35   37 1    
    69   35   91 1    
    70   36   92 1    
    71   36   93 1    
    72   36   94 1    
    73   37   38 2    
    74   37   39 am   BACKBONE|DICT|INTERRES
    75   39   40 1    
    76   39   95 1    
    77   40   41 1    
    78   40   42 1    
    79   40   96 1    
    80   41   97 1    
    81   41   98 1    
    82   41   99 1    
    83   42   43 2    
    84   42   44 am   BACKBONE|DICT|INTERRES
    85   44   45 1    
    86   44  100 1    
    87   45   46 1    
    88   45   47 1    
    89   45  101 1    
    90   46  102 1    
    91   46  103 1    
    92   46  104 1    
    93   47   48 2    
    94   47   49 am   BACKBONE|DICT|INTERRES
    95   49   50 1    
    96   49  105 1    
    97   50   51 1    
    98   50   52 1    
    99   50  106 1    
   100   51  107 1    
   101   51  108 1    
   102   51  109 1    
   103   52   53 2    
   104   52   54 am   BACKBONE|DICT|INTERRES
   105   54   55 1    
   106   54  110 1    
   107   55   56 1    
   108   55   59 1    
   109   55  111 1    
   110   56   57 am   BACKBONE|DICT|INTERRES
   111   56   58 2    
   112   57  112 1    
   113   57  113 1    
   114   59   60 1    
   115   59  114 1    
   116   59  115 1    
   117   60   61 1    
   118   61  116 1    
   119   61  117 1    
@<TRIPOS>SUBSTRUCTURE
     1 UNK         1 GROUP             0       ****    0 ROOT    
