@<TRIPOS>MOLECULE
3R8
117   119    1
SMALL
USER_CHARGES


@<TRIPOS>ATOM
      1 CA         16.9083  -25.0688  -40.9145 C.3       0 UNK        -0.2013 
      2 C          17.2479  -25.7258  -42.2433 C.2       0 UNK         0.4866 
      3 O          18.1318  -26.5816  -42.2968 O.2       0 UNK        -0.5176 
      4 N          16.5669  -25.3158  -43.3251 N.am      1 UNK        -0.4884 
      5 CA         16.6917  -25.8744  -44.6831 C.3       1 UNK         0.0853 
      6 C6         16.2056  -27.3525  -44.7258 C.3       10 UNK        -0.0849 
      7 S7         15.4839  -27.8401  -46.3289 S.3       10 UNK        -0.2776 
      8 C8         15.1161  -29.6053  -46.0332 C.3       10 UNK         0.0316 
      9 C9         16.3411  -30.4020  -45.5960 C.ar      10 UNK        -0.0863 
     10 C10        16.3338  -31.0994  -44.3819 C.ar      10 UNK        -0.1009 
     11 C11        17.4671  -31.8019  -43.9590 C.ar      10 UNK        -0.0712 
     12 C12        18.6064  -31.8150  -44.7666 C.ar      10 UNK        -0.0894 
     13 C13        18.6362  -31.0991  -45.9654 C.ar      10 UNK        -0.0745 
     14 C14        17.4939  -30.4154  -46.3883 C.ar      10 UNK        -0.0972 
     15 C15        19.9294  -31.0027  -46.7598 C.3       10 UNK         0.0209 
     16 S16        20.7505  -29.3929  -46.5054 S.3       10 UNK        -0.2568 
     17 C17        20.8333  -29.3030  -44.6841 C.3       10 UNK        -0.0983 
     18 CA         21.5624  -28.0405  -44.1765 C.3       3 UNK         0.0876 
     19 N          20.8560  -26.8244  -44.5842 N.am      3 UNK        -0.4424 
     20 C          21.2330  -25.5573  -44.3830 C.2       2 UNK         0.4918 
     21 O          22.2479  -25.2398  -43.7627 O.2       2 UNK        -0.4875 
     22 CA         20.3109  -24.4527  -44.9416 C.3       2 UNK         0.0481 
     23 CB         20.6521  -24.1354  -46.4099 C.3       2 UNK        -0.1831 
     24 N          18.8741  -24.7169  -44.7546 N.am      2 UNK        -0.4498 
     25 C          18.1089  -25.6851  -45.2884 C.2       1 UNK         0.5027 
     26 O          18.5093  -26.4435  -46.1716 O.2       1 UNK        -0.4969 
     27 C          21.8118  -28.1480  -42.6580 C.2       3 UNK         0.5005 
     28 O          22.7899  -28.7875  -42.2727 O.2       3 UNK        -0.5279 
     29 N          20.9723  -27.5159  -41.8189 N.am      4 UNK        -0.4463 
     30 CA         21.1343  -27.4698  -40.3571 C.3       4 UNK         0.0283 
     31 CB         19.8767  -26.8794  -39.7033 C.3       4 UNK        -0.1875 
     32 C          22.3948  -26.7357  -39.8617 C.2       4 UNK         0.4949 
     33 O          22.7392  -26.8675  -38.6872 O.2       4 UNK        -0.5039 
     34 N          23.0809  -26.0025  -40.7499 N.am      5 UNK        -0.4663 
     35 CA         24.4098  -25.4374  -40.5021 C.3       5 UNK         0.0242 
     36 CB         24.7068  -24.3789  -41.5769 C.3       5 UNK        -0.1982 
     37 C          25.5301  -26.4993  -40.4653 C.2       5 UNK         0.5017 
     38 O          26.6423  -26.1714  -40.0494 O.2       5 UNK        -0.5012 
     39 N          25.2372  -27.7301  -40.9055 N.am      6 UNK        -0.4439 
     40 CA         26.1490  -28.8679  -40.9475 C.3       6 UNK         0.0297 
     41 CB         26.5428  -29.1126  -42.4168 C.3       6 UNK        -0.2006 
     42 C          25.4689  -30.1059  -40.3425 C.2       6 UNK         0.4892 
     43 O          24.2886  -30.0688  -39.9844 O.2       6 UNK        -0.5089 
     44 N          26.2187  -31.2148  -40.2876 N.am      7 UNK        -0.4243 
     45 CA         25.7515  -32.5353  -39.8432 C.3       7 UNK         0.0196 
     46 CB         26.9637  -33.4738  -39.7186 C.3       7 UNK        -0.2007 
     47 C          24.6660  -33.1674  -40.7414 C.2       7 UNK         0.5020 
     48 O          24.0812  -34.1789  -40.3537 O.2       7 UNK        -0.5147 
     49 N          24.4096  -32.5678  -41.9132 N.am      8 UNK        -0.4734 
     50 CA         23.3536  -32.9398  -42.8562 C.3       8 UNK         0.0238 
     51 CB         23.5186  -32.1149  -44.1432 C.3       8 UNK        -0.1912 
     52 C          21.9290  -32.7897  -42.2905 C.2       8 UNK         0.5038 
     53 O          21.0487  -33.5392  -42.7133 O.2       8 UNK        -0.5046 
     54 N          21.7261  -31.8572  -41.3494 N.am      9 UNK        -0.4200 
     55 CA         20.4626  -31.6870  -40.6143 C.3       9 UNK         0.0839 
     56 C          20.6429  -31.2080  -39.1455 C.2       9 UNK         0.5513 
     57 N          21.8285  -30.8145  -38.6927 N.am      9 UNK        -0.7519 
     58 O          19.6850  -31.2181  -38.3778 O.2       9 UNK        -0.4960 
     59 C59        19.4265  -30.8436  -41.4132 C.3       10 UNK        -0.0876 
     60 S60        17.7011  -31.4082  -41.2082 S.3       10 UNK        -0.2414 
     61 C61        17.4723  -32.5353  -42.6242 C.3       10 UNK         0.0169 
     62 H62        16.0028  -24.4660  -40.9784 H         1 UNK         0.0903 
     63 H63        17.7255  -24.4237  -40.5941 H         1 UNK         0.0903 
     64 H64        16.7533  -25.8296  -40.1500 H         1 UNK         0.0903 
     65 H65        15.8689  -24.5910  -43.2207 H         1 UNK         0.3096 
     66 H66        16.0243  -25.2773  -45.3068 H         1 UNK         0.1121 
     67 H67        17.0171  -28.0316  -44.4557 H         1 UNK         0.0849 
     68 H68        15.4289  -27.5142  -43.9765 H         1 UNK         0.0849 
     69 H69        14.3212  -29.6771  -45.2891 H         1 UNK         0.0865 
     70 H70        14.7180  -30.0425  -46.9497 H         1 UNK         0.0865 
     71 H71        15.4542  -31.0830  -43.7529 H         1 UNK         0.1346 
     72 H72        19.4898  -32.3439  -44.4370 H         1 UNK         0.1412 
     73 H73        17.5194  -29.8493  -47.3097 H         1 UNK         0.1426 
     74 H74        20.6160  -31.8029  -46.4790 H         1 UNK         0.0716 
     75 H75        19.7203  -31.1342  -47.8223 H         1 UNK         0.0716 
     76 H76        21.3164  -30.2119  -44.3242 H         1 UNK         0.0695 
     77 H77        19.8160  -29.3114  -44.2889 H         1 UNK         0.0695 
     78 H78        22.5482  -28.0041  -44.6449 H         1 UNK         0.0983 
     79 H79        20.0199  -26.9688  -45.1439 H         1 UNK         0.3095 
     80 H80        20.5174  -23.5535  -44.3592 H         1 UNK         0.0454 
     81 H81        20.0352  -23.3233  -46.7942 H         1 UNK         0.0851 
     82 H82        20.5142  -24.9990  -47.0610 H         1 UNK         0.0851 
     83 H83        21.6932  -23.8248  -46.5060 H         1 UNK         0.0851 
     84 H84        18.4416  -24.1772  -44.0176 H         1 UNK         0.2976 
     85 H85        20.1523  -27.0508  -42.1986 H         1 UNK         0.3116 
     86 H86        21.2343  -28.4985  -40.0147 H         1 UNK         0.0646 
     87 H87        18.9926  -27.4732  -39.9351 H         1 UNK         0.0847 
     88 H88        19.9700  -26.8603  -38.6166 H         1 UNK         0.0847 
     89 H89        19.6992  -25.8560  -40.0331 H         1 UNK         0.0847 
     90 H90        22.7234  -25.9222  -41.6950 H         1 UNK         0.3040 
     91 H91        24.3990  -24.9445  -39.5274 H         1 UNK         0.1015 
     92 H92        24.7521  -24.8198  -42.5736 H         1 UNK         0.0786 
     93 H93        25.6648  -23.8908  -41.3923 H         1 UNK         0.0786 
     94 H94        23.9441  -23.6000  -41.5899 H         1 UNK         0.0786 
     95 H95        24.2819  -27.9494  -41.1778 H         1 UNK         0.3172 
     96 H96        27.0459  -28.6634  -40.3594 H         1 UNK         0.0595 
     97 H97        27.2638  -29.9248  -42.5135 H         1 UNK         0.0839 
     98 H98        27.0045  -28.2260  -42.8520 H         1 UNK         0.0839 
     99 H99        25.6751  -29.3665  -43.0280 H         1 UNK         0.0839 
    100 H100       27.1779  -31.1636  -40.6003 H         1 UNK         0.2998 
    101 H101       25.3089  -32.4133  -38.8522 H         1 UNK         0.0822 
    102 H102       27.7018  -33.0799  -39.0195 H         1 UNK         0.0787 
    103 H103       26.6635  -34.4551  -39.3481 H         1 UNK         0.0787 
    104 H104       27.4564  -33.6257  -40.6798 H         1 UNK         0.0787 
    105 H105       24.9454  -31.7437  -42.1401 H         1 UNK         0.3055 
    106 H106       23.4871  -33.9952  -43.1041 H         1 UNK         0.1106 
    107 H107       24.4640  -32.3389  -44.6376 H         1 UNK         0.0828 
    108 H108       22.7231  -32.3347  -44.8569 H         1 UNK         0.0828 
    109 H109       23.4938  -31.0434  -43.9415 H         1 UNK         0.0828 
    110 H110       22.4951  -31.2605  -41.0738 H         1 UNK         0.2931 
    111 H111       20.0520  -32.6925  -40.5002 H         1 UNK         0.0412 
    112 H112       21.8917  -30.5308  -37.7282 H         1 UNK         0.3472 
    113 H113       22.6496  -30.7113  -39.2798 H         1 UNK         0.3472 
    114 H114       19.4739  -29.7924  -41.1292 H         1 UNK         0.0970 
    115 H115       19.6644  -30.8567  -42.4737 H         1 UNK         0.0970 
    116 H116       18.2520  -33.2983  -42.6042 H         1 UNK         0.0612 
    117 H117       16.5262  -33.0640  -42.5008 H         1 UNK         0.0612 
@<TRIPOS>BOND
     1    1    2 1    
     2    1   62 1    
     3    1   63 1    
     4    1   64 1    
     5    2    3 2    
     6    2    4 am   BACKBONE|DICT|INTERRES
     7    4    5 1    
     8    4   65 1    
     9    5    6 1    
    10    5   25 1    
    11    5   66 1    
    12    6    7 1    
    13    6   67 1    
    14    6   68 1    
    15    7    8 1    
    16    8    9 1    
    17    8   69 1    
    18    8   70 1    
    19    9   10 ar   
    20    9   14 ar   
    21   10   11 ar   
    22   10   71 1    
    23   11   12 ar   
    24   11   61 1    
    25   12   13 ar   
    26   12   72 1    
    27   13   14 ar   
    28   13   15 1    
    29   14   73 1    
    30   15   16 1    
    31   15   74 1    
    32   15   75 1    
    33   16   17 1    
    34   17   18 1    
    35   17   76 1    
    36   17   77 1    
    37   18   19 1    
    38   18   27 1    
    39   18   78 1    
    40   19   20 am   BACKBONE|DICT|INTERRES
    41   19   79 1    
    42   20   21 2    
    43   20   22 1    
    44   22   23 1    
    45   22   24 1    
    46   22   80 1    
    47   23   81 1    
    48   23   82 1    
    49   23   83 1    
    50   24   25 am   BACKBONE|DICT|INTERRES
    51   24   84 1    
    52   25   26 2    
    53   27   28 2    
    54   27   29 am   BACKBONE|DICT|INTERRES
    55   29   30 1    
    56   29   85 1    
    57   30   31 1    
    58   30   32 1    
    59   30   86 1    
    60   31   87 1    
    61   31   88 1    
    62   31   89 1    
    63   32   33 2    
    64   32   34 am   BACKBONE|DICT|INTERRES
    65   34   35 1    
    66   34   90 1    
    67   35   36 1    
    68   35   37 1    
    69   35   91 1    
    70   36   92 1    
    71   36   93 1    
    72   36   94 1    
    73   37   38 2    
    74   37   39 am   BACKBONE|DICT|INTERRES
    75   39   40 1    
    76   39   95 1    
    77   40   41 1    
    78   40   42 1    
    79   40   96 1    
    80   41   97 1    
    81   41   98 1    
    82   41   99 1    
    83   42   43 2    
    84   42   44 am   BACKBONE|DICT|INTERRES
    85   44   45 1    
    86   44  100 1    
    87   45   46 1    
    88   45   47 1    
    89   45  101 1    
    90   46  102 1    
    91   46  103 1    
    92   46  104 1    
    93   47   48 2    
    94   47   49 am   BACKBONE|DICT|INTERRES
    95   49   50 1    
    96   49  105 1    
    97   50   51 1    
    98   50   52 1    
    99   50  106 1    
   100   51  107 1    
   101   51  108 1    
   102   51  109 1    
   103   52   53 2    
   104   52   54 am   BACKBONE|DICT|INTERRES
   105   54   55 1    
   106   54  110 1    
   107   55   56 1    
   108   55   59 1    
   109   55  111 1    
   110   56   57 am   BACKBONE|DICT|INTERRES
   111   56   58 2    
   112   57  112 1    
   113   57  113 1    
   114   59   60 1    
   115   59  114 1    
   116   59  115 1    
   117   60   61 1    
   118   61  116 1    
   119   61  117 1    
@<TRIPOS>SUBSTRUCTURE
     1 UNK         1 GROUP             0       ****    0 ROOT    
