@<TRIPOS>MOLECULE
3R8
117   119    1
SMALL
USER_CHARGES


@<TRIPOS>ATOM
      1 CA         18.1350  -21.8076  -45.9425 C.3       0 UNK        -0.2013 
      2 C          18.5954  -22.9868  -46.7860 C.2       0 UNK         0.4866 
      3 O          19.5371  -22.8515  -47.5672 O.2       0 UNK        -0.5176 
      4 N          17.9424  -24.1460  -46.6321 N.am      1 UNK        -0.4884 
      5 CA         18.2455  -25.3854  -47.3625 C.3       1 UNK         0.0853 
      6 C6         16.9942  -26.2963  -47.4700 C.3       10 UNK        -0.0849 
      7 S7         16.3427  -26.8643  -45.8586 S.3       10 UNK        -0.2776 
      8 C8         16.9378  -28.5930  -45.8580 C.3       10 UNK         0.0316 
      9 C9         16.8138  -29.3446  -44.5321 C.ar      10 UNK        -0.0863 
     10 C10        17.0651  -30.7203  -44.5337 C.ar      10 UNK        -0.1009 
     11 C11        17.0087  -31.4676  -43.3539 C.ar      10 UNK        -0.0712 
     12 C12        16.6720  -30.8258  -42.1579 C.ar      10 UNK        -0.0894 
     13 C13        16.4491  -29.4467  -42.1310 C.ar      10 UNK        -0.0745 
     14 C14        16.5123  -28.7128  -43.3183 C.ar      10 UNK        -0.0972 
     15 C15        16.1895  -28.7442  -40.8085 C.3       10 UNK         0.0209 
     16 S16        17.6967  -28.6886  -39.7867 S.3       10 UNK        -0.2568 
     17 C17        18.7884  -27.5699  -40.7392 C.3       10 UNK        -0.0983 
     18 CA         19.7481  -28.2712  -41.7467 C.3       3 UNK         0.0876 
     19 N          20.2490  -27.2928  -42.7150 N.am      3 UNK        -0.4424 
     20 C          20.4772  -27.5195  -44.0132 C.2       2 UNK         0.4918 
     21 O          20.2625  -28.5924  -44.5772 O.2       2 UNK        -0.4875 
     22 CA         21.0263  -26.3185  -44.8037 C.3       2 UNK         0.0481 
     23 CB         22.3032  -26.6594  -45.5998 C.3       2 UNK        -0.1831 
     24 N          19.9796  -25.7177  -45.6381 N.am      2 UNK        -0.4498 
     25 C          19.4705  -26.1497  -46.8042 C.2       1 UNK         0.5027 
     26 O          19.9075  -27.1069  -47.4442 O.2       1 UNK        -0.4969 
     27 C          20.9244  -29.0183  -41.0719 C.2       3 UNK         0.5005 
     28 O          22.0767  -28.9183  -41.5070 O.2       3 UNK        -0.5279 
     29 N          20.6202  -29.7545  -39.9955 N.am      4 UNK        -0.4463 
     30 CA         21.5765  -30.4781  -39.1509 C.3       4 UNK         0.0283 
     31 CB         20.8124  -31.3504  -38.1427 C.3       4 UNK        -0.1875 
     32 C          22.5584  -29.5482  -38.4189 C.2       4 UNK         0.4949 
     33 O          23.6869  -29.9560  -38.1516 O.2       4 UNK        -0.5039 
     34 N          22.1438  -28.2976  -38.1672 N.am      5 UNK        -0.4663 
     35 CA         22.9866  -27.2226  -37.6316 C.3       5 UNK         0.0242 
     36 CB         22.1031  -26.0080  -37.3049 C.3       5 UNK        -0.1982 
     37 C          24.1357  -26.8143  -38.5749 C.2       5 UNK         0.5017 
     38 O          25.1613  -26.3298  -38.0970 O.2       5 UNK        -0.5012 
     39 N          23.9540  -27.0402  -39.8840 N.am      6 UNK        -0.4439 
     40 CA         24.9717  -26.8640  -40.9221 C.3       6 UNK         0.0297 
     41 CB         24.2907  -26.2982  -42.1809 C.3       6 UNK        -0.2006 
     42 C          25.7066  -28.1809  -41.2456 C.2       6 UNK         0.4892 
     43 O          26.5631  -28.1793  -42.1299 O.2       6 UNK        -0.5089 
     44 N          25.3459  -29.2773  -40.5565 N.am      7 UNK        -0.4243 
     45 CA         25.8149  -30.6583  -40.7325 C.3       7 UNK         0.0196 
     46 CB         27.3210  -30.7748  -40.4149 C.3       7 UNK        -0.2007 
     47 C          25.4477  -31.2820  -42.0948 C.2       7 UNK         0.5020 
     48 O          26.0433  -32.2907  -42.4759 O.2       7 UNK        -0.5147 
     49 N          24.4795  -30.6898  -42.8074 N.am      8 UNK        -0.4734 
     50 CA         24.0372  -31.1493  -44.1252 C.3       8 UNK         0.0238 
     51 CB         23.5111  -29.9514  -44.9257 C.3       8 UNK        -0.1912 
     52 C          22.9760  -32.2536  -44.0231 C.2       8 UNK         0.5038 
     53 O          23.0181  -33.2047  -44.8043 O.2       8 UNK        -0.5046 
     54 N          22.0580  -32.1137  -43.0594 N.am      9 UNK        -0.4200 
     55 CA         21.0587  -33.1295  -42.7099 C.3       9 UNK         0.0839 
     56 C          21.6927  -34.2056  -41.7892 C.2       9 UNK         0.5513 
     57 N          21.4917  -35.4818  -42.0857 N.am      9 UNK        -0.7519 
     58 O          22.3413  -33.8867  -40.7949 O.2       9 UNK        -0.4960 
     59 C59        19.8170  -32.4653  -42.0678 C.3       10 UNK        -0.0876 
     60 S60        18.3499  -33.5509  -41.9960 S.3       10 UNK        -0.2414 
     61 C61        17.3335  -32.9598  -43.3950 C.3       10 UNK         0.0169 
     62 H62        17.2983  -22.0702  -45.2953 H         1 UNK         0.0903 
     63 H63        18.9518  -21.4534  -45.3142 H         1 UNK         0.0903 
     64 H64        17.8202  -20.9868  -46.5864 H         1 UNK         0.0903 
     65 H65        17.1723  -24.2086  -45.9794 H         1 UNK         0.3096 
     66 H66        18.5195  -25.1067  -48.3830 H         1 UNK         0.1121 
     67 H67        17.2017  -27.1562  -48.1102 H         1 UNK         0.0849 
     68 H68        16.1954  -25.7525  -47.9767 H         1 UNK         0.0849 
     69 H69        16.3944  -29.1395  -46.6304 H         1 UNK         0.0865 
     70 H70        17.9883  -28.6099  -46.1495 H         1 UNK         0.0865 
     71 H71        17.3246  -31.2107  -45.4624 H         1 UNK         0.1346 
     72 H72        16.6270  -31.3896  -41.2362 H         1 UNK         0.1412 
     73 H73        16.3503  -27.6455  -43.2797 H         1 UNK         0.1426 
     74 H74        15.4108  -29.2792  -40.2630 H         1 UNK         0.0716 
     75 H75        15.8150  -27.7313  -40.9645 H         1 UNK         0.0716 
     76 H76        18.1431  -26.8703  -41.2736 H         1 UNK         0.0695 
     77 H77        19.3533  -26.9573  -40.0339 H         1 UNK         0.0695 
     78 H78        19.1823  -29.0289  -42.2912 H         1 UNK         0.0983 
     79 H79        20.4869  -26.3878  -42.3375 H         1 UNK         0.3095 
     80 H80        21.3058  -25.5422  -44.0895 H         1 UNK         0.0454 
     81 H81        23.1207  -26.9191  -44.9285 H         1 UNK         0.0851 
     82 H82        22.6358  -25.8131  -46.2003 H         1 UNK         0.0851 
     83 H83        22.1592  -27.5092  -46.2673 H         1 UNK         0.0851 
     84 H84        19.5125  -24.9216  -45.2276 H         1 UNK         0.2976 
     85 H85        19.6519  -29.7575  -39.6942 H         1 UNK         0.3116 
     86 H86        22.1653  -31.1339  -39.7961 H         1 UNK         0.0646 
     87 H87        20.1856  -30.7510  -37.4813 H         1 UNK         0.0847 
     88 H88        20.1731  -32.0771  -38.6436 H         1 UNK         0.0847 
     89 H89        21.5037  -31.9138  -37.5143 H         1 UNK         0.0847 
     90 H90        21.1911  -28.0568  -38.3983 H         1 UNK         0.3040 
     91 H91        23.4398  -27.5812  -36.7045 H         1 UNK         0.1015 
     92 H92        22.6964  -25.1975  -36.8787 H         1 UNK         0.0786 
     93 H93        21.3338  -26.2609  -36.5749 H         1 UNK         0.0786 
     94 H94        21.6080  -25.6161  -38.1944 H         1 UNK         0.0786 
     95 H95        23.0903  -27.4748  -40.1858 H         1 UNK         0.3172 
     96 H96        25.7231  -26.1447  -40.5902 H         1 UNK         0.0595 
     97 H97        23.5492  -26.9896  -42.5804 H         1 UNK         0.0839 
     98 H98        25.0185  -26.1087  -42.9710 H         1 UNK         0.0839 
     99 H99        23.7903  -25.3528  -41.9712 H         1 UNK         0.0839 
    100 H100       24.6548  -29.1660  -39.8240 H         1 UNK         0.2998 
    101 H101       25.2797  -31.2503  -39.9887 H         1 UNK         0.0822 
    102 H102       27.6361  -31.8186  -40.3856 H         1 UNK         0.0787 
    103 H103       27.5556  -30.3410  -39.4429 H         1 UNK         0.0787 
    104 H104       27.9338  -30.2731  -41.1643 H         1 UNK         0.0787 
    105 H105       24.0124  -29.8810  -42.4159 H         1 UNK         0.3055 
    106 H106       24.8901  -31.5642  -44.6679 H         1 UNK         0.1106 
    107 H107       22.7080  -29.4450  -44.3934 H         1 UNK         0.0828 
    108 H108       24.3011  -29.2237  -45.1117 H         1 UNK         0.0828 
    109 H109       23.1191  -30.2627  -45.8949 H         1 UNK         0.0828 
    110 H110       22.1326  -31.3191  -42.4416 H         1 UNK         0.2931 
    111 H111       20.7310  -33.6065  -43.6364 H         1 UNK         0.0412 
    112 H112       21.8874  -36.1929  -41.4906 H         1 UNK         0.3472 
    113 H113       20.9457  -35.7477  -42.8907 H         1 UNK         0.3472 
    114 H114       20.0390  -32.1444  -41.0516 H         1 UNK         0.0970 
    115 H115       19.5621  -31.5586  -42.6167 H         1 UNK         0.0970 
    116 H116       16.3979  -33.5199  -43.4075 H         1 UNK         0.0612 
    117 H117       17.8571  -33.2102  -44.3190 H         1 UNK         0.0612 
@<TRIPOS>BOND
     1    1    2 1    
     2    1   62 1    
     3    1   63 1    
     4    1   64 1    
     5    2    3 2    
     6    2    4 am   BACKBONE|DICT|INTERRES
     7    4    5 1    
     8    4   65 1    
     9    5    6 1    
    10    5   25 1    
    11    5   66 1    
    12    6    7 1    
    13    6   67 1    
    14    6   68 1    
    15    7    8 1    
    16    8    9 1    
    17    8   69 1    
    18    8   70 1    
    19    9   10 ar   
    20    9   14 ar   
    21   10   11 ar   
    22   10   71 1    
    23   11   12 ar   
    24   11   61 1    
    25   12   13 ar   
    26   12   72 1    
    27   13   14 ar   
    28   13   15 1    
    29   14   73 1    
    30   15   16 1    
    31   15   74 1    
    32   15   75 1    
    33   16   17 1    
    34   17   18 1    
    35   17   76 1    
    36   17   77 1    
    37   18   19 1    
    38   18   27 1    
    39   18   78 1    
    40   19   20 am   BACKBONE|DICT|INTERRES
    41   19   79 1    
    42   20   21 2    
    43   20   22 1    
    44   22   23 1    
    45   22   24 1    
    46   22   80 1    
    47   23   81 1    
    48   23   82 1    
    49   23   83 1    
    50   24   25 am   BACKBONE|DICT|INTERRES
    51   24   84 1    
    52   25   26 2    
    53   27   28 2    
    54   27   29 am   BACKBONE|DICT|INTERRES
    55   29   30 1    
    56   29   85 1    
    57   30   31 1    
    58   30   32 1    
    59   30   86 1    
    60   31   87 1    
    61   31   88 1    
    62   31   89 1    
    63   32   33 2    
    64   32   34 am   BACKBONE|DICT|INTERRES
    65   34   35 1    
    66   34   90 1    
    67   35   36 1    
    68   35   37 1    
    69   35   91 1    
    70   36   92 1    
    71   36   93 1    
    72   36   94 1    
    73   37   38 2    
    74   37   39 am   BACKBONE|DICT|INTERRES
    75   39   40 1    
    76   39   95 1    
    77   40   41 1    
    78   40   42 1    
    79   40   96 1    
    80   41   97 1    
    81   41   98 1    
    82   41   99 1    
    83   42   43 2    
    84   42   44 am   BACKBONE|DICT|INTERRES
    85   44   45 1    
    86   44  100 1    
    87   45   46 1    
    88   45   47 1    
    89   45  101 1    
    90   46  102 1    
    91   46  103 1    
    92   46  104 1    
    93   47   48 2    
    94   47   49 am   BACKBONE|DICT|INTERRES
    95   49   50 1    
    96   49  105 1    
    97   50   51 1    
    98   50   52 1    
    99   50  106 1    
   100   51  107 1    
   101   51  108 1    
   102   51  109 1    
   103   52   53 2    
   104   52   54 am   BACKBONE|DICT|INTERRES
   105   54   55 1    
   106   54  110 1    
   107   55   56 1    
   108   55   59 1    
   109   55  111 1    
   110   56   57 am   BACKBONE|DICT|INTERRES
   111   56   58 2    
   112   57  112 1    
   113   57  113 1    
   114   59   60 1    
   115   59  114 1    
   116   59  115 1    
   117   60   61 1    
   118   61  116 1    
   119   61  117 1    
@<TRIPOS>SUBSTRUCTURE
     1 UNK         1 GROUP             0       ****    0 ROOT    
