@<TRIPOS>MOLECULE
3R8
117   119    1
SMALL
USER_CHARGES


@<TRIPOS>ATOM
      1 CA         17.3876  -29.0101  -41.1597 C.3       0 UNK        -0.2013 
      2 C          16.8208  -27.6941  -41.6694 C.2       0 UNK         0.4866 
      3 O          15.6806  -27.3522  -41.3552 O.2       0 UNK        -0.5176 
      4 N          17.6113  -26.9544  -42.4506 N.am      1 UNK        -0.4884 
      5 CA         17.2800  -25.6434  -43.0053 C.3       1 UNK         0.0853 
      6 C6         16.3100  -25.7309  -44.2183 C.3       10 UNK        -0.0849 
      7 S7         16.9975  -26.5016  -45.7276 S.3       10 UNK        -0.2776 
      8 C8         16.4541  -28.2487  -45.6133 C.3       10 UNK         0.0316 
      9 C9         17.5965  -29.2130  -45.2958 C.ar      10 UNK        -0.0863 
     10 C10        17.4086  -30.2695  -44.3986 C.ar      10 UNK        -0.1009 
     11 C11        18.4497  -31.1616  -44.1150 C.ar      10 UNK        -0.0712 
     12 C12        19.7003  -30.9595  -44.7128 C.ar      10 UNK        -0.0894 
     13 C13        19.9114  -29.9087  -45.6105 C.ar      10 UNK        -0.0745 
     14 C14        18.8332  -29.0767  -45.9318 C.ar      10 UNK        -0.0972 
     15 C15        21.3189  -29.7153  -46.1874 C.3       10 UNK         0.0209 
     16 S16        21.6386  -28.1730  -47.1233 S.3       10 UNK        -0.2568 
     17 C17        21.1249  -26.9011  -45.9239 C.3       10 UNK        -0.0983 
     18 CA         22.1317  -25.7551  -45.6747 C.3       3 UNK         0.0876 
     19 N          21.4668  -24.6816  -44.9427 N.am      3 UNK        -0.4424 
     20 C          20.5901  -23.8184  -45.4633 C.2       2 UNK         0.4918 
     21 O          20.3845  -23.6937  -46.6719 O.2       2 UNK        -0.4875 
     22 CA         19.7419  -23.0210  -44.4543 C.3       2 UNK         0.0481 
     23 CB         19.2807  -21.6682  -45.0256 C.3       2 UNK        -0.1831 
     24 N          18.5641  -23.8001  -44.0532 N.am      2 UNK        -0.4498 
     25 C          18.5956  -24.8687  -43.2433 C.2       1 UNK         0.5027 
     26 O          19.6245  -25.2446  -42.6752 O.2       1 UNK        -0.4969 
     27 C          23.3395  -26.2138  -44.8401 C.2       3 UNK         0.5005 
     28 O          23.2971  -26.1193  -43.6108 O.2       3 UNK        -0.5279 
     29 N          24.3924  -26.7045  -45.5080 N.am      4 UNK        -0.4463 
     30 CA         25.6519  -27.1160  -44.8775 C.3       4 UNK         0.0283 
     31 CB         26.7269  -27.3220  -45.9571 C.3       4 UNK        -0.1875 
     32 C          25.5214  -28.3732  -44.0013 C.2       4 UNK         0.4949 
     33 O          26.0885  -28.4138  -42.9097 O.2       4 UNK        -0.5039 
     34 N          24.7707  -29.3722  -44.4860 N.am      5 UNK        -0.4663 
     35 CA         24.5716  -30.6566  -43.8017 C.3       5 UNK         0.0242 
     36 CB         24.2969  -31.7591  -44.8394 C.3       5 UNK        -0.1982 
     37 C          23.4762  -30.6226  -42.7200 C.2       5 UNK         0.5017 
     38 O          23.2876  -31.6270  -42.0331 O.2       5 UNK        -0.5012 
     39 N          22.7884  -29.4816  -42.5533 N.am      6 UNK        -0.4439 
     40 CA         21.7121  -29.2870  -41.5741 C.3       6 UNK         0.0297 
     41 CB         21.0483  -27.9238  -41.7935 C.3       6 UNK        -0.2006 
     42 C          22.1466  -29.4385  -40.1052 C.2       6 UNK         0.4892 
     43 O          21.2937  -29.6901  -39.2546 O.2       6 UNK        -0.5089 
     44 N          23.4559  -29.3363  -39.8354 N.am      7 UNK        -0.4243 
     45 CA         24.0721  -29.6424  -38.5427 C.3       7 UNK         0.0196 
     46 CB         25.5599  -29.2596  -38.5907 C.3       7 UNK        -0.2007 
     47 C          23.9068  -31.1150  -38.1181 C.2       7 UNK         0.5020 
     48 O          23.8636  -31.3871  -36.9183 O.2       7 UNK        -0.5147 
     49 N          23.8022  -32.0336  -39.0912 N.am      8 UNK        -0.4734 
     50 CA         23.4883  -33.4443  -38.8493 C.3       8 UNK         0.0238 
     51 CB         24.0431  -34.3002  -39.9998 C.3       8 UNK        -0.1912 
     52 C          21.9763  -33.6744  -38.6860 C.2       8 UNK         0.5038 
     53 O          21.5832  -34.5649  -37.9313 O.2       8 UNK        -0.5046 
     54 N          21.1641  -32.8786  -39.3943 N.am      9 UNK        -0.4200 
     55 CA         19.6949  -32.9013  -39.3320 C.3       9 UNK         0.0839 
     56 C          19.1391  -32.3626  -37.9868 C.2       9 UNK         0.5513 
     57 N          19.6781  -31.2699  -37.4614 N.am      9 UNK        -0.7519 
     58 O          18.2149  -32.9398  -37.4204 O.2       9 UNK        -0.4960 
     59 C59        19.0502  -32.1505  -40.5255 C.3       10 UNK        -0.0876 
     60 S60        19.5698  -32.8370  -42.1334 S.3       10 UNK        -0.2414 
     61 C61        18.1828  -32.3798  -43.2307 C.3       10 UNK         0.0169 
     62 H62        17.6366  -28.9304  -40.1018 H         1 UNK         0.0903 
     63 H63        16.6563  -29.8086  -41.2808 H         1 UNK         0.0903 
     64 H64        18.2873  -29.2940  -41.7047 H         1 UNK         0.0903 
     65 H65        18.5627  -27.2403  -42.6392 H         1 UNK         0.3096 
     66 H66        16.7689  -25.0815  -42.2201 H         1 UNK         0.1121 
     67 H67        15.9656  -24.7316  -44.4881 H         1 UNK         0.0849 
     68 H68        15.4020  -26.2603  -43.9271 H         1 UNK         0.0849 
     69 H69        15.6558  -28.3440  -44.8761 H         1 UNK         0.0865 
     70 H70        16.0197  -28.5384  -46.5709 H         1 UNK         0.0865 
     71 H71        16.4403  -30.4132  -43.9389 H         1 UNK         0.1346 
     72 H72        20.5156  -31.6344  -44.4907 H         1 UNK         0.1412 
     73 H73        18.9501  -28.2952  -46.6659 H         1 UNK         0.1426 
     74 H74        21.5548  -30.5640  -46.8306 H         1 UNK         0.0716 
     75 H75        22.0257  -29.7388  -45.3600 H         1 UNK         0.0716 
     76 H76        20.1987  -26.4824  -46.3193 H         1 UNK         0.0695 
     77 H77        20.8504  -27.3661  -44.9775 H         1 UNK         0.0695 
     78 H78        22.4903  -25.3589  -46.6273 H         1 UNK         0.0983 
     79 H79        21.5724  -24.7437  -43.9358 H         1 UNK         0.3095 
     80 H80        20.3534  -22.8194  -43.5720 H         1 UNK         0.0454 
     81 H81        20.1348  -21.0704  -45.3466 H         1 UNK         0.0851 
     82 H82        18.6269  -21.7915  -45.8900 H         1 UNK         0.0851 
     83 H83        18.7416  -21.0856  -44.2786 H         1 UNK         0.0851 
     84 H84        17.6971  -23.5690  -44.5159 H         1 UNK         0.2976 
     85 H85        24.3421  -26.7719  -46.5153 H         1 UNK         0.3116 
     86 H86        25.9810  -26.3003  -44.2297 H         1 UNK         0.0646 
     87 H87        27.6786  -27.6115  -45.5090 H         1 UNK         0.0847 
     88 H88        26.9040  -26.4062  -46.5214 H         1 UNK         0.0847 
     89 H89        26.4496  -28.1046  -46.6644 H         1 UNK         0.0847 
     90 H90        24.3414  -29.2579  -45.3930 H         1 UNK         0.3040 
     91 H91        25.4988  -30.9214  -43.2877 H         1 UNK         0.1015 
     92 H92        25.0977  -31.8174  -45.5767 H         1 UNK         0.0786 
     93 H93        23.3605  -31.6057  -45.3726 H         1 UNK         0.0786 
     94 H94        24.2342  -32.7367  -44.3589 H         1 UNK         0.0786 
     95 H95        23.0401  -28.6833  -43.1197 H         1 UNK         0.3172 
     96 H96        20.9644  -30.0567  -41.7693 H         1 UNK         0.0595 
     97 H97        20.6011  -27.8599  -42.7835 H         1 UNK         0.0839 
     98 H98        21.7590  -27.1039  -41.6874 H         1 UNK         0.0839 
     99 H99        20.2530  -27.7514  -41.0671 H         1 UNK         0.0839 
    100 H100       24.0809  -29.1117  -40.5963 H         1 UNK         0.2998 
    101 H101       23.5806  -29.0266  -37.7863 H         1 UNK         0.0822 
    102 H102       25.6906  -28.1993  -38.8080 H         1 UNK         0.0787 
    103 H103       26.0441  -29.4547  -37.6327 H         1 UNK         0.0787 
    104 H104       26.0987  -29.8275  -39.3505 H         1 UNK         0.0787 
    105 H105       23.8259  -31.7358  -40.0613 H         1 UNK         0.3055 
    106 H106       23.9740  -33.7658  -37.9248 H         1 UNK         0.1106 
    107 H107       23.5694  -34.0586  -40.9520 H         1 UNK         0.0828 
    108 H108       25.1182  -34.1626  -40.1150 H         1 UNK         0.0828 
    109 H109       23.8704  -35.3608  -39.8123 H         1 UNK         0.0828 
    110 H110       21.5748  -32.1769  -39.9914 H         1 UNK         0.2931 
    111 H111       19.3884  -33.9470  -39.4051 H         1 UNK         0.0412 
    112 H112       19.3289  -30.9128  -36.5867 H         1 UNK         0.3472 
    113 H113       20.3842  -30.7518  -37.9780 H         1 UNK         0.3472 
    114 H114       19.3046  -31.0917  -40.4938 H         1 UNK         0.0970 
    115 H115       17.9627  -32.2069  -40.4521 H         1 UNK         0.0970 
    116 H116       17.2755  -32.2380  -42.6424 H         1 UNK         0.0612 
    117 H117       17.9845  -33.2273  -43.8877 H         1 UNK         0.0612 
@<TRIPOS>BOND
     1    1    2 1    
     2    1   62 1    
     3    1   63 1    
     4    1   64 1    
     5    2    3 2    
     6    2    4 am   BACKBONE|DICT|INTERRES
     7    4    5 1    
     8    4   65 1    
     9    5    6 1    
    10    5   25 1    
    11    5   66 1    
    12    6    7 1    
    13    6   67 1    
    14    6   68 1    
    15    7    8 1    
    16    8    9 1    
    17    8   69 1    
    18    8   70 1    
    19    9   10 ar   
    20    9   14 ar   
    21   10   11 ar   
    22   10   71 1    
    23   11   12 ar   
    24   11   61 1    
    25   12   13 ar   
    26   12   72 1    
    27   13   14 ar   
    28   13   15 1    
    29   14   73 1    
    30   15   16 1    
    31   15   74 1    
    32   15   75 1    
    33   16   17 1    
    34   17   18 1    
    35   17   76 1    
    36   17   77 1    
    37   18   19 1    
    38   18   27 1    
    39   18   78 1    
    40   19   20 am   BACKBONE|DICT|INTERRES
    41   19   79 1    
    42   20   21 2    
    43   20   22 1    
    44   22   23 1    
    45   22   24 1    
    46   22   80 1    
    47   23   81 1    
    48   23   82 1    
    49   23   83 1    
    50   24   25 am   BACKBONE|DICT|INTERRES
    51   24   84 1    
    52   25   26 2    
    53   27   28 2    
    54   27   29 am   BACKBONE|DICT|INTERRES
    55   29   30 1    
    56   29   85 1    
    57   30   31 1    
    58   30   32 1    
    59   30   86 1    
    60   31   87 1    
    61   31   88 1    
    62   31   89 1    
    63   32   33 2    
    64   32   34 am   BACKBONE|DICT|INTERRES
    65   34   35 1    
    66   34   90 1    
    67   35   36 1    
    68   35   37 1    
    69   35   91 1    
    70   36   92 1    
    71   36   93 1    
    72   36   94 1    
    73   37   38 2    
    74   37   39 am   BACKBONE|DICT|INTERRES
    75   39   40 1    
    76   39   95 1    
    77   40   41 1    
    78   40   42 1    
    79   40   96 1    
    80   41   97 1    
    81   41   98 1    
    82   41   99 1    
    83   42   43 2    
    84   42   44 am   BACKBONE|DICT|INTERRES
    85   44   45 1    
    86   44  100 1    
    87   45   46 1    
    88   45   47 1    
    89   45  101 1    
    90   46  102 1    
    91   46  103 1    
    92   46  104 1    
    93   47   48 2    
    94   47   49 am   BACKBONE|DICT|INTERRES
    95   49   50 1    
    96   49  105 1    
    97   50   51 1    
    98   50   52 1    
    99   50  106 1    
   100   51  107 1    
   101   51  108 1    
   102   51  109 1    
   103   52   53 2    
   104   52   54 am   BACKBONE|DICT|INTERRES
   105   54   55 1    
   106   54  110 1    
   107   55   56 1    
   108   55   59 1    
   109   55  111 1    
   110   56   57 am   BACKBONE|DICT|INTERRES
   111   56   58 2    
   112   57  112 1    
   113   57  113 1    
   114   59   60 1    
   115   59  114 1    
   116   59  115 1    
   117   60   61 1    
   118   61  116 1    
   119   61  117 1    
@<TRIPOS>SUBSTRUCTURE
     1 UNK         1 GROUP             0       ****    0 ROOT    
