@<TRIPOS>MOLECULE
3R8
117   119    1
SMALL
USER_CHARGES


@<TRIPOS>ATOM
      1 CA         16.7027  -21.4959  -41.7089 C.3       0 UNK        -0.2013 
      2 C          17.1441  -22.6877  -42.5454 C.2       0 UNK         0.4866 
      3 O          17.9993  -22.5395  -43.4188 O.2       0 UNK        -0.5176 
      4 N          16.5624  -23.8669  -42.2921 N.am      1 UNK        -0.4884 
      5 CA         16.9156  -25.1279  -42.9497 C.3       1 UNK         0.0853 
      6 C6         15.8076  -26.1916  -42.7377 C.3       10 UNK        -0.0849 
      7 S7         15.9164  -27.5826  -43.9137 S.3       10 UNK        -0.2776 
      8 C8         16.7396  -28.8405  -42.8813 C.3       10 UNK         0.0316 
      9 C9         17.0635  -30.1106  -43.6566 C.ar      10 UNK        -0.0863 
     10 C10        16.6297  -31.3525  -43.1851 C.ar      10 UNK        -0.1009 
     11 C11        16.9616  -32.5290  -43.8642 C.ar      10 UNK        -0.0712 
     12 C12        17.7088  -32.4522  -45.0432 C.ar      10 UNK        -0.0894 
     13 C13        18.1423  -31.2173  -45.5365 C.ar      10 UNK        -0.0745 
     14 C14        17.8218  -30.0516  -44.8298 C.ar      10 UNK        -0.0972 
     15 C15        18.9073  -31.1728  -46.8587 C.3       10 UNK         0.0209 
     16 S16        20.1282  -29.8244  -46.9939 S.3       10 UNK        -0.2568 
     17 C17        21.4120  -30.3909  -45.8356 C.3       10 UNK        -0.0983 
     18 CA         22.2833  -29.2269  -45.2906 C.3       3 UNK         0.0876 
     19 N          21.6607  -28.4620  -44.2038 N.am      3 UNK        -0.4424 
     20 C          20.9244  -27.3588  -44.3675 C.2       2 UNK         0.4918 
     21 O          20.6276  -26.8732  -45.4619 O.2       2 UNK        -0.4875 
     22 CA         20.4541  -26.6489  -43.0926 C.3       2 UNK         0.0481 
     23 CB         21.4863  -25.6075  -42.6235 C.3       2 UNK        -0.1831 
     24 N          19.1667  -26.0168  -43.3626 N.am      2 UNK        -0.4498 
     25 C          18.2821  -25.6290  -42.4381 C.2       1 UNK         0.5027 
     26 O          18.4835  -25.6946  -41.2227 O.2       1 UNK        -0.4969 
     27 C          23.6548  -29.7366  -44.8266 C.2       3 UNK         0.5005 
     28 O          24.6507  -29.5014  -45.5151 O.2       3 UNK        -0.5279 
     29 N          23.7016  -30.4079  -43.6675 N.am      4 UNK        -0.4463 
     30 CA         24.9186  -30.9033  -43.0190 C.3       4 UNK         0.0283 
     31 CB         24.5300  -31.9908  -42.0020 C.3       4 UNK        -0.1875 
     32 C          25.7276  -29.7558  -42.3830 C.2       4 UNK         0.4949 
     33 O          25.8212  -29.6624  -41.1580 O.2       4 UNK        -0.5039 
     34 N          26.2745  -28.8822  -43.2392 N.am      5 UNK        -0.4663 
     35 CA         26.9509  -27.6234  -42.9159 C.3       5 UNK         0.0242 
     36 CB         28.2827  -27.8763  -42.1710 C.3       5 UNK        -0.1982 
     37 C          25.9818  -26.6719  -42.1920 C.2       5 UNK         0.5017 
     38 O          25.0696  -26.1527  -42.8352 O.2       5 UNK        -0.5012 
     39 N          26.1803  -26.4749  -40.8833 N.am      6 UNK        -0.4439 
     40 CA         25.2996  -25.6876  -40.0192 C.3       6 UNK         0.0297 
     41 CB         26.1211  -25.1416  -38.8392 C.3       6 UNK        -0.2006 
     42 C          24.0837  -26.4812  -39.5025 C.2       6 UNK         0.4892 
     43 O          23.1340  -25.8570  -39.0270 O.2       6 UNK        -0.5089 
     44 N          24.1325  -27.8194  -39.5674 N.am      7 UNK        -0.4243 
     45 CA         23.0672  -28.7117  -39.1094 C.3       7 UNK         0.0196 
     46 CB         23.7030  -29.9743  -38.4996 C.3       7 UNK        -0.2007 
     47 C          22.1051  -29.0643  -40.2550 C.2       7 UNK         0.5020 
     48 O          22.3646  -28.7384  -41.4155 O.2       7 UNK        -0.5147 
     49 N          20.9979  -29.7229  -39.8901 N.am      8 UNK        -0.4734 
     50 CA         19.9278  -30.1733  -40.7816 C.3       8 UNK         0.0238 
     51 CB         18.6529  -30.4120  -39.9451 C.3       8 UNK        -0.1912 
     52 C          20.3539  -31.3745  -41.6497 C.2       8 UNK         0.5038 
     53 O          21.2403  -31.2230  -42.4897 O.2       8 UNK        -0.5046 
     54 N          19.6914  -32.5231  -41.4714 N.am      9 UNK        -0.4200 
     55 CA         19.8457  -33.7312  -42.2921 C.3       9 UNK         0.0839 
     56 C          21.2797  -34.3254  -42.2497 C.2       9 UNK         0.5513 
     57 N          21.8040  -34.7689  -43.3841 N.am      9 UNK        -0.7519 
     58 O          21.8933  -34.4347  -41.1903 O.2       9 UNK        -0.4960 
     59 C59        18.7971  -34.8204  -41.9320 C.3       10 UNK        -0.0876 
     60 S60        17.0968  -34.2089  -41.6476 S.3       10 UNK        -0.2414 
     61 C61        16.4922  -33.8787  -43.3347 C.3       10 UNK         0.0169 
     62 H62        15.9265  -21.7645  -40.9926 H         1 UNK         0.0903 
     63 H63        17.5501  -21.0925  -41.1551 H         1 UNK         0.0903 
     64 H64        16.3112  -20.7094  -42.3534 H         1 UNK         0.0903 
     65 H65        15.8913  -23.9362  -41.5401 H         1 UNK         0.3096 
     66 H66        16.9942  -24.9244  -44.0207 H         1 UNK         0.1121 
     67 H67        14.8290  -25.7343  -42.8938 H         1 UNK         0.0849 
     68 H68        15.7972  -26.5604  -41.7098 H         1 UNK         0.0849 
     69 H69        17.6682  -28.4381  -42.4783 H         1 UNK         0.0865 
     70 H70        16.1018  -29.0634  -42.0244 H         1 UNK         0.0865 
     71 H71        16.0431  -31.4120  -42.2784 H         1 UNK         0.1346 
     72 H72        17.9480  -33.3579  -45.5837 H         1 UNK         0.1412 
     73 H73        18.1476  -29.0887  -45.1981 H         1 UNK         0.1426 
     74 H74        18.1829  -31.0612  -47.6662 H         1 UNK         0.0716 
     75 H75        19.4208  -32.1197  -47.0334 H         1 UNK         0.0716 
     76 H76        22.0200  -31.1159  -46.3807 H         1 UNK         0.0695 
     77 H77        20.9477  -30.9415  -45.0175 H         1 UNK         0.0695 
     78 H78        22.4934  -28.5431  -46.1167 H         1 UNK         0.0983 
     79 H79        21.9136  -28.7356  -43.2545 H         1 UNK         0.3095 
     80 H80        20.3121  -27.3901  -42.3081 H         1 UNK         0.0454 
     81 H81        21.6547  -24.8375  -43.3769 H         1 UNK         0.0851 
     82 H82        22.4456  -26.0831  -42.4183 H         1 UNK         0.0851 
     83 H83        21.1733  -25.1169  -41.7020 H         1 UNK         0.0851 
     84 H84        18.9384  -25.9530  -44.3476 H         1 UNK         0.2976 
     85 H85        22.8297  -30.5813  -43.1669 H         1 UNK         0.3116 
     86 H86        25.5540  -31.3700  -43.7744 H         1 UNK         0.0646 
     87 H87        23.8134  -31.6193  -41.2695 H         1 UNK         0.0847 
     88 H88        25.4022  -32.3540  -41.4573 H         1 UNK         0.0847 
     89 H89        24.0769  -32.8487  -42.4981 H         1 UNK         0.0847 
     90 H90        26.0410  -29.0166  -44.2199 H         1 UNK         0.3040 
     91 H91        27.1917  -27.1449  -43.8668 H         1 UNK         0.1015 
     92 H92        28.1469  -28.4032  -41.2264 H         1 UNK         0.0786 
     93 H93        28.7960  -26.9378  -41.9567 H         1 UNK         0.0786 
     94 H94        28.9588  -28.4751  -42.7814 H         1 UNK         0.0786 
     95 H95        26.9420  -26.9666  -40.4379 H         1 UNK         0.3172 
     96 H96        24.9163  -24.8354  -40.5849 H         1 UNK         0.0595 
     97 H97        26.5303  -25.9445  -38.2246 H         1 UNK         0.0839 
     98 H98        25.5048  -24.5176  -38.1902 H         1 UNK         0.0839 
     99 H99        26.9510  -24.5246  -39.1842 H         1 UNK         0.0839 
    100 H100       24.8949  -28.2675  -40.0665 H         1 UNK         0.2998 
    101 H101       22.4865  -28.2152  -38.3289 H         1 UNK         0.0822 
    102 H102       24.3755  -29.7187  -37.6807 H         1 UNK         0.0787 
    103 H103       22.9471  -30.6474  -38.0939 H         1 UNK         0.0787 
    104 H104       24.2773  -30.5374  -39.2340 H         1 UNK         0.0787 
    105 H105       20.8892  -29.9616  -38.9150 H         1 UNK         0.3055 
    106 H106       19.7071  -29.3700  -41.4836 H         1 UNK         0.1106 
    107 H107       18.8011  -31.1696  -39.1744 H         1 UNK         0.0828 
    108 H108       17.8176  -30.7298  -40.5696 H         1 UNK         0.0828 
    109 H109       18.3377  -29.4947  -39.4471 H         1 UNK         0.0828 
    110 H110       18.9761  -32.5708  -40.7624 H         1 UNK         0.2931 
    111 H111       19.6552  -33.4184  -43.3192 H         1 UNK         0.0412 
    112 H112       22.7245  -35.1792  -43.3705 H         1 UNK         0.3472 
    113 H113       21.3030  -34.6935  -44.2554 H         1 UNK         0.3472 
    114 H114       19.0954  -35.3381  -41.0180 H         1 UNK         0.0970 
    115 H115       18.7693  -35.5868  -42.7087 H         1 UNK         0.0970 
    116 H116       16.7941  -34.6927  -43.9954 H         1 UNK         0.0612 
    117 H117       15.4015  -33.8839  -43.3194 H         1 UNK         0.0612 
@<TRIPOS>BOND
     1    1    2 1    
     2    1   62 1    
     3    1   63 1    
     4    1   64 1    
     5    2    3 2    
     6    2    4 am   BACKBONE|DICT|INTERRES
     7    4    5 1    
     8    4   65 1    
     9    5    6 1    
    10    5   25 1    
    11    5   66 1    
    12    6    7 1    
    13    6   67 1    
    14    6   68 1    
    15    7    8 1    
    16    8    9 1    
    17    8   69 1    
    18    8   70 1    
    19    9   10 ar   
    20    9   14 ar   
    21   10   11 ar   
    22   10   71 1    
    23   11   12 ar   
    24   11   61 1    
    25   12   13 ar   
    26   12   72 1    
    27   13   14 ar   
    28   13   15 1    
    29   14   73 1    
    30   15   16 1    
    31   15   74 1    
    32   15   75 1    
    33   16   17 1    
    34   17   18 1    
    35   17   76 1    
    36   17   77 1    
    37   18   19 1    
    38   18   27 1    
    39   18   78 1    
    40   19   20 am   BACKBONE|DICT|INTERRES
    41   19   79 1    
    42   20   21 2    
    43   20   22 1    
    44   22   23 1    
    45   22   24 1    
    46   22   80 1    
    47   23   81 1    
    48   23   82 1    
    49   23   83 1    
    50   24   25 am   BACKBONE|DICT|INTERRES
    51   24   84 1    
    52   25   26 2    
    53   27   28 2    
    54   27   29 am   BACKBONE|DICT|INTERRES
    55   29   30 1    
    56   29   85 1    
    57   30   31 1    
    58   30   32 1    
    59   30   86 1    
    60   31   87 1    
    61   31   88 1    
    62   31   89 1    
    63   32   33 2    
    64   32   34 am   BACKBONE|DICT|INTERRES
    65   34   35 1    
    66   34   90 1    
    67   35   36 1    
    68   35   37 1    
    69   35   91 1    
    70   36   92 1    
    71   36   93 1    
    72   36   94 1    
    73   37   38 2    
    74   37   39 am   BACKBONE|DICT|INTERRES
    75   39   40 1    
    76   39   95 1    
    77   40   41 1    
    78   40   42 1    
    79   40   96 1    
    80   41   97 1    
    81   41   98 1    
    82   41   99 1    
    83   42   43 2    
    84   42   44 am   BACKBONE|DICT|INTERRES
    85   44   45 1    
    86   44  100 1    
    87   45   46 1    
    88   45   47 1    
    89   45  101 1    
    90   46  102 1    
    91   46  103 1    
    92   46  104 1    
    93   47   48 2    
    94   47   49 am   BACKBONE|DICT|INTERRES
    95   49   50 1    
    96   49  105 1    
    97   50   51 1    
    98   50   52 1    
    99   50  106 1    
   100   51  107 1    
   101   51  108 1    
   102   51  109 1    
   103   52   53 2    
   104   52   54 am   BACKBONE|DICT|INTERRES
   105   54   55 1    
   106   54  110 1    
   107   55   56 1    
   108   55   59 1    
   109   55  111 1    
   110   56   57 am   BACKBONE|DICT|INTERRES
   111   56   58 2    
   112   57  112 1    
   113   57  113 1    
   114   59   60 1    
   115   59  114 1    
   116   59  115 1    
   117   60   61 1    
   118   61  116 1    
   119   61  117 1    
@<TRIPOS>SUBSTRUCTURE
     1 UNK         1 GROUP             0       ****    0 ROOT    
