@<TRIPOS>MOLECULE
3R8
117   119    1
SMALL
USER_CHARGES


@<TRIPOS>ATOM
      1 CA         15.1768  -23.3605  -47.2268 C.3       0 UNK        -0.2013 
      2 C          16.3090  -24.2051  -46.6631 C.2       0 UNK         0.4866 
      3 O          17.3128  -24.4199  -47.3436 O.2       0 UNK        -0.5176 
      4 N          16.1684  -24.6759  -45.4175 N.am      1 UNK        -0.4884 
      5 CA         17.1237  -25.5358  -44.7044 C.3       1 UNK         0.0853 
      6 C6         16.4284  -26.3389  -43.5726 C.3       10 UNK        -0.0849 
      7 S7         15.2551  -27.5698  -44.2319 S.3       10 UNK        -0.2776 
      8 C8         15.5971  -29.0198  -43.1672 C.3       10 UNK         0.0316 
      9 C9         17.0039  -29.6183  -43.2719 C.ar      10 UNK        -0.0863 
     10 C10        17.4738  -30.4104  -42.2188 C.ar      10 UNK        -0.1009 
     11 C11        18.7352  -31.0111  -42.2779 C.ar      10 UNK        -0.0712 
     12 C12        19.5505  -30.7888  -43.3915 C.ar      10 UNK        -0.0894 
     13 C13        19.0937  -30.0135  -44.4618 C.ar      10 UNK        -0.0745 
     14 C14        17.8169  -29.4431  -44.3992 C.ar      10 UNK        -0.0972 
     15 C15        19.9452  -29.8679  -45.7179 C.3       10 UNK         0.0209 
     16 S16        20.0890  -28.1395  -46.2847 S.3       10 UNK        -0.2568 
     17 C17        21.8669  -27.7699  -46.0580 C.3       10 UNK        -0.0983 
     18 CA         22.1540  -26.6931  -44.9822 C.3       3 UNK         0.0876 
     19 N          21.3098  -25.5140  -45.1685 N.am      3 UNK        -0.4424 
     20 C          21.4401  -24.3248  -44.5685 C.2       2 UNK         0.4918 
     21 O          22.3650  -24.0349  -43.8098 O.2       2 UNK        -0.4875 
     22 CA         20.2976  -23.3205  -44.8187 C.3       2 UNK         0.0481 
     23 CB         20.6404  -22.3934  -45.9943 C.3       2 UNK        -0.1831 
     24 N          19.0122  -23.9856  -45.0780 N.am      2 UNK        -0.4498 
     25 C          18.3588  -24.7553  -44.1955 C.2       1 UNK         0.5027 
     26 O          18.7363  -24.8897  -43.0317 O.2       1 UNK        -0.4969 
     27 C          22.1113  -27.2819  -43.5557 C.2       3 UNK         0.5005 
     28 O          23.0330  -28.0181  -43.2019 O.2       3 UNK        -0.5279 
     29 N          21.1129  -26.9224  -42.7296 N.am      4 UNK        -0.4463 
     30 CA         21.0090  -27.3326  -41.3217 C.3       4 UNK         0.0283 
     31 CB         19.6319  -26.9510  -40.7600 C.3       4 UNK        -0.1875 
     32 C          22.1381  -26.7943  -40.4183 C.2       4 UNK         0.4949 
     33 O          22.2925  -27.2849  -39.3010 O.2       4 UNK        -0.5039 
     34 N          22.9298  -25.8308  -40.9144 N.am      5 UNK        -0.4663 
     35 CA         24.1923  -25.4004  -40.3079 C.3       5 UNK         0.0242 
     36 CB         24.6859  -24.1295  -41.0172 C.3       5 UNK        -0.1982 
     37 C          25.2762  -26.4974  -40.3430 C.2       5 UNK         0.5017 
     38 O          26.0870  -26.5664  -39.4188 O.2       5 UNK        -0.5012 
     39 N          25.2602  -27.3364  -41.3897 N.am      6 UNK        -0.4439 
     40 CA         26.0828  -28.5435  -41.5092 C.3       6 UNK         0.0297 
     41 CB         26.5081  -28.7337  -42.9745 C.3       6 UNK        -0.2006 
     42 C          25.3135  -29.7758  -41.0055 C.2       6 UNK         0.4892 
     43 O          25.9041  -30.6266  -40.3398 O.2       6 UNK        -0.5089 
     44 N          24.0091  -29.8220  -41.3127 N.am      7 UNK        -0.4243 
     45 CA         23.0181  -30.8274  -40.9371 C.3       7 UNK         0.0196 
     46 CB         22.8046  -30.8779  -39.4067 C.3       7 UNK        -0.2007 
     47 C          23.3000  -32.1971  -41.5703 C.2       7 UNK         0.5020 
     48 O          22.8794  -32.4259  -42.7034 O.2       7 UNK        -0.5147 
     49 N          23.9534  -33.0880  -40.8106 N.am      8 UNK        -0.4734 
     50 CA         24.1977  -34.5090  -41.1052 C.3       8 UNK         0.0238 
     51 CB         25.0379  -34.6864  -42.3887 C.3       8 UNK        -0.1912 
     52 C          22.9167  -35.3727  -41.1067 C.2       8 UNK         0.5038 
     53 O          22.9378  -36.4873  -41.6317 O.2       8 UNK        -0.5046 
     54 N          21.8396  -34.8632  -40.4921 N.am      9 UNK        -0.4200 
     55 CA         20.5655  -35.5700  -40.2810 C.3       9 UNK         0.0839 
     56 C          20.5942  -36.5957  -39.1091 C.2       9 UNK         0.5513 
     57 N          21.6330  -36.6434  -38.2830 N.am      9 UNK        -0.7519 
     58 O          19.6550  -37.3714  -38.9518 O.2       9 UNK        -0.4960 
     59 C59        19.3789  -34.5801  -40.1264 C.3       10 UNK        -0.0876 
     60 S60        19.0159  -33.6796  -41.6712 S.3       10 UNK        -0.2414 
     61 C61        19.1933  -31.9415  -41.1634 C.3       10 UNK         0.0169 
     62 H62        14.3563  -23.2520  -46.5177 H         1 UNK         0.0903 
     63 H63        15.5412  -22.3651  -47.4795 H         1 UNK         0.0903 
     64 H64        14.7829  -23.8196  -48.1331 H         1 UNK         0.0903 
     65 H65        15.3274  -24.4535  -44.9034 H         1 UNK         0.3096 
     66 H66        17.5192  -26.2616  -45.4191 H         1 UNK         0.1121 
     67 H67        17.1651  -26.8699  -42.9688 H         1 UNK         0.0849 
     68 H68        15.9027  -25.6723  -42.8869 H         1 UNK         0.0849 
     69 H69        15.3970  -28.7340  -42.1332 H         1 UNK         0.0865 
     70 H70        14.8764  -29.8008  -43.4128 H         1 UNK         0.0865 
     71 H71        16.8421  -30.5842  -41.3581 H         1 UNK         0.1346 
     72 H72        20.5214  -31.2633  -43.4429 H         1 UNK         0.1412 
     73 H73        17.4573  -28.8725  -45.2433 H         1 UNK         0.1426 
     74 H74        19.4798  -30.4502  -46.5141 H         1 UNK         0.0716 
     75 H75        20.9328  -30.3046  -45.5664 H         1 UNK         0.0716 
     76 H76        22.4354  -28.6810  -45.8640 H         1 UNK         0.0695 
     77 H77        22.2356  -27.4098  -47.0197 H         1 UNK         0.0695 
     78 H78        23.1849  -26.3613  -45.1250 H         1 UNK         0.0983 
     79 H79        20.5144  -25.6546  -45.7746 H         1 UNK         0.3095 
     80 H80        20.1879  -22.7106  -43.9197 H         1 UNK         0.0454 
     81 H81        21.5826  -21.8724  -45.8182 H         1 UNK         0.0851 
     82 H82        20.7424  -22.9454  -46.9295 H         1 UNK         0.0851 
     83 H83        19.8728  -21.6325  -46.1361 H         1 UNK         0.0851 
     84 H84        18.6314  -23.9322  -46.0195 H         1 UNK         0.2976 
     85 H85        20.3989  -26.2861  -43.0638 H         1 UNK         0.3116 
     86 H86        21.0763  -28.4206  -41.2987 H         1 UNK         0.0646 
     87 H87        19.5096  -27.3246  -39.7425 H         1 UNK         0.0847 
     88 H88        18.8280  -27.3809  -41.3567 H         1 UNK         0.0847 
     89 H89        19.4943  -25.8701  -40.7255 H         1 UNK         0.0847 
     90 H90        22.7047  -25.4428  -41.8213 H         1 UNK         0.3040 
     91 H91        24.0012  -25.1596  -39.2597 H         1 UNK         0.1015 
     92 H92        23.9574  -23.3224  -40.9369 H         1 UNK         0.0786 
     93 H93        24.8740  -24.3049  -42.0775 H         1 UNK         0.0786 
     94 H94        25.6164  -23.7713  -40.5745 H         1 UNK         0.0786 
     95 H95        24.5237  -27.2301  -42.0785 H         1 UNK         0.3172 
     96 H96        26.9875  -28.4389  -40.9065 H         1 UNK         0.0595 
     97 H97        27.1311  -29.6222  -43.0859 H         1 UNK         0.0839 
     98 H98        27.0902  -27.8836  -43.3305 H         1 UNK         0.0839 
     99 H99        25.6500  -28.8527  -43.6373 H         1 UNK         0.0839 
    100 H100       23.6600  -29.1122  -41.9554 H         1 UNK         0.2998 
    101 H101       22.0845  -30.4851  -41.3820 H         1 UNK         0.0822 
    102 H102       22.0610  -31.6280  -39.1354 H         1 UNK         0.0787 
    103 H103       22.4382  -29.9221  -39.0341 H         1 UNK         0.0787 
    104 H104       23.7192  -31.1088  -38.8606 H         1 UNK         0.0787 
    105 H105       24.2987  -32.7618  -39.9171 H         1 UNK         0.3055 
    106 H106       24.7984  -34.8850  -40.2755 H         1 UNK         0.1106 
    107 H107       24.4713  -34.4348  -43.2854 H         1 UNK         0.0828 
    108 H108       25.9307  -34.0615  -42.3684 H         1 UNK         0.0828 
    109 H109       25.3699  -35.7195  -42.4984 H         1 UNK         0.0828 
    110 H110       21.9146  -33.9446  -40.0856 H         1 UNK         0.2931 
    111 H111       20.3716  -36.1660  -41.1752 H         1 UNK         0.0412 
    112 H112       22.4118  -36.0155  -38.3975 H         1 UNK         0.3472 
    113 H113       21.6352  -37.3174  -37.5331 H         1 UNK         0.3472 
    114 H114       18.4646  -35.1125  -39.8564 H         1 UNK         0.0970 
    115 H115       19.5666  -33.8791  -39.3113 H         1 UNK         0.0970 
    116 H116       18.6106  -31.7659  -40.2577 H         1 UNK         0.0612 
    117 H117       20.2325  -31.7445  -40.9086 H         1 UNK         0.0612 
@<TRIPOS>BOND
     1    1    2 1    
     2    1   62 1    
     3    1   63 1    
     4    1   64 1    
     5    2    3 2    
     6    2    4 am   BACKBONE|DICT|INTERRES
     7    4    5 1    
     8    4   65 1    
     9    5    6 1    
    10    5   25 1    
    11    5   66 1    
    12    6    7 1    
    13    6   67 1    
    14    6   68 1    
    15    7    8 1    
    16    8    9 1    
    17    8   69 1    
    18    8   70 1    
    19    9   10 ar   
    20    9   14 ar   
    21   10   11 ar   
    22   10   71 1    
    23   11   12 ar   
    24   11   61 1    
    25   12   13 ar   
    26   12   72 1    
    27   13   14 ar   
    28   13   15 1    
    29   14   73 1    
    30   15   16 1    
    31   15   74 1    
    32   15   75 1    
    33   16   17 1    
    34   17   18 1    
    35   17   76 1    
    36   17   77 1    
    37   18   19 1    
    38   18   27 1    
    39   18   78 1    
    40   19   20 am   BACKBONE|DICT|INTERRES
    41   19   79 1    
    42   20   21 2    
    43   20   22 1    
    44   22   23 1    
    45   22   24 1    
    46   22   80 1    
    47   23   81 1    
    48   23   82 1    
    49   23   83 1    
    50   24   25 am   BACKBONE|DICT|INTERRES
    51   24   84 1    
    52   25   26 2    
    53   27   28 2    
    54   27   29 am   BACKBONE|DICT|INTERRES
    55   29   30 1    
    56   29   85 1    
    57   30   31 1    
    58   30   32 1    
    59   30   86 1    
    60   31   87 1    
    61   31   88 1    
    62   31   89 1    
    63   32   33 2    
    64   32   34 am   BACKBONE|DICT|INTERRES
    65   34   35 1    
    66   34   90 1    
    67   35   36 1    
    68   35   37 1    
    69   35   91 1    
    70   36   92 1    
    71   36   93 1    
    72   36   94 1    
    73   37   38 2    
    74   37   39 am   BACKBONE|DICT|INTERRES
    75   39   40 1    
    76   39   95 1    
    77   40   41 1    
    78   40   42 1    
    79   40   96 1    
    80   41   97 1    
    81   41   98 1    
    82   41   99 1    
    83   42   43 2    
    84   42   44 am   BACKBONE|DICT|INTERRES
    85   44   45 1    
    86   44  100 1    
    87   45   46 1    
    88   45   47 1    
    89   45  101 1    
    90   46  102 1    
    91   46  103 1    
    92   46  104 1    
    93   47   48 2    
    94   47   49 am   BACKBONE|DICT|INTERRES
    95   49   50 1    
    96   49  105 1    
    97   50   51 1    
    98   50   52 1    
    99   50  106 1    
   100   51  107 1    
   101   51  108 1    
   102   51  109 1    
   103   52   53 2    
   104   52   54 am   BACKBONE|DICT|INTERRES
   105   54   55 1    
   106   54  110 1    
   107   55   56 1    
   108   55   59 1    
   109   55  111 1    
   110   56   57 am   BACKBONE|DICT|INTERRES
   111   56   58 2    
   112   57  112 1    
   113   57  113 1    
   114   59   60 1    
   115   59  114 1    
   116   59  115 1    
   117   60   61 1    
   118   61  116 1    
   119   61  117 1    
@<TRIPOS>SUBSTRUCTURE
     1 UNK         1 GROUP             0       ****    0 ROOT    
