@<TRIPOS>MOLECULE
3R8
117   119    1
SMALL
USER_CHARGES


@<TRIPOS>ATOM
      1 CA         17.8445  -21.3207  -46.8366 C.3       0 UNK        -0.2013 
      2 C          18.7210  -22.1911  -45.9485 C.2       0 UNK         0.4866 
      3 O          19.3617  -21.6775  -45.0315 O.2       0 UNK        -0.5176 
      4 N          18.7581  -23.5035  -46.2184 N.am      1 UNK        -0.4884 
      5 CA         19.5155  -24.4977  -45.4489 C.3       1 UNK         0.0853 
      6 C6         19.6069  -25.8383  -46.2228 C.3       10 UNK        -0.0849 
      7 S7         20.6415  -27.0999  -45.4028 S.3       10 UNK        -0.2776 
      8 C8         20.0369  -28.6317  -46.1822 C.3       10 UNK         0.0316 
      9 C9         19.9781  -29.7502  -45.1569 C.ar      10 UNK        -0.0863 
     10 C10        21.1365  -30.4533  -44.8196 C.ar      10 UNK        -0.1009 
     11 C11        21.1041  -31.4389  -43.8305 C.ar      10 UNK        -0.0712 
     12 C12        19.9006  -31.7197  -43.1758 C.ar      10 UNK        -0.0894 
     13 C13        18.7291  -31.0358  -43.5167 C.ar      10 UNK        -0.0745 
     14 C14        18.7730  -30.0621  -44.5214 C.ar      10 UNK        -0.0972 
     15 C15        17.4222  -31.3576  -42.7989 C.3       10 UNK         0.0209 
     16 S16        16.5410  -29.8736  -42.2060 S.3       10 UNK        -0.2568 
     17 C17        17.6938  -29.2070  -40.9547 C.3       10 UNK        -0.0983 
     18 CA         18.6526  -28.1143  -41.5108 C.3       3 UNK         0.0876 
     19 N          17.9770  -27.0578  -42.2793 N.am      3 UNK        -0.4424 
     20 C          17.1357  -26.1275  -41.8034 C.2       2 UNK         0.4918 
     21 O          16.6827  -26.1392  -40.6581 O.2       2 UNK        -0.4875 
     22 CA         16.7673  -24.9589  -42.7467 C.3       2 UNK         0.0481 
     23 CB         16.7408  -23.6144  -41.9898 C.3       2 UNK        -0.1831 
     24 N          17.6002  -24.8291  -43.9547 N.am      2 UNK        -0.4498 
     25 C          18.9342  -24.6778  -44.0299 C.2       1 UNK         0.5027 
     26 O          19.6907  -24.6996  -43.0546 O.2       1 UNK        -0.4969 
     27 C          19.5906  -27.5279  -40.4245 C.2       3 UNK         0.5005 
     28 O          19.8144  -28.1678  -39.3946 O.2       3 UNK        -0.5279 
     29 N          20.0992  -26.3094  -40.6649 N.am      4 UNK        -0.4463 
     30 CA         20.9553  -25.5441  -39.7591 C.3       4 UNK         0.0283 
     31 CB         20.2178  -24.2634  -39.3349 C.3       4 UNK        -0.1875 
     32 C          22.2977  -25.1940  -40.4148 C.2       4 UNK         0.4949 
     33 O          23.3032  -25.1199  -39.7086 O.2       4 UNK        -0.5039 
     34 N          22.3099  -24.9984  -41.7433 N.am      5 UNK        -0.4663 
     35 CA         23.5192  -24.7141  -42.5270 C.3       5 UNK         0.0242 
     36 CB         23.1109  -24.2185  -43.9225 C.3       5 UNK        -0.1982 
     37 C          24.4772  -25.9154  -42.6436 C.2       5 UNK         0.5017 
     38 O          25.6598  -25.7175  -42.9253 O.2       5 UNK        -0.5012 
     39 N          23.9578  -27.1261  -42.4186 N.am      6 UNK        -0.4439 
     40 CA         24.6905  -28.3830  -42.3474 C.3       6 UNK         0.0297 
     41 CB         24.7758  -29.0152  -43.7466 C.3       6 UNK        -0.2006 
     42 C          23.9637  -29.2941  -41.3504 C.2       6 UNK         0.4892 
     43 O          22.7647  -29.1097  -41.1222 O.2       6 UNK        -0.5089 
     44 N          24.7055  -30.2479  -40.7782 N.am      7 UNK        -0.4243 
     45 CA         24.2285  -31.2141  -39.7872 C.3       7 UNK         0.0196 
     46 CB         25.1048  -31.0921  -38.5270 C.3       7 UNK        -0.2007 
     47 C          24.2945  -32.6398  -40.3552 C.2       7 UNK         0.5020 
     48 O          24.9171  -32.8586  -41.3969 O.2       7 UNK        -0.5147 
     49 N          23.6619  -33.5810  -39.6401 N.am      8 UNK        -0.4734 
     50 CA         23.4908  -34.9982  -39.9845 C.3       8 UNK         0.0238 
     51 CB         24.8489  -35.7283  -40.1258 C.3       8 UNK        -0.1912 
     52 C          22.5354  -35.1649  -41.1813 C.2       8 UNK         0.5038 
     53 O          21.3624  -34.8126  -41.0446 O.2       8 UNK        -0.5046 
     54 N          23.0303  -35.7027  -42.3051 N.am      9 UNK        -0.4200 
     55 CA         22.2696  -36.0257  -43.5297 C.3       9 UNK         0.0839 
     56 C          21.2696  -37.2130  -43.3703 C.2       9 UNK         0.5513 
     57 N          21.3879  -38.0443  -42.3411 N.am      9 UNK        -0.7519 
     58 O          20.3904  -37.4082  -44.2068 O.2       9 UNK        -0.4960 
     59 C59        21.6141  -34.7867  -44.2112 C.3       10 UNK        -0.0876 
     60 S60        22.8146  -33.4787  -44.6354 S.3       10 UNK        -0.2414 
     61 C61        22.3797  -32.1708  -43.4471 C.3       10 UNK         0.0169 
     62 H62        18.4476  -20.5553  -47.3242 H         1 UNK         0.0903 
     63 H63        17.3425  -21.9008  -47.6108 H         1 UNK         0.0903 
     64 H64        17.0819  -20.8232  -46.2379 H         1 UNK         0.0903 
     65 H65        18.2219  -23.8593  -46.9978 H         1 UNK         0.3096 
     66 H66        20.5282  -24.1085  -45.3307 H         1 UNK         0.1121 
     67 H67        18.6060  -26.2425  -46.3873 H         1 UNK         0.0849 
     68 H68        20.0282  -25.6634  -47.2147 H         1 UNK         0.0849 
     69 H69        20.7010  -28.9056  -47.0035 H         1 UNK         0.0865 
     70 H70        19.0512  -28.4822  -46.6250 H         1 UNK         0.0865 
     71 H71        22.0677  -30.2224  -45.3178 H         1 UNK         0.1346 
     72 H72        19.8787  -32.4719  -42.3984 H         1 UNK         0.1412 
     73 H73        17.8719  -29.5248  -44.7845 H         1 UNK         0.1426 
     74 H74        17.5946  -32.0248  -41.9525 H         1 UNK         0.0716 
     75 H75        16.7719  -31.8972  -43.4887 H         1 UNK         0.0716 
     76 H76        18.2649  -30.0345  -40.5295 H         1 UNK         0.0695 
     77 H77        17.0950  -28.8030  -40.1367 H         1 UNK         0.0695 
     78 H78        19.3295  -28.6016  -42.2130 H         1 UNK         0.0983 
     79 H79        18.2766  -26.9648  -43.2386 H         1 UNK         0.3095 
     80 H80        15.7549  -25.1635  -43.0976 H         1 UNK         0.0454 
     81 H81        16.4544  -22.7937  -42.6474 H         1 UNK         0.0851 
     82 H82        17.7144  -23.3746  -41.5606 H         1 UNK         0.0851 
     83 H83        16.0208  -23.6347  -41.1707 H         1 UNK         0.0851 
     84 H84        17.0873  -24.8096  -44.8255 H         1 UNK         0.2976 
     85 H85        19.8443  -25.8466  -41.5331 H         1 UNK         0.3116 
     86 H86        21.1754  -26.1263  -38.8618 H         1 UNK         0.0646 
     87 H87        20.8235  -23.6735  -38.6457 H         1 UNK         0.0847 
     88 H88        19.2818  -24.4965  -38.8269 H         1 UNK         0.0847 
     89 H89        19.9841  -23.6291  -40.1912 H         1 UNK         0.0847 
     90 H90        21.4322  -25.0069  -42.2535 H         1 UNK         0.3040 
     91 H91        24.0656  -23.9121  -42.0255 H         1 UNK         0.1015 
     92 H92        22.4513  -23.3525  -43.8612 H         1 UNK         0.0786 
     93 H93        22.5999  -24.9975  -44.4879 H         1 UNK         0.0786 
     94 H94        23.9859  -23.9195  -44.5012 H         1 UNK         0.0786 
     95 H95        22.9879  -27.1980  -42.1358 H         1 UNK         0.3172 
     96 H96        25.6977  -28.1966  -41.9681 H         1 UNK         0.0595 
     97 H97        23.7858  -29.1569  -44.1787 H         1 UNK         0.0839 
     98 H98        25.2665  -29.9887  -43.7132 H         1 UNK         0.0839 
     99 H99        25.3482  -28.3867  -44.4290 H         1 UNK         0.0839 
    100 H100       25.6558  -30.3852  -41.0952 H         1 UNK         0.2998 
    101 H101       23.1900  -31.0056  -39.5185 H         1 UNK         0.0822 
    102 H102       26.1487  -31.3317  -38.7361 H         1 UNK         0.0787 
    103 H103       25.0694  -30.0815  -38.1187 H         1 UNK         0.0787 
    104 H104       24.7666  -31.7674  -37.7400 H         1 UNK         0.0787 
    105 H105       23.1674  -33.2850  -38.8089 H         1 UNK         0.3055 
    106 H106       22.9749  -35.4538  -39.1368 H         1 UNK         0.1106 
    107 H107       24.7043  -36.7990  -40.2765 H         1 UNK         0.0828 
    108 H108       25.4458  -35.3564  -40.9592 H         1 UNK         0.0828 
    109 H109       25.4469  -35.6153  -39.2211 H         1 UNK         0.0828 
    110 H110       24.0106  -35.9425  -42.3269 H         1 UNK         0.2931 
    111 H111       23.0183  -36.4035  -44.2272 H         1 UNK         0.0412 
    112 H112       22.1143  -37.9133  -41.6553 H         1 UNK         0.3472 
    113 H113       20.7436  -38.8149  -42.2537 H         1 UNK         0.3472 
    114 H114       21.1330  -35.0805  -45.1458 H         1 UNK         0.0970 
    115 H115       20.8160  -34.3830  -43.5886 H         1 UNK         0.0970 
    116 H116       22.2848  -32.5943  -42.4490 H         1 UNK         0.0612 
    117 H117       23.2052  -31.4618  -43.3953 H         1 UNK         0.0612 
@<TRIPOS>BOND
     1    1    2 1    
     2    1   62 1    
     3    1   63 1    
     4    1   64 1    
     5    2    3 2    
     6    2    4 am   BACKBONE|DICT|INTERRES
     7    4    5 1    
     8    4   65 1    
     9    5    6 1    
    10    5   25 1    
    11    5   66 1    
    12    6    7 1    
    13    6   67 1    
    14    6   68 1    
    15    7    8 1    
    16    8    9 1    
    17    8   69 1    
    18    8   70 1    
    19    9   10 ar   
    20    9   14 ar   
    21   10   11 ar   
    22   10   71 1    
    23   11   12 ar   
    24   11   61 1    
    25   12   13 ar   
    26   12   72 1    
    27   13   14 ar   
    28   13   15 1    
    29   14   73 1    
    30   15   16 1    
    31   15   74 1    
    32   15   75 1    
    33   16   17 1    
    34   17   18 1    
    35   17   76 1    
    36   17   77 1    
    37   18   19 1    
    38   18   27 1    
    39   18   78 1    
    40   19   20 am   BACKBONE|DICT|INTERRES
    41   19   79 1    
    42   20   21 2    
    43   20   22 1    
    44   22   23 1    
    45   22   24 1    
    46   22   80 1    
    47   23   81 1    
    48   23   82 1    
    49   23   83 1    
    50   24   25 am   BACKBONE|DICT|INTERRES
    51   24   84 1    
    52   25   26 2    
    53   27   28 2    
    54   27   29 am   BACKBONE|DICT|INTERRES
    55   29   30 1    
    56   29   85 1    
    57   30   31 1    
    58   30   32 1    
    59   30   86 1    
    60   31   87 1    
    61   31   88 1    
    62   31   89 1    
    63   32   33 2    
    64   32   34 am   BACKBONE|DICT|INTERRES
    65   34   35 1    
    66   34   90 1    
    67   35   36 1    
    68   35   37 1    
    69   35   91 1    
    70   36   92 1    
    71   36   93 1    
    72   36   94 1    
    73   37   38 2    
    74   37   39 am   BACKBONE|DICT|INTERRES
    75   39   40 1    
    76   39   95 1    
    77   40   41 1    
    78   40   42 1    
    79   40   96 1    
    80   41   97 1    
    81   41   98 1    
    82   41   99 1    
    83   42   43 2    
    84   42   44 am   BACKBONE|DICT|INTERRES
    85   44   45 1    
    86   44  100 1    
    87   45   46 1    
    88   45   47 1    
    89   45  101 1    
    90   46  102 1    
    91   46  103 1    
    92   46  104 1    
    93   47   48 2    
    94   47   49 am   BACKBONE|DICT|INTERRES
    95   49   50 1    
    96   49  105 1    
    97   50   51 1    
    98   50   52 1    
    99   50  106 1    
   100   51  107 1    
   101   51  108 1    
   102   51  109 1    
   103   52   53 2    
   104   52   54 am   BACKBONE|DICT|INTERRES
   105   54   55 1    
   106   54  110 1    
   107   55   56 1    
   108   55   59 1    
   109   55  111 1    
   110   56   57 am   BACKBONE|DICT|INTERRES
   111   56   58 2    
   112   57  112 1    
   113   57  113 1    
   114   59   60 1    
   115   59  114 1    
   116   59  115 1    
   117   60   61 1    
   118   61  116 1    
   119   61  117 1    
@<TRIPOS>SUBSTRUCTURE
     1 UNK         1 GROUP             0       ****    0 ROOT    
