@<TRIPOS>MOLECULE
3R8
117   119    1
SMALL
USER_CHARGES


@<TRIPOS>ATOM
      1 CA         14.5432  -22.2482  -45.8258 C.3       0 UNK        -0.2013 
      2 C          15.7956  -23.0281  -46.1973 C.2       0 UNK         0.4866 
      3 O          16.8220  -22.4251  -46.5134 O.2       0 UNK        -0.5176 
      4 N          15.7167  -24.3639  -46.1717 N.am      1 UNK        -0.4884 
      5 CA         16.8347  -25.2801  -46.4200 C.3       1 UNK         0.0853 
      6 C6         16.3461  -26.6904  -46.8388 C.3       10 UNK        -0.0849 
      7 S7         15.0523  -27.4016  -45.7628 S.3       10 UNK        -0.2776 
      8 C8         15.4574  -29.1734  -45.8403 C.3       10 UNK         0.0316 
      9 C9         16.5561  -29.5351  -44.8541 C.ar      10 UNK        -0.0863 
     10 C10        17.8745  -29.7134  -45.2806 C.ar      10 UNK        -0.1009 
     11 C11        18.8749  -30.0600  -44.3668 C.ar      10 UNK        -0.0712 
     12 C12        18.5434  -30.2466  -43.0193 C.ar      10 UNK        -0.0894 
     13 C13        17.2284  -30.0525  -42.5796 C.ar      10 UNK        -0.0745 
     14 C14        16.2422  -29.7009  -43.5044 C.ar      10 UNK        -0.0972 
     15 C15        16.8438  -30.2272  -41.1143 C.3       10 UNK         0.0209 
     16 S16        17.7118  -29.1079  -39.9620 S.3       10 UNK        -0.2568 
     17 C17        17.8145  -27.5069  -40.8426 C.3       10 UNK        -0.0983 
     18 CA         19.2548  -27.2589  -41.3633 C.3       3 UNK         0.0876 
     19 N          19.2841  -26.5198  -42.6350 N.am      3 UNK        -0.4424 
     20 C          20.3291  -26.5061  -43.4726 C.2       2 UNK         0.4918 
     21 O          21.3536  -27.1584  -43.2653 O.2       2 UNK        -0.4875 
     22 CA         20.2636  -25.5520  -44.6836 C.3       2 UNK         0.0481 
     23 CB         21.5192  -25.6575  -45.5706 C.3       2 UNK        -0.1831 
     24 N          19.0788  -25.6938  -45.5359 N.am      2 UNK        -0.4498 
     25 C          17.8311  -25.3047  -45.2382 C.2       1 UNK         0.5027 
     26 O          17.4770  -24.9463  -44.1104 O.2       1 UNK        -0.4969 
     27 C          20.2022  -26.6732  -40.2859 C.2       3 UNK         0.5005 
     28 O          20.4536  -27.3244  -39.2725 O.2       3 UNK        -0.5279 
     29 N          20.7964  -25.4989  -40.5475 N.am      4 UNK        -0.4463 
     30 CA         21.9581  -24.9760  -39.8204 C.3       4 UNK         0.0283 
     31 CB         22.2605  -23.5511  -40.3108 C.3       4 UNK        -0.1875 
     32 C          23.2129  -25.8675  -39.9546 C.2       4 UNK         0.4949 
     33 O          24.0837  -25.8078  -39.0872 O.2       4 UNK        -0.5039 
     34 N          23.2753  -26.6859  -41.0159 N.am      5 UNK        -0.4663 
     35 CA         24.3361  -27.6540  -41.2910 C.3       5 UNK         0.0242 
     36 CB         24.8829  -27.3959  -42.7078 C.3       5 UNK        -0.1982 
     37 C          23.8290  -29.0992  -41.1253 C.2       5 UNK         0.5017 
     38 O          24.3040  -29.9895  -41.8321 O.2       5 UNK        -0.5012 
     39 N          22.8901  -29.3319  -40.1921 N.am      6 UNK        -0.4439 
     40 CA         22.2756  -30.6387  -39.9041 C.3       6 UNK         0.0297 
     41 CB         21.2793  -30.5082  -38.7424 C.3       6 UNK        -0.2006 
     42 C          23.2677  -31.7793  -39.6095 C.2       6 UNK         0.4892 
     43 O          22.9887  -32.9229  -39.9696 O.2       6 UNK        -0.5089 
     44 N          24.4144  -31.4467  -38.9993 N.am      7 UNK        -0.4243 
     45 CA         25.5175  -32.3734  -38.7291 C.3       7 UNK         0.0196 
     46 CB         26.5545  -31.6786  -37.8320 C.3       7 UNK        -0.2007 
     47 C          26.1888  -32.9219  -40.0027 C.2       7 UNK         0.5020 
     48 O          26.6786  -34.0513  -39.9816 O.2       7 UNK        -0.5147 
     49 N          26.1945  -32.1283  -41.0826 N.am      8 UNK        -0.4734 
     50 CA         26.6558  -32.5450  -42.4083 C.3       8 UNK         0.0238 
     51 CB         27.2533  -31.3360  -43.1474 C.3       8 UNK        -0.1912 
     52 C          25.5129  -33.1681  -43.2253 C.2       8 UNK         0.5038 
     53 O          25.7606  -34.1060  -43.9841 O.2       8 UNK        -0.5046 
     54 N          24.2943  -32.6343  -43.0593 N.am      9 UNK        -0.4200 
     55 CA         23.0620  -33.1061  -43.7080 C.3       9 UNK         0.0839 
     56 C          22.6654  -34.5580  -43.3209 C.2       9 UNK         0.5513 
     57 N          22.7480  -34.9270  -42.0486 N.am      9 UNK        -0.7519 
     58 O          22.2908  -35.3533  -44.1787 O.2       9 UNK        -0.4960 
     59 C59        21.8855  -32.1170  -43.4771 C.3       10 UNK        -0.0876 
     60 S60        20.8240  -31.9470  -44.9509 S.3       10 UNK        -0.2414 
     61 C61        20.3136  -30.2024  -44.8415 C.3       10 UNK         0.0169 
     62 H62        13.7089  -22.9071  -45.5856 H         1 UNK         0.0903 
     63 H63        14.7378  -21.6180  -44.9585 H         1 UNK         0.0903 
     64 H64        14.2410  -21.6065  -46.6531 H         1 UNK         0.0903 
     65 H65        14.8617  -24.8129  -45.8729 H         1 UNK         0.3096 
     66 H66        17.3888  -24.8744  -47.2702 H         1 UNK         0.1121 
     67 H67        15.9269  -26.6346  -47.8448 H         1 UNK         0.0849 
     68 H68        17.1874  -27.3800  -46.9191 H         1 UNK         0.0849 
     69 H69        14.5601  -29.7490  -45.6075 H         1 UNK         0.0865 
     70 H70        15.7357  -29.4508  -46.8584 H         1 UNK         0.0865 
     71 H71        18.1238  -29.5806  -46.3243 H         1 UNK         0.1346 
     72 H72        19.3112  -30.5226  -42.3099 H         1 UNK         0.1412 
     73 H73        15.2222  -29.5529  -43.1760 H         1 UNK         0.1426 
     74 H74        17.0449  -31.2573  -40.8171 H         1 UNK         0.0716 
     75 H75        15.7711  -30.0795  -40.9798 H         1 UNK         0.0716 
     76 H76        17.4899  -26.7071  -40.1746 H         1 UNK         0.0695 
     77 H77        17.0976  -27.5091  -41.6646 H         1 UNK         0.0695 
     78 H78        19.6905  -28.2323  -41.5936 H         1 UNK         0.0983 
     79 H79        18.4701  -25.9606  -42.8798 H         1 UNK         0.3095 
     80 H80        20.2478  -24.5412  -44.2711 H         1 UNK         0.0454 
     81 H81        22.4267  -25.4756  -44.9927 H         1 UNK         0.0851 
     82 H82        21.6133  -26.6473  -46.0191 H         1 UNK         0.0851 
     83 H83        21.5035  -24.9222  -46.3752 H         1 UNK         0.0851 
     84 H84        19.2624  -26.0154  -46.4755 H         1 UNK         0.2976 
     85 H85        20.5229  -25.0060  -41.3846 H         1 UNK         0.3116 
     86 H86        21.6991  -24.9287  -38.7605 H         1 UNK         0.0646 
     87 H87        23.1027  -23.1224  -39.7657 H         1 UNK         0.0847 
     88 H88        21.4088  -22.8880  -40.1585 H         1 UNK         0.0847 
     89 H89        22.5173  -23.5334  -41.3708 H         1 UNK         0.0847 
     90 H90        22.5079  -26.6918  -41.6811 H         1 UNK         0.3040 
     91 H91        25.1593  -27.5292  -40.5845 H         1 UNK         0.1015 
     92 H92        25.2286  -26.3680  -42.8179 H         1 UNK         0.0786 
     93 H93        24.1244  -27.5780  -43.4705 H         1 UNK         0.0786 
     94 H94        25.7311  -28.0454  -42.9279 H         1 UNK         0.0786 
     95 H95        22.5316  -28.5422  -39.6706 H         1 UNK         0.3172 
     96 H96        21.7114  -30.9255  -40.7918 H         1 UNK         0.0595 
     97 H97        20.4361  -29.8760  -39.0130 H         1 UNK         0.0839 
     98 H98        21.7457  -30.0868  -37.8514 H         1 UNK         0.0839 
     99 H99        20.8650  -31.4793  -38.4668 H         1 UNK         0.0839 
    100 H100       24.5514  -30.4823  -38.7345 H         1 UNK         0.2998 
    101 H101       25.1082  -33.2265  -38.1834 H         1 UNK         0.0822 
    102 H102       26.1133  -31.3600  -36.8873 H         1 UNK         0.0787 
    103 H103       27.3769  -32.3541  -37.5917 H         1 UNK         0.0787 
    104 H104       26.9849  -30.8011  -38.3164 H         1 UNK         0.0787 
    105 H105       25.7259  -31.2308  -41.0324 H         1 UNK         0.3055 
    106 H106       27.4400  -33.2987  -42.3041 H         1 UNK         0.1106 
    107 H107       26.5150  -30.5494  -43.3068 H         1 UNK         0.0828 
    108 H108       28.0872  -30.9054  -42.5930 H         1 UNK         0.0828 
    109 H109       27.6326  -31.6286  -44.1274 H         1 UNK         0.0828 
    110 H110       24.2069  -31.8255  -42.4542 H         1 UNK         0.2931 
    111 H111       23.2932  -33.1168  -44.7753 H         1 UNK         0.0412 
    112 H112       22.9925  -34.2507  -41.3297 H         1 UNK         0.3472 
    113 H113       22.5002  -35.8681  -41.7885 H         1 UNK         0.3472 
    114 H114       22.2810  -31.1311  -43.2328 H         1 UNK         0.0970 
    115 H115       21.2702  -32.4049  -42.6224 H         1 UNK         0.0970 
    116 H116       20.4315  -29.7508  -45.8277 H         1 UNK         0.0612 
    117 H117       20.9720  -29.6384  -44.1815 H         1 UNK         0.0612 
@<TRIPOS>BOND
     1    1    2 1    
     2    1   62 1    
     3    1   63 1    
     4    1   64 1    
     5    2    3 2    
     6    2    4 am   BACKBONE|DICT|INTERRES
     7    4    5 1    
     8    4   65 1    
     9    5    6 1    
    10    5   25 1    
    11    5   66 1    
    12    6    7 1    
    13    6   67 1    
    14    6   68 1    
    15    7    8 1    
    16    8    9 1    
    17    8   69 1    
    18    8   70 1    
    19    9   10 ar   
    20    9   14 ar   
    21   10   11 ar   
    22   10   71 1    
    23   11   12 ar   
    24   11   61 1    
    25   12   13 ar   
    26   12   72 1    
    27   13   14 ar   
    28   13   15 1    
    29   14   73 1    
    30   15   16 1    
    31   15   74 1    
    32   15   75 1    
    33   16   17 1    
    34   17   18 1    
    35   17   76 1    
    36   17   77 1    
    37   18   19 1    
    38   18   27 1    
    39   18   78 1    
    40   19   20 am   BACKBONE|DICT|INTERRES
    41   19   79 1    
    42   20   21 2    
    43   20   22 1    
    44   22   23 1    
    45   22   24 1    
    46   22   80 1    
    47   23   81 1    
    48   23   82 1    
    49   23   83 1    
    50   24   25 am   BACKBONE|DICT|INTERRES
    51   24   84 1    
    52   25   26 2    
    53   27   28 2    
    54   27   29 am   BACKBONE|DICT|INTERRES
    55   29   30 1    
    56   29   85 1    
    57   30   31 1    
    58   30   32 1    
    59   30   86 1    
    60   31   87 1    
    61   31   88 1    
    62   31   89 1    
    63   32   33 2    
    64   32   34 am   BACKBONE|DICT|INTERRES
    65   34   35 1    
    66   34   90 1    
    67   35   36 1    
    68   35   37 1    
    69   35   91 1    
    70   36   92 1    
    71   36   93 1    
    72   36   94 1    
    73   37   38 2    
    74   37   39 am   BACKBONE|DICT|INTERRES
    75   39   40 1    
    76   39   95 1    
    77   40   41 1    
    78   40   42 1    
    79   40   96 1    
    80   41   97 1    
    81   41   98 1    
    82   41   99 1    
    83   42   43 2    
    84   42   44 am   BACKBONE|DICT|INTERRES
    85   44   45 1    
    86   44  100 1    
    87   45   46 1    
    88   45   47 1    
    89   45  101 1    
    90   46  102 1    
    91   46  103 1    
    92   46  104 1    
    93   47   48 2    
    94   47   49 am   BACKBONE|DICT|INTERRES
    95   49   50 1    
    96   49  105 1    
    97   50   51 1    
    98   50   52 1    
    99   50  106 1    
   100   51  107 1    
   101   51  108 1    
   102   51  109 1    
   103   52   53 2    
   104   52   54 am   BACKBONE|DICT|INTERRES
   105   54   55 1    
   106   54  110 1    
   107   55   56 1    
   108   55   59 1    
   109   55  111 1    
   110   56   57 am   BACKBONE|DICT|INTERRES
   111   56   58 2    
   112   57  112 1    
   113   57  113 1    
   114   59   60 1    
   115   59  114 1    
   116   59  115 1    
   117   60   61 1    
   118   61  116 1    
   119   61  117 1    
@<TRIPOS>SUBSTRUCTURE
     1 UNK         1 GROUP             0       ****    0 ROOT    
