@<TRIPOS>MOLECULE
3R8
117   119    1
SMALL
USER_CHARGES


@<TRIPOS>ATOM
      1 CA         17.2599  -24.2459  -45.8329 C.3       0 UNK        -0.2013 
      2 C          15.7350  -24.2564  -45.8419 C.2       0 UNK         0.4866 
      3 O          15.1255  -23.1953  -45.9617 O.2       0 UNK        -0.5176 
      4 N          15.0703  -25.4153  -45.7347 N.am      1 UNK        -0.4884 
      5 CA         15.6344  -26.7537  -45.5154 C.3       1 UNK         0.0853 
      6 C6         14.6175  -27.8322  -45.9759 C.3       10 UNK        -0.0849 
      7 S7         15.2471  -29.5431  -46.1295 S.3       10 UNK        -0.2776 
      8 C8         16.5588  -29.4125  -47.3898 C.3       10 UNK         0.0316 
      9 C9         17.9429  -29.2859  -46.7623 C.ar      10 UNK        -0.0863 
     10 C10        18.4749  -30.3484  -46.0241 C.ar      10 UNK        -0.1009 
     11 C11        19.7571  -30.2649  -45.4733 C.ar      10 UNK        -0.0712 
     12 C12        20.5088  -29.1009  -45.6581 C.ar      10 UNK        -0.0894 
     13 C13        19.9930  -28.0330  -46.4000 C.ar      10 UNK        -0.0745 
     14 C14        18.7132  -28.1345  -46.9539 C.ar      10 UNK        -0.0972 
     15 C15        20.8327  -26.7887  -46.6549 C.3       10 UNK         0.0209 
     16 S16        20.5319  -25.4856  -45.4192 S.3       10 UNK        -0.2568 
     17 C17        21.5120  -26.0815  -44.0033 C.3       10 UNK        -0.0983 
     18 CA         20.6696  -26.3227  -42.7243 C.3       3 UNK         0.0876 
     19 N          19.5293  -27.2116  -42.9570 N.am      3 UNK        -0.4424 
     20 C          18.5437  -27.4407  -42.0789 C.2       2 UNK         0.4918 
     21 O          18.4616  -26.8907  -40.9792 O.2       2 UNK        -0.4875 
     22 CA         17.4581  -28.4296  -42.5365 C.3       2 UNK         0.0481 
     23 CB         16.3844  -28.7064  -41.4624 C.3       2 UNK        -0.1831 
     24 N          16.8521  -28.0261  -43.8086 N.am      2 UNK        -0.4498 
     25 C          16.1015  -26.9419  -44.0516 C.2       1 UNK         0.5027 
     26 O          15.7822  -26.1177  -43.1912 O.2       1 UNK        -0.4969 
     27 C          21.5711  -26.8948  -41.6150 C.2       3 UNK         0.5005 
     28 O          22.1668  -27.9521  -41.8204 O.2       3 UNK        -0.5279 
     29 N          21.7016  -26.1817  -40.4876 N.am      4 UNK        -0.4463 
     30 CA         22.5047  -26.5940  -39.3262 C.3       4 UNK         0.0283 
     31 CB         22.2806  -25.5956  -38.1788 C.3       4 UNK        -0.1875 
     32 C          24.0125  -26.7589  -39.6087 C.2       4 UNK         0.4949 
     33 O          24.7009  -27.4318  -38.8417 O.2       4 UNK        -0.5039 
     34 N          24.4971  -26.1475  -40.6980 N.am      5 UNK        -0.4663 
     35 CA         25.8630  -26.2876  -41.2015 C.3       5 UNK         0.0242 
     36 CB         26.1591  -25.1235  -42.1616 C.3       5 UNK        -0.1982 
     37 C          26.1303  -27.6366  -41.8972 C.2       5 UNK         0.5017 
     38 O          27.2977  -28.0111  -42.0190 O.2       5 UNK        -0.5012 
     39 N          25.0793  -28.3342  -42.3561 N.am      6 UNK        -0.4439 
     40 CA         25.1890  -29.6524  -42.9826 C.3       6 UNK         0.0297 
     41 CB         24.0237  -29.8596  -43.9615 C.3       6 UNK        -0.2006 
     42 C          25.2180  -30.7471  -41.9057 C.2       6 UNK         0.4892 
     43 O          24.5015  -30.6401  -40.9074 O.2       6 UNK        -0.5089 
     44 N          26.0498  -31.7723  -42.1384 N.am      7 UNK        -0.4243 
     45 CA         26.3675  -32.8691  -41.2180 C.3       7 UNK         0.0196 
     46 CB         27.3186  -33.8551  -41.9190 C.3       7 UNK        -0.2007 
     47 C          25.1251  -33.5932  -40.6704 C.2       7 UNK         0.5020 
     48 O          24.4860  -34.3493  -41.4036 O.2       7 UNK        -0.5147 
     49 N          24.8116  -33.3207  -39.3956 N.am      8 UNK        -0.4734 
     50 CA         23.6862  -33.8459  -38.6097 C.3       8 UNK         0.0238 
     51 CB         23.8386  -35.3674  -38.3945 C.3       8 UNK        -0.1912 
     52 C          22.2863  -33.4703  -39.1425 C.2       8 UNK         0.5038 
     53 O          21.3069  -34.0911  -38.7238 O.2       8 UNK        -0.5046 
     54 N          22.1978  -32.4735  -40.0338 N.am      9 UNK        -0.4200 
     55 CA         20.9314  -31.9706  -40.5818 C.3       9 UNK         0.0839 
     56 C          20.2371  -30.9732  -39.6143 C.2       9 UNK         0.5513 
     57 N          18.9179  -30.8682  -39.6787 N.am      9 UNK        -0.7519 
     58 O          20.8766  -30.2870  -38.8205 O.2       9 UNK        -0.4960 
     59 C59        21.1285  -31.3766  -42.0007 C.3       10 UNK        -0.0876 
     60 S60        19.6555  -31.6099  -43.0513 S.3       10 UNK        -0.2414 
     61 C61        20.3432  -31.4563  -44.7287 C.3       10 UNK         0.0169 
     62 H62        17.6361  -23.2333  -45.9767 H         1 UNK         0.0903 
     63 H63        17.6630  -24.8611  -46.6364 H         1 UNK         0.0903 
     64 H64        17.6466  -24.6061  -44.8804 H         1 UNK         0.0903 
     65 H65        14.0613  -25.3735  -45.7141 H         1 UNK         0.3096 
     66 H66        16.5151  -26.8340  -46.1465 H         1 UNK         0.1121 
     67 H67        13.7582  -27.8499  -45.3025 H         1 UNK         0.0849 
     68 H68        14.2142  -27.5602  -46.9531 H         1 UNK         0.0849 
     69 H69        16.5385  -30.3129  -48.0057 H         1 UNK         0.0865 
     70 H70        16.3484  -28.5824  -48.0662 H         1 UNK         0.0865 
     71 H71        17.8938  -31.2510  -45.8888 H         1 UNK         0.1346 
     72 H72        21.5068  -29.0394  -45.2491 H         1 UNK         0.1412 
     73 H73        18.3288  -27.3192  -47.5516 H         1 UNK         0.1426 
     74 H74        20.5988  -26.3874  -47.6422 H         1 UNK         0.0716 
     75 H75        21.8945  -27.0389  -46.6808 H         1 UNK         0.0716 
     76 H76        22.0497  -26.9853  -44.2929 H         1 UNK         0.0695 
     77 H77        22.2825  -25.3340  -43.8056 H         1 UNK         0.0695 
     78 H78        20.2718  -25.3598  -42.3965 H         1 UNK         0.0983 
     79 H79        19.5235  -27.6993  -43.8412 H         1 UNK         0.3095 
     80 H80        17.9647  -29.3723  -42.7324 H         1 UNK         0.0454 
     81 H81        15.8421  -27.8041  -41.1796 H         1 UNK         0.0851 
     82 H82        15.6578  -29.4409  -41.8089 H         1 UNK         0.0851 
     83 H83        16.8380  -29.1026  -40.5542 H         1 UNK         0.0851 
     84 H84        17.0287  -28.6526  -44.5848 H         1 UNK         0.2976 
     85 H85        21.1747  -25.3252  -40.3886 H         1 UNK         0.3116 
     86 H86        22.1341  -27.5705  -39.0060 H         1 UNK         0.0646 
     87 H87        22.8379  -25.8919  -37.2889 H         1 UNK         0.0847 
     88 H88        21.2292  -25.5440  -37.8954 H         1 UNK         0.0847 
     89 H89        22.6084  -24.5907  -38.4478 H         1 UNK         0.0847 
     90 H90        23.8589  -25.6003  -41.2561 H         1 UNK         0.3040 
     91 H91        26.5510  -26.2180  -40.3557 H         1 UNK         0.1015 
     92 H92        26.0456  -24.1597  -41.6649 H         1 UNK         0.0786 
     93 H93        25.4976  -25.1363  -43.0288 H         1 UNK         0.0786 
     94 H94        27.1837  -25.1749  -42.5332 H         1 UNK         0.0786 
     95 H95        24.1384  -28.0284  -42.1235 H         1 UNK         0.3172 
     96 H96        26.1161  -29.6988  -43.5583 H         1 UNK         0.0595 
     97 H97        23.0602  -29.7821  -43.4625 H         1 UNK         0.0839 
     98 H98        24.0728  -30.8438  -44.4291 H         1 UNK         0.0839 
     99 H99        24.0448  -29.1186  -44.7605 H         1 UNK         0.0839 
    100 H100       26.5624  -31.7725  -43.0084 H         1 UNK         0.2998 
    101 H101       26.9101  -32.4321  -40.3772 H         1 UNK         0.0822 
    102 H102       26.8688  -34.2814  -42.8168 H         1 UNK         0.0787 
    103 H103       28.2522  -33.3719  -42.2076 H         1 UNK         0.0787 
    104 H104       27.5759  -34.6848  -41.2589 H         1 UNK         0.0787 
    105 H105       25.3826  -32.6385  -38.9142 H         1 UNK         0.3055 
    106 H106       23.7573  -33.3699  -37.6304 H         1 UNK         0.1106 
    107 H107       23.7048  -35.9229  -39.3231 H         1 UNK         0.0828 
    108 H108       24.8209  -35.6159  -37.9931 H         1 UNK         0.0828 
    109 H109       23.0993  -35.7411  -37.6850 H         1 UNK         0.0828 
    110 H110       23.0356  -31.9575  -40.2825 H         1 UNK         0.2931 
    111 H111       20.2721  -32.8361  -40.6785 H         1 UNK         0.0412 
    112 H112       18.3900  -31.4214  -40.3347 H         1 UNK         0.3472 
    113 H113       18.4466  -30.2302  -39.0577 H         1 UNK         0.3472 
    114 H114       21.9683  -31.8699  -42.4927 H         1 UNK         0.0970 
    115 H115       21.3806  -30.3184  -41.9572 H         1 UNK         0.0970 
    116 H116       21.4308  -31.3864  -44.6951 H         1 UNK         0.0612 
    117 H117       20.1198  -32.3709  -45.2798 H         1 UNK         0.0612 
@<TRIPOS>BOND
     1    1    2 1    
     2    1   62 1    
     3    1   63 1    
     4    1   64 1    
     5    2    3 2    
     6    2    4 am   BACKBONE|DICT|INTERRES
     7    4    5 1    
     8    4   65 1    
     9    5    6 1    
    10    5   25 1    
    11    5   66 1    
    12    6    7 1    
    13    6   67 1    
    14    6   68 1    
    15    7    8 1    
    16    8    9 1    
    17    8   69 1    
    18    8   70 1    
    19    9   10 ar   
    20    9   14 ar   
    21   10   11 ar   
    22   10   71 1    
    23   11   12 ar   
    24   11   61 1    
    25   12   13 ar   
    26   12   72 1    
    27   13   14 ar   
    28   13   15 1    
    29   14   73 1    
    30   15   16 1    
    31   15   74 1    
    32   15   75 1    
    33   16   17 1    
    34   17   18 1    
    35   17   76 1    
    36   17   77 1    
    37   18   19 1    
    38   18   27 1    
    39   18   78 1    
    40   19   20 am   BACKBONE|DICT|INTERRES
    41   19   79 1    
    42   20   21 2    
    43   20   22 1    
    44   22   23 1    
    45   22   24 1    
    46   22   80 1    
    47   23   81 1    
    48   23   82 1    
    49   23   83 1    
    50   24   25 am   BACKBONE|DICT|INTERRES
    51   24   84 1    
    52   25   26 2    
    53   27   28 2    
    54   27   29 am   BACKBONE|DICT|INTERRES
    55   29   30 1    
    56   29   85 1    
    57   30   31 1    
    58   30   32 1    
    59   30   86 1    
    60   31   87 1    
    61   31   88 1    
    62   31   89 1    
    63   32   33 2    
    64   32   34 am   BACKBONE|DICT|INTERRES
    65   34   35 1    
    66   34   90 1    
    67   35   36 1    
    68   35   37 1    
    69   35   91 1    
    70   36   92 1    
    71   36   93 1    
    72   36   94 1    
    73   37   38 2    
    74   37   39 am   BACKBONE|DICT|INTERRES
    75   39   40 1    
    76   39   95 1    
    77   40   41 1    
    78   40   42 1    
    79   40   96 1    
    80   41   97 1    
    81   41   98 1    
    82   41   99 1    
    83   42   43 2    
    84   42   44 am   BACKBONE|DICT|INTERRES
    85   44   45 1    
    86   44  100 1    
    87   45   46 1    
    88   45   47 1    
    89   45  101 1    
    90   46  102 1    
    91   46  103 1    
    92   46  104 1    
    93   47   48 2    
    94   47   49 am   BACKBONE|DICT|INTERRES
    95   49   50 1    
    96   49  105 1    
    97   50   51 1    
    98   50   52 1    
    99   50  106 1    
   100   51  107 1    
   101   51  108 1    
   102   51  109 1    
   103   52   53 2    
   104   52   54 am   BACKBONE|DICT|INTERRES
   105   54   55 1    
   106   54  110 1    
   107   55   56 1    
   108   55   59 1    
   109   55  111 1    
   110   56   57 am   BACKBONE|DICT|INTERRES
   111   56   58 2    
   112   57  112 1    
   113   57  113 1    
   114   59   60 1    
   115   59  114 1    
   116   59  115 1    
   117   60   61 1    
   118   61  116 1    
   119   61  117 1    
@<TRIPOS>SUBSTRUCTURE
     1 UNK         1 GROUP             0       ****    0 ROOT    
