@<TRIPOS>MOLECULE
3R8
117   119    1
SMALL
USER_CHARGES


@<TRIPOS>ATOM
      1 CA         18.2537  -25.0664  -49.5832 C.3       0 UNK        -0.2013 
      2 C          19.3184  -24.6987  -48.5602 C.2       0 UNK         0.4866 
      3 O          19.7032  -23.5321  -48.4698 O.2       0 UNK        -0.5176 
      4 N          19.8028  -25.6857  -47.7957 N.am      1 UNK        -0.4884 
      5 CA         20.7703  -25.5036  -46.7071 C.3       1 UNK         0.0853 
      6 C6         21.5762  -26.8231  -46.4561 C.3       10 UNK        -0.0849 
      7 S7         21.1484  -27.8353  -44.9900 S.3       10 UNK        -0.2776 
      8 C8         20.0531  -29.0995  -45.6965 C.3       10 UNK         0.0316 
      9 C9         19.2091  -29.7267  -44.5987 C.ar      10 UNK        -0.0863 
     10 C10        19.7109  -30.7844  -43.8327 C.ar      10 UNK        -0.1009 
     11 C11        18.9456  -31.3359  -42.8005 C.ar      10 UNK        -0.0712 
     12 C12        17.6789  -30.8138  -42.5286 C.ar      10 UNK        -0.0894 
     13 C13        17.1758  -29.7443  -43.2744 C.ar      10 UNK        -0.0745 
     14 C14        17.9342  -29.2216  -44.3260 C.ar      10 UNK        -0.0972 
     15 C15        15.8280  -29.1377  -42.9142 C.3       10 UNK         0.0209 
     16 S16        15.8935  -28.2904  -41.3010 S.3       10 UNK        -0.2568 
     17 C17        16.7341  -26.7184  -41.7055 C.3       10 UNK        -0.0983 
     18 CA         18.2835  -26.7811  -41.7565 C.3       3 UNK         0.0876 
     19 N          18.8440  -25.5008  -42.1914 N.am      3 UNK        -0.4424 
     20 C          20.1391  -25.2282  -42.3937 C.2       2 UNK         0.4918 
     21 O          21.0780  -25.9587  -42.0644 O.2       2 UNK        -0.4875 
     22 CA         20.4321  -23.9489  -43.1954 C.3       2 UNK         0.0481 
     23 CB         21.5085  -23.0910  -42.5095 C.3       2 UNK        -0.1831 
     24 N          20.8663  -24.3165  -44.5473 N.am      2 UNK        -0.4498 
     25 C          20.0745  -24.9054  -45.4584 C.2       1 UNK         0.5027 
     26 O          18.8524  -25.0231  -45.3191 O.2       1 UNK        -0.4969 
     27 C          18.9273  -27.3202  -40.4641 C.2       3 UNK         0.5005 
     28 O          18.8367  -26.6723  -39.4188 O.2       3 UNK        -0.5279 
     29 N          19.5866  -28.4825  -40.5939 N.am      4 UNK        -0.4463 
     30 CA         20.3316  -29.2224  -39.5687 C.3       4 UNK         0.0283 
     31 CB         19.3905  -29.6896  -38.4389 C.3       4 UNK        -0.1875 
     32 C          21.5833  -28.4974  -39.0270 C.2       4 UNK         0.4949 
     33 O          22.1506  -28.9569  -38.0344 O.2       4 UNK        -0.5039 
     34 N          22.0020  -27.3981  -39.6696 N.am      5 UNK        -0.4663 
     35 CA         23.1547  -26.5860  -39.2789 C.3       5 UNK         0.0242 
     36 CB         22.6979  -25.1410  -39.0142 C.3       5 UNK        -0.1982 
     37 C          24.2467  -26.6264  -40.3538 C.2       5 UNK         0.5017 
     38 O          25.4064  -26.8721  -40.0202 O.2       5 UNK        -0.5012 
     39 N          23.8688  -26.3901  -41.6186 N.am      6 UNK        -0.4439 
     40 CA         24.7905  -26.3906  -42.7605 C.3       6 UNK         0.0297 
     41 CB         24.1990  -25.5505  -43.9007 C.3       6 UNK        -0.2006 
     42 C          25.1467  -27.8034  -43.2535 C.2       6 UNK         0.4892 
     43 O          26.2065  -27.9768  -43.8571 O.2       6 UNK        -0.5089 
     44 N          24.2768  -28.7810  -42.9829 N.am      7 UNK        -0.4243 
     45 CA         24.4800  -30.1973  -43.2588 C.3       7 UNK         0.0196 
     46 CB         23.9314  -30.5479  -44.6525 C.3       7 UNK        -0.2007 
     47 C          23.7654  -30.9935  -42.1655 C.2       7 UNK         0.5020 
     48 O          22.7336  -30.5428  -41.6633 O.2       7 UNK        -0.5147 
     49 N          24.3210  -32.1593  -41.8237 N.am      8 UNK        -0.4734 
     50 CA         23.7517  -33.0915  -40.8519 C.3       8 UNK         0.0238 
     51 CB         24.8915  -33.7057  -40.0218 C.3       8 UNK        -0.1912 
     52 C          22.9680  -34.1917  -41.5804 C.2       8 UNK         0.5038 
     53 O          23.3582  -34.5911  -42.6809 O.2       8 UNK        -0.5046 
     54 N          21.9041  -34.6750  -40.9321 N.am      9 UNK        -0.4200 
     55 CA         21.0276  -35.7554  -41.4150 C.3       9 UNK         0.0839 
     56 C          21.1674  -37.0656  -40.5849 C.2       9 UNK         0.5513 
     57 N          22.0808  -37.1566  -39.6248 N.am      9 UNK        -0.7519 
     58 O          20.4457  -38.0296  -40.8270 O.2       9 UNK        -0.4960 
     59 C59        19.5519  -35.2789  -41.4985 C.3       10 UNK        -0.0876 
     60 S60        19.2766  -34.0680  -42.8359 S.3       10 UNK        -0.2414 
     61 C61        19.4876  -32.4850  -41.9667 C.3       10 UNK         0.0169 
     62 H62        17.3351  -24.5159  -49.3819 H         1 UNK         0.0903 
     63 H63        18.5924  -24.8094  -50.5865 H         1 UNK         0.0903 
     64 H64        18.0213  -26.1311  -49.5663 H         1 UNK         0.0903 
     65 H65        19.4163  -26.6138  -47.8864 H         1 UNK         0.3096 
     66 H66        21.4868  -24.7517  -47.0476 H         1 UNK         0.1121 
     67 H67        22.6279  -26.5608  -46.3361 H         1 UNK         0.0849 
     68 H68        21.5678  -27.4612  -47.3415 H         1 UNK         0.0849 
     69 H69        19.4086  -28.6498  -46.4532 H         1 UNK         0.0865 
     70 H70        20.6484  -29.8599  -46.2041 H         1 UNK         0.0865 
     71 H71        20.6990  -31.1758  -44.0320 H         1 UNK         0.1346 
     72 H72        17.0897  -31.2237  -41.7194 H         1 UNK         0.1412 
     73 H73        17.5527  -28.3895  -44.9029 H         1 UNK         0.1426 
     74 H74        15.0830  -29.9330  -42.8640 H         1 UNK         0.0716 
     75 H75        15.4851  -28.4441  -43.6835 H         1 UNK         0.0716 
     76 H76        16.4210  -25.9806  -40.9646 H         1 UNK         0.0695 
     77 H77        16.3451  -26.3625  -42.6609 H         1 UNK         0.0695 
     78 H78        18.5569  -27.4649  -42.5558 H         1 UNK         0.0983 
     79 H79        18.1701  -24.8249  -42.5195 H         1 UNK         0.3095 
     80 H80        19.5226  -23.3494  -43.2741 H         1 UNK         0.0454 
     81 H81        22.4366  -23.6394  -42.3528 H         1 UNK         0.0851 
     82 H82        21.1662  -22.7562  -41.5296 H         1 UNK         0.0851 
     83 H83        21.7385  -22.1992  -43.0924 H         1 UNK         0.0851 
     84 H84        21.8575  -24.2647  -44.7269 H         1 UNK         0.2976 
     85 H85        19.6089  -28.9079  -41.5121 H         1 UNK         0.3116 
     86 H86        20.7004  -30.1190  -40.0670 H         1 UNK         0.0646 
     87 H87        19.0287  -28.8527  -37.8411 H         1 UNK         0.0847 
     88 H88        19.9012  -30.3743  -37.7609 H         1 UNK         0.0847 
     89 H89        18.5242  -30.2176  -38.8374 H         1 UNK         0.0847 
     90 H90        21.4833  -27.0847  -40.4838 H         1 UNK         0.3040 
     91 H91        23.5974  -26.9682  -38.3563 H         1 UNK         0.1015 
     92 H92        22.2357  -24.6894  -39.8920 H         1 UNK         0.0786 
     93 H93        23.5409  -24.5109  -38.7273 H         1 UNK         0.0786 
     94 H94        21.9724  -25.1019  -38.2015 H         1 UNK         0.0786 
     95 H95        22.8862  -26.2089  -41.8151 H         1 UNK         0.3172 
     96 H96        25.7255  -25.9162  -42.4544 H         1 UNK         0.0595 
     97 H97        24.7946  -25.6403  -44.8105 H         1 UNK         0.0839 
     98 H98        24.1751  -24.4934  -43.6394 H         1 UNK         0.0839 
     99 H99        23.1860  -25.8693  -44.1360 H         1 UNK         0.0839 
    100 H100       23.4404  -28.5734  -42.4519 H         1 UNK         0.2998 
    101 H101       25.5470  -30.4278  -43.2174 H         1 UNK         0.0822 
    102 H102       24.0696  -31.6071  -44.8732 H         1 UNK         0.0787 
    103 H103       22.8654  -30.3341  -44.7280 H         1 UNK         0.0787 
    104 H104       24.4404  -29.9821  -45.4328 H         1 UNK         0.0787 
    105 H105       25.1256  -32.4899  -42.3380 H         1 UNK         0.3055 
    106 H106       23.0779  -32.5592  -40.1757 H         1 UNK         0.1106 
    107 H107       24.5026  -34.3847  -39.2620 H         1 UNK         0.0828 
    108 H108       25.5852  -34.2743  -40.6427 H         1 UNK         0.0828 
    109 H109       25.4618  -32.9353  -39.5024 H         1 UNK         0.0828 
    110 H110       21.6779  -34.3109  -40.0180 H         1 UNK         0.2931 
    111 H111       21.3307  -36.0437  -42.4232 H         1 UNK         0.0412 
    112 H112       22.1607  -38.0158  -39.1031 H         1 UNK         0.3472 
    113 H113       22.7055  -36.3912  -39.4308 H         1 UNK         0.3472 
    114 H114       19.2167  -34.8715  -40.5433 H         1 UNK         0.0970 
    115 H115       18.8877  -36.1190  -41.7098 H         1 UNK         0.0970 
    116 H116       20.5444  -32.3191  -41.7565 H         1 UNK         0.0612 
    117 H117       18.9801  -32.5217  -41.0016 H         1 UNK         0.0612 
@<TRIPOS>BOND
     1    1    2 1    
     2    1   62 1    
     3    1   63 1    
     4    1   64 1    
     5    2    3 2    
     6    2    4 am   BACKBONE|DICT|INTERRES
     7    4    5 1    
     8    4   65 1    
     9    5    6 1    
    10    5   25 1    
    11    5   66 1    
    12    6    7 1    
    13    6   67 1    
    14    6   68 1    
    15    7    8 1    
    16    8    9 1    
    17    8   69 1    
    18    8   70 1    
    19    9   10 ar   
    20    9   14 ar   
    21   10   11 ar   
    22   10   71 1    
    23   11   12 ar   
    24   11   61 1    
    25   12   13 ar   
    26   12   72 1    
    27   13   14 ar   
    28   13   15 1    
    29   14   73 1    
    30   15   16 1    
    31   15   74 1    
    32   15   75 1    
    33   16   17 1    
    34   17   18 1    
    35   17   76 1    
    36   17   77 1    
    37   18   19 1    
    38   18   27 1    
    39   18   78 1    
    40   19   20 am   BACKBONE|DICT|INTERRES
    41   19   79 1    
    42   20   21 2    
    43   20   22 1    
    44   22   23 1    
    45   22   24 1    
    46   22   80 1    
    47   23   81 1    
    48   23   82 1    
    49   23   83 1    
    50   24   25 am   BACKBONE|DICT|INTERRES
    51   24   84 1    
    52   25   26 2    
    53   27   28 2    
    54   27   29 am   BACKBONE|DICT|INTERRES
    55   29   30 1    
    56   29   85 1    
    57   30   31 1    
    58   30   32 1    
    59   30   86 1    
    60   31   87 1    
    61   31   88 1    
    62   31   89 1    
    63   32   33 2    
    64   32   34 am   BACKBONE|DICT|INTERRES
    65   34   35 1    
    66   34   90 1    
    67   35   36 1    
    68   35   37 1    
    69   35   91 1    
    70   36   92 1    
    71   36   93 1    
    72   36   94 1    
    73   37   38 2    
    74   37   39 am   BACKBONE|DICT|INTERRES
    75   39   40 1    
    76   39   95 1    
    77   40   41 1    
    78   40   42 1    
    79   40   96 1    
    80   41   97 1    
    81   41   98 1    
    82   41   99 1    
    83   42   43 2    
    84   42   44 am   BACKBONE|DICT|INTERRES
    85   44   45 1    
    86   44  100 1    
    87   45   46 1    
    88   45   47 1    
    89   45  101 1    
    90   46  102 1    
    91   46  103 1    
    92   46  104 1    
    93   47   48 2    
    94   47   49 am   BACKBONE|DICT|INTERRES
    95   49   50 1    
    96   49  105 1    
    97   50   51 1    
    98   50   52 1    
    99   50  106 1    
   100   51  107 1    
   101   51  108 1    
   102   51  109 1    
   103   52   53 2    
   104   52   54 am   BACKBONE|DICT|INTERRES
   105   54   55 1    
   106   54  110 1    
   107   55   56 1    
   108   55   59 1    
   109   55  111 1    
   110   56   57 am   BACKBONE|DICT|INTERRES
   111   56   58 2    
   112   57  112 1    
   113   57  113 1    
   114   59   60 1    
   115   59  114 1    
   116   59  115 1    
   117   60   61 1    
   118   61  116 1    
   119   61  117 1    
@<TRIPOS>SUBSTRUCTURE
     1 UNK         1 GROUP             0       ****    0 ROOT    
