@<TRIPOS>MOLECULE
3R8
117   119    1
SMALL
USER_CHARGES


@<TRIPOS>ATOM
      1 CA         14.2822  -22.3129  -46.5704 C.3       0 UNK        -0.2013 
      2 C          14.7511  -23.6768  -47.0545 C.2       0 UNK         0.4866 
      3 O          14.6840  -23.9586  -48.2511 O.2       0 UNK        -0.5176 
      4 N          15.2254  -24.5265  -46.1341 N.am      1 UNK        -0.4884 
      5 CA         15.6972  -25.8898  -46.4167 C.3       1 UNK         0.0853 
      6 C6         15.8841  -26.7211  -45.1223 C.3       10 UNK        -0.0849 
      7 S7         14.4121  -26.8032  -44.0522 S.3       10 UNK        -0.2776 
      8 C8         14.6406  -28.4371  -43.2644 C.3       10 UNK         0.0316 
      9 C9         16.0411  -28.6518  -42.6906 C.ar      10 UNK        -0.0863 
     10 C10        16.7575  -29.8105  -43.0115 C.ar      10 UNK        -0.1009 
     11 C11        18.0342  -30.0306  -42.4843 C.ar      10 UNK        -0.0712 
     12 C12        18.5971  -29.0740  -41.6339 C.ar      10 UNK        -0.0894 
     13 C13        17.8984  -27.9063  -41.3104 C.ar      10 UNK        -0.0745 
     14 C14        16.6173  -27.7073  -41.8338 C.ar      10 UNK        -0.0972 
     15 C15        18.5056  -26.8745  -40.3676 C.3       10 UNK         0.0209 
     16 S16        20.1779  -26.3507  -40.8669 S.3       10 UNK        -0.2568 
     17 C17        19.8645  -25.4454  -42.4246 C.3       10 UNK        -0.0983 
     18 CA         20.1781  -26.2422  -43.7202 C.3       3 UNK         0.0876 
     19 N          19.8266  -25.4514  -44.9041 N.am      3 UNK        -0.4424 
     20 C          19.9598  -25.8119  -46.1899 C.2       2 UNK         0.4918 
     21 O          20.4637  -26.8683  -46.5745 O.2       2 UNK        -0.4875 
     22 CA         19.3088  -24.8453  -47.1987 C.3       2 UNK         0.0481 
     23 CB         19.7138  -25.1125  -48.6645 C.3       2 UNK        -0.1831 
     24 N          17.8521  -24.8694  -47.0087 N.am      2 UNK        -0.4498 
     25 C          17.0351  -25.9232  -47.1827 C.2       1 UNK         0.5027 
     26 O          17.3221  -26.9293  -47.8322 O.2       1 UNK        -0.4969 
     27 C          21.6359  -26.7531  -43.7555 C.2       3 UNK         0.5005 
     28 O          22.5569  -25.9836  -44.0415 O.2       3 UNK        -0.5279 
     29 N          21.8004  -28.0426  -43.4334 N.am      4 UNK        -0.4463 
     30 CA         23.0809  -28.7478  -43.3543 C.3       4 UNK         0.0283 
     31 CB         22.7924  -30.2553  -43.3750 C.3       4 UNK        -0.1875 
     32 C          23.9196  -28.3777  -42.1155 C.2       4 UNK         0.4949 
     33 O          25.1241  -28.6352  -42.1123 O.2       4 UNK        -0.5039 
     34 N          23.2754  -27.7951  -41.0921 N.am      5 UNK        -0.4663 
     35 CA         23.8511  -27.3089  -39.8341 C.3       5 UNK         0.0242 
     36 CB         24.6343  -26.0003  -40.0872 C.3       5 UNK        -0.1982 
     37 C          24.6554  -28.3997  -39.0996 C.2       5 UNK         0.5017 
     38 O          24.0746  -29.4171  -38.7170 O.2       5 UNK        -0.5012 
     39 N          25.9690  -28.1861  -38.9383 N.am      6 UNK        -0.4439 
     40 CA         26.9143  -29.0697  -38.2475 C.3       6 UNK         0.0297 
     41 CB         28.2887  -28.3831  -38.1884 C.3       6 UNK        -0.2006 
     42 C          27.0477  -30.4835  -38.8456 C.2       6 UNK         0.4892 
     43 O          27.4860  -31.3870  -38.1326 O.2       6 UNK        -0.5089 
     44 N          26.6599  -30.6663  -40.1171 N.am      7 UNK        -0.4243 
     45 CA         26.6049  -31.9745  -40.7770 C.3       7 UNK         0.0196 
     46 CB         26.6455  -31.7792  -42.3008 C.3       7 UNK        -0.2007 
     47 C          25.3933  -32.8296  -40.3516 C.2       7 UNK         0.5020 
     48 O          25.3460  -34.0053  -40.7150 O.2       7 UNK        -0.5147 
     49 N          24.4388  -32.2460  -39.6053 N.am      8 UNK        -0.4734 
     50 CA         23.2762  -32.8964  -38.9782 C.3       8 UNK         0.0238 
     51 CB         23.7384  -33.8013  -37.8164 C.3       8 UNK        -0.1912 
     52 C          22.3533  -33.6321  -39.9712 C.2       8 UNK         0.5038 
     53 O          21.7868  -34.6734  -39.6337 O.2       8 UNK        -0.5046 
     54 N          22.2390  -33.0720  -41.1816 N.am      9 UNK        -0.4200 
     55 CA         21.4958  -33.6090  -42.3347 C.3       9 UNK         0.0839 
     56 C          22.1304  -34.8833  -42.9717 C.2       9 UNK         0.5513 
     57 N          23.3637  -35.2532  -42.6440 N.am      9 UNK        -0.7519 
     58 O          21.5067  -35.5333  -43.8068 O.2       9 UNK        -0.4960 
     59 C59        19.9653  -33.7649  -42.0855 C.3       10 UNK        -0.0876 
     60 S60        19.1725  -32.2901  -41.3547 S.3       10 UNK        -0.2414 
     61 C61        18.8060  -31.2971  -42.8351 C.3       10 UNK         0.0169 
     62 H62        14.3959  -22.2009  -45.4923 H         1 UNK         0.0903 
     63 H63        14.8565  -21.5244  -47.0559 H         1 UNK         0.0903 
     64 H64        13.2304  -22.1693  -46.8165 H         1 UNK         0.0903 
     65 H65        15.2211  -24.2607  -45.1588 H         1 UNK         0.3096 
     66 H66        14.9504  -26.3841  -47.0424 H         1 UNK         0.1121 
     67 H67        16.1735  -27.7424  -45.3809 H         1 UNK         0.0849 
     68 H68        16.7027  -26.3207  -44.5199 H         1 UNK         0.0849 
     69 H69        13.9098  -28.5478  -42.4623 H         1 UNK         0.0865 
     70 H70        14.4050  -29.2079  -44.0000 H         1 UNK         0.0865 
     71 H71        16.3176  -30.5479  -43.6693 H         1 UNK         0.1346 
     72 H72        19.5777  -29.2460  -41.2116 H         1 UNK         0.1412 
     73 H73        16.0639  -26.8139  -41.5780 H         1 UNK         0.1426 
     74 H74        18.5602  -27.3079  -39.3681 H         1 UNK         0.0716 
     75 H75        17.8683  -25.9926  -40.2853 H         1 UNK         0.0716 
     76 H76        20.4603  -24.5311  -42.3970 H         1 UNK         0.0695 
     77 H77        18.8228  -25.1203  -42.4326 H         1 UNK         0.0695 
     78 H78        19.5162  -27.1107  -43.7428 H         1 UNK         0.0983 
     79 H79        19.4139  -24.5512  -44.7117 H         1 UNK         0.3095 
     80 H80        19.6431  -23.8377  -46.9464 H         1 UNK         0.0454 
     81 H81        19.4822  -26.1286  -48.9838 H         1 UNK         0.0851 
     82 H82        20.7874  -24.9748  -48.7964 H         1 UNK         0.0851 
     83 H83        19.2118  -24.4254  -49.3453 H         1 UNK         0.0851 
     84 H84        17.4707  -24.0926  -46.4868 H         1 UNK         0.2976 
     85 H85        20.9787  -28.5884  -43.2206 H         1 UNK         0.3116 
     86 H86        23.6693  -28.4943  -44.2387 H         1 UNK         0.0646 
     87 H87        22.2434  -30.5420  -44.2723 H         1 UNK         0.0847 
     88 H88        22.2031  -30.5543  -42.5083 H         1 UNK         0.0847 
     89 H89        23.7129  -30.8366  -43.3689 H         1 UNK         0.0847 
     90 H90        22.2808  -27.6440  -41.1941 H         1 UNK         0.3040 
     91 H91        23.0106  -27.0684  -39.1808 H         1 UNK         0.1015 
     92 H92        25.4738  -26.1444  -40.7686 H         1 UNK         0.0786 
     93 H93        25.0207  -25.5805  -39.1573 H         1 UNK         0.0786 
     94 H94        23.9859  -25.2429  -40.5287 H         1 UNK         0.0786 
     95 H95        26.3511  -27.3341  -39.3231 H         1 UNK         0.3172 
     96 H96        26.5512  -29.1913  -37.2249 H         1 UNK         0.0595 
     97 H97        28.6941  -28.2048  -39.1852 H         1 UNK         0.0839 
     98 H98        29.0106  -28.9987  -37.6496 H         1 UNK         0.0839 
     99 H99        28.2347  -27.4258  -37.6695 H         1 UNK         0.0839 
    100 H100       26.3025  -29.8744  -40.6397 H         1 UNK         0.2998 
    101 H101       27.4963  -32.5392  -40.4951 H         1 UNK         0.0822 
    102 H102       27.5663  -31.2844  -42.6098 H         1 UNK         0.0787 
    103 H103       26.6023  -32.7358  -42.8234 H         1 UNK         0.0787 
    104 H104       25.8120  -31.1758  -42.6528 H         1 UNK         0.0787 
    105 H105       24.5444  -31.2604  -39.3798 H         1 UNK         0.3055 
    106 H106       22.6723  -32.0941  -38.5503 H         1 UNK         0.1106 
    107 H107       24.3067  -34.6598  -38.1758 H         1 UNK         0.0828 
    108 H108       22.8866  -34.1865  -37.2545 H         1 UNK         0.0828 
    109 H109       24.3665  -33.2539  -37.1135 H         1 UNK         0.0828 
    110 H110       22.7763  -32.2372  -41.3547 H         1 UNK         0.2931 
    111 H111       21.6031  -32.8516  -43.1102 H         1 UNK         0.0412 
    112 H112       23.9030  -34.7426  -41.9533 H         1 UNK         0.3472 
    113 H113       23.7592  -36.0729  -43.0765 H         1 UNK         0.3472 
    114 H114       19.4499  -34.0109  -43.0157 H         1 UNK         0.0970 
    115 H115       19.7792  -34.6066  -41.4167 H         1 UNK         0.0970 
    116 H116       19.7389  -31.0258  -43.3301 H         1 UNK         0.0612 
    117 H117       18.2423  -31.9074  -43.5423 H         1 UNK         0.0612 
@<TRIPOS>BOND
     1    1    2 1    
     2    1   62 1    
     3    1   63 1    
     4    1   64 1    
     5    2    3 2    
     6    2    4 am   BACKBONE|DICT|INTERRES
     7    4    5 1    
     8    4   65 1    
     9    5    6 1    
    10    5   25 1    
    11    5   66 1    
    12    6    7 1    
    13    6   67 1    
    14    6   68 1    
    15    7    8 1    
    16    8    9 1    
    17    8   69 1    
    18    8   70 1    
    19    9   10 ar   
    20    9   14 ar   
    21   10   11 ar   
    22   10   71 1    
    23   11   12 ar   
    24   11   61 1    
    25   12   13 ar   
    26   12   72 1    
    27   13   14 ar   
    28   13   15 1    
    29   14   73 1    
    30   15   16 1    
    31   15   74 1    
    32   15   75 1    
    33   16   17 1    
    34   17   18 1    
    35   17   76 1    
    36   17   77 1    
    37   18   19 1    
    38   18   27 1    
    39   18   78 1    
    40   19   20 am   BACKBONE|DICT|INTERRES
    41   19   79 1    
    42   20   21 2    
    43   20   22 1    
    44   22   23 1    
    45   22   24 1    
    46   22   80 1    
    47   23   81 1    
    48   23   82 1    
    49   23   83 1    
    50   24   25 am   BACKBONE|DICT|INTERRES
    51   24   84 1    
    52   25   26 2    
    53   27   28 2    
    54   27   29 am   BACKBONE|DICT|INTERRES
    55   29   30 1    
    56   29   85 1    
    57   30   31 1    
    58   30   32 1    
    59   30   86 1    
    60   31   87 1    
    61   31   88 1    
    62   31   89 1    
    63   32   33 2    
    64   32   34 am   BACKBONE|DICT|INTERRES
    65   34   35 1    
    66   34   90 1    
    67   35   36 1    
    68   35   37 1    
    69   35   91 1    
    70   36   92 1    
    71   36   93 1    
    72   36   94 1    
    73   37   38 2    
    74   37   39 am   BACKBONE|DICT|INTERRES
    75   39   40 1    
    76   39   95 1    
    77   40   41 1    
    78   40   42 1    
    79   40   96 1    
    80   41   97 1    
    81   41   98 1    
    82   41   99 1    
    83   42   43 2    
    84   42   44 am   BACKBONE|DICT|INTERRES
    85   44   45 1    
    86   44  100 1    
    87   45   46 1    
    88   45   47 1    
    89   45  101 1    
    90   46  102 1    
    91   46  103 1    
    92   46  104 1    
    93   47   48 2    
    94   47   49 am   BACKBONE|DICT|INTERRES
    95   49   50 1    
    96   49  105 1    
    97   50   51 1    
    98   50   52 1    
    99   50  106 1    
   100   51  107 1    
   101   51  108 1    
   102   51  109 1    
   103   52   53 2    
   104   52   54 am   BACKBONE|DICT|INTERRES
   105   54   55 1    
   106   54  110 1    
   107   55   56 1    
   108   55   59 1    
   109   55  111 1    
   110   56   57 am   BACKBONE|DICT|INTERRES
   111   56   58 2    
   112   57  112 1    
   113   57  113 1    
   114   59   60 1    
   115   59  114 1    
   116   59  115 1    
   117   60   61 1    
   118   61  116 1    
   119   61  117 1    
@<TRIPOS>SUBSTRUCTURE
     1 UNK         1 GROUP             0       ****    0 ROOT    
