@<TRIPOS>MOLECULE
3R8
117   119    1
SMALL
USER_CHARGES


@<TRIPOS>ATOM
      1 CA         15.2567  -23.2296  -42.7410 C.3       0 UNK        -0.2013 
      2 C          16.0090  -23.9566  -43.8462 C.2       0 UNK         0.4866 
      3 O          16.1070  -23.4424  -44.9614 O.2       0 UNK        -0.5176 
      4 N          16.5325  -25.1527  -43.5491 N.am      1 UNK        -0.4884 
      5 CA         17.3252  -25.9753  -44.4693 C.3       1 UNK         0.0853 
      6 C6         17.5402  -27.4083  -43.9187 C.3       10 UNK        -0.0849 
      7 S7         15.9758  -28.3072  -43.6436 S.3       10 UNK        -0.2776 
      8 C8         16.0513  -29.6162  -44.9106 C.3       10 UNK         0.0316 
      9 C9         17.1153  -30.6580  -44.5908 C.ar      10 UNK        -0.0863 
     10 C10        16.8970  -31.5961  -43.5776 C.ar      10 UNK        -0.1009 
     11 C11        17.8686  -32.5536  -43.2712 C.ar      10 UNK        -0.0712 
     12 C12        19.0681  -32.5634  -43.9923 C.ar      10 UNK        -0.0894 
     13 C13        19.3049  -31.6308  -45.0056 C.ar      10 UNK        -0.0745 
     14 C14        18.3121  -30.6926  -45.3126 C.ar      10 UNK        -0.0972 
     15 C15        20.6303  -31.6777  -45.7644 C.3       10 UNK         0.0209 
     16 S16        21.2995  -30.0414  -46.2138 S.3       10 UNK        -0.2568 
     17 C17        21.4870  -29.2745  -44.5713 C.3       10 UNK        -0.0983 
     18 CA         22.1708  -27.8922  -44.6625 C.3       3 UNK         0.0876 
     19 N          21.3261  -26.9622  -45.4162 N.am      3 UNK        -0.4424 
     20 C          21.6377  -25.7219  -45.8126 C.2       2 UNK         0.4918 
     21 O          22.7524  -25.2156  -45.6886 O.2       2 UNK        -0.4875 
     22 CA         20.4851  -24.8967  -46.4214 C.3       2 UNK         0.0481 
     23 CB         20.5677  -24.9134  -47.9559 C.3       2 UNK        -0.1831 
     24 N          19.1489  -25.3491  -46.0002 N.am      2 UNK        -0.4498 
     25 C          18.6959  -25.3235  -44.7368 C.2       1 UNK         0.5027 
     26 O          19.3514  -24.8902  -43.7860 O.2       1 UNK        -0.4969 
     27 C          22.5437  -27.3634  -43.2579 C.2       3 UNK         0.5005 
     28 O          23.6019  -27.7337  -42.7428 O.2       3 UNK        -0.5279 
     29 N          21.6897  -26.4946  -42.6855 N.am      4 UNK        -0.4463 
     30 CA         21.9051  -25.6365  -41.5114 C.3       4 UNK         0.0283 
     31 CB         22.8554  -24.4840  -41.8979 C.3       4 UNK        -0.1875 
     32 C          22.3641  -26.3489  -40.2229 C.2       4 UNK         0.4949 
     33 O          23.0064  -25.7166  -39.3838 O.2       4 UNK        -0.5039 
     34 N          22.0669  -27.6508  -40.0985 N.am      5 UNK        -0.4663 
     35 CA         22.5465  -28.5796  -39.0641 C.3       5 UNK         0.0242 
     36 CB         22.0624  -28.1666  -37.6587 C.3       5 UNK        -0.1982 
     37 C          24.0640  -28.8562  -39.1100 C.2       5 UNK         0.5017 
     38 O          24.5692  -29.5594  -38.2342 O.2       5 UNK        -0.5012 
     39 N          24.7595  -28.3454  -40.1360 N.am      6 UNK        -0.4439 
     40 CA         26.1547  -28.6548  -40.4396 C.3       6 UNK         0.0297 
     41 CB         26.7799  -27.5105  -41.2541 C.3       6 UNK        -0.2006 
     42 C          26.2293  -29.9855  -41.1969 C.2       6 UNK         0.4892 
     43 O          27.0026  -30.8630  -40.8123 O.2       6 UNK        -0.5089 
     44 N          25.3662  -30.1400  -42.2108 N.am      7 UNK        -0.4243 
     45 CA         25.1168  -31.4045  -42.9007 C.3       7 UNK         0.0196 
     46 CB         24.8616  -31.1382  -44.3952 C.3       7 UNK        -0.2007 
     47 C          23.9730  -32.1539  -42.1944 C.2       7 UNK         0.5020 
     48 O          22.8939  -32.3283  -42.7605 O.2       7 UNK        -0.5147 
     49 N          24.2425  -32.5574  -40.9449 N.am      8 UNK        -0.4734 
     50 CA         23.4257  -33.3535  -40.0164 C.3       8 UNK         0.0238 
     51 CB         23.0964  -34.7383  -40.6087 C.3       8 UNK        -0.1912 
     52 C          22.1497  -32.6771  -39.4833 C.2       8 UNK         0.5038 
     53 O          21.8841  -32.7799  -38.2850 O.2       8 UNK        -0.5046 
     54 N          21.3751  -32.0286  -40.3551 N.am      9 UNK        -0.4200 
     55 CA         20.0440  -31.4795  -40.0604 C.3       9 UNK         0.0839 
     56 C          19.6825  -30.2960  -40.9980 C.2       9 UNK         0.5513 
     57 N          18.4217  -29.8929  -41.0666 N.am      9 UNK        -0.7519 
     58 O          20.5529  -29.6748  -41.6019 O.2       9 UNK        -0.4960 
     59 C59        18.9518  -32.5847  -39.8951 C.3       10 UNK        -0.0876 
     60 S60        19.0150  -33.9458  -41.1152 S.3       10 UNK        -0.2414 
     61 C61        17.5886  -33.5997  -42.1969 C.3       10 UNK         0.0169 
     62 H62        14.2305  -23.0335  -43.0519 H         1 UNK         0.0903 
     63 H63        15.2268  -23.8098  -41.8182 H         1 UNK         0.0903 
     64 H64        15.7363  -22.2744  -42.5256 H         1 UNK         0.0903 
     65 H65        16.4234  -25.5275  -42.6174 H         1 UNK         0.3096 
     66 H66        16.7790  -26.0416  -45.4135 H         1 UNK         0.1121 
     67 H67        18.0797  -27.3766  -42.9696 H         1 UNK         0.0849 
     68 H68        18.1694  -27.9857  -44.5972 H         1 UNK         0.0849 
     69 H69        15.0778  -30.1052  -44.9698 H         1 UNK         0.0865 
     70 H70        16.2237  -29.1668  -45.8900 H         1 UNK         0.0865 
     71 H71        15.9661  -31.5771  -43.0274 H         1 UNK         0.1346 
     72 H72        19.8235  -33.3031  -43.7646 H         1 UNK         0.1412 
     73 H73        18.4766  -29.9794  -46.1080 H         1 UNK         0.1426 
     74 H74        20.4895  -32.2602  -46.6754 H         1 UNK         0.0716 
     75 H75        21.3862  -32.2001  -45.1751 H         1 UNK         0.0716 
     76 H76        22.0360  -29.9567  -43.9217 H         1 UNK         0.0695 
     77 H77        20.4964  -29.1736  -44.1260 H         1 UNK         0.0695 
     78 H78        23.1093  -28.0016  -45.2103 H         1 UNK         0.0983 
     79 H79        20.4013  -27.2995  -45.6314 H         1 UNK         0.3095 
     80 H80        20.6084  -23.8656  -46.0836 H         1 UNK         0.0454 
     81 H81        20.4333  -25.9183  -48.3583 H         1 UNK         0.0851 
     82 H82        21.5394  -24.5540  -48.2979 H         1 UNK         0.0851 
     83 H83        19.8118  -24.2673  -48.4024 H         1 UNK         0.0851 
     84 H84        18.5506  -25.7149  -46.7279 H         1 UNK         0.2976 
     85 H85        20.8471  -26.2683  -43.2009 H         1 UNK         0.3116 
     86 H86        20.9331  -25.1991  -41.2792 H         1 UNK         0.0646 
     87 H87        22.5030  -23.9625  -42.7881 H         1 UNK         0.0847 
     88 H88        23.8637  -24.8472  -42.1004 H         1 UNK         0.0847 
     89 H89        22.9276  -23.7431  -41.1007 H         1 UNK         0.0847 
     90 H90        21.5449  -28.0921  -40.8517 H         1 UNK         0.3040 
     91 H91        22.0834  -29.5372  -39.2922 H         1 UNK         0.1015 
     92 H92        22.5521  -27.2580  -37.3080 H         1 UNK         0.0786 
     93 H93        22.2749  -28.9486  -36.9286 H         1 UNK         0.0786 
     94 H94        20.9858  -27.9970  -37.6443 H         1 UNK         0.0786 
     95 H95        24.2456  -27.8381  -40.8504 H         1 UNK         0.3172 
     96 H96        26.7139  -28.7546  -39.5068 H         1 UNK         0.0595 
     97 H97        26.2684  -27.3556  -42.2049 H         1 UNK         0.0839 
     98 H98        27.8268  -27.7198  -41.4775 H         1 UNK         0.0839 
     99 H99        26.7478  -26.5708  -40.7024 H         1 UNK         0.0839 
    100 H100       24.7435  -29.3691  -42.4348 H         1 UNK         0.2998 
    101 H101       25.9992  -32.0457  -42.8402 H         1 UNK         0.0822 
    102 H102       25.7694  -30.7899  -44.8877 H         1 UNK         0.0787 
    103 H103       24.5424  -32.0452  -44.9105 H         1 UNK         0.0787 
    104 H104       24.0970  -30.3825  -44.5545 H         1 UNK         0.0787 
    105 H105       25.1519  -32.2959  -40.5823 H         1 UNK         0.3055 
    106 H106       24.0626  -33.5200  -39.1456 H         1 UNK         0.1106 
    107 H107       22.4496  -34.6645  -41.4838 H         1 UNK         0.0828 
    108 H108       22.5767  -35.3599  -39.8782 H         1 UNK         0.0828 
    109 H109       24.0006  -35.2711  -40.9026 H         1 UNK         0.0828 
    110 H110       21.6758  -31.9707  -41.3253 H         1 UNK         0.2931 
    111 H111       20.1277  -30.9882  -39.0893 H         1 UNK         0.0412 
    112 H112       18.1893  -29.1280  -41.6769 H         1 UNK         0.3472 
    113 H113       17.6915  -30.3610  -40.5569 H         1 UNK         0.3472 
    114 H114       17.9457  -32.1683  -39.8502 H         1 UNK         0.0970 
    115 H115       19.0917  -33.0528  -38.9197 H         1 UNK         0.0970 
    116 H116       17.3086  -34.5275  -42.6969 H         1 UNK         0.0612 
    117 H117       16.7333  -33.3136  -41.5830 H         1 UNK         0.0612 
@<TRIPOS>BOND
     1    1    2 1    
     2    1   62 1    
     3    1   63 1    
     4    1   64 1    
     5    2    3 2    
     6    2    4 am   BACKBONE|DICT|INTERRES
     7    4    5 1    
     8    4   65 1    
     9    5    6 1    
    10    5   25 1    
    11    5   66 1    
    12    6    7 1    
    13    6   67 1    
    14    6   68 1    
    15    7    8 1    
    16    8    9 1    
    17    8   69 1    
    18    8   70 1    
    19    9   10 ar   
    20    9   14 ar   
    21   10   11 ar   
    22   10   71 1    
    23   11   12 ar   
    24   11   61 1    
    25   12   13 ar   
    26   12   72 1    
    27   13   14 ar   
    28   13   15 1    
    29   14   73 1    
    30   15   16 1    
    31   15   74 1    
    32   15   75 1    
    33   16   17 1    
    34   17   18 1    
    35   17   76 1    
    36   17   77 1    
    37   18   19 1    
    38   18   27 1    
    39   18   78 1    
    40   19   20 am   BACKBONE|DICT|INTERRES
    41   19   79 1    
    42   20   21 2    
    43   20   22 1    
    44   22   23 1    
    45   22   24 1    
    46   22   80 1    
    47   23   81 1    
    48   23   82 1    
    49   23   83 1    
    50   24   25 am   BACKBONE|DICT|INTERRES
    51   24   84 1    
    52   25   26 2    
    53   27   28 2    
    54   27   29 am   BACKBONE|DICT|INTERRES
    55   29   30 1    
    56   29   85 1    
    57   30   31 1    
    58   30   32 1    
    59   30   86 1    
    60   31   87 1    
    61   31   88 1    
    62   31   89 1    
    63   32   33 2    
    64   32   34 am   BACKBONE|DICT|INTERRES
    65   34   35 1    
    66   34   90 1    
    67   35   36 1    
    68   35   37 1    
    69   35   91 1    
    70   36   92 1    
    71   36   93 1    
    72   36   94 1    
    73   37   38 2    
    74   37   39 am   BACKBONE|DICT|INTERRES
    75   39   40 1    
    76   39   95 1    
    77   40   41 1    
    78   40   42 1    
    79   40   96 1    
    80   41   97 1    
    81   41   98 1    
    82   41   99 1    
    83   42   43 2    
    84   42   44 am   BACKBONE|DICT|INTERRES
    85   44   45 1    
    86   44  100 1    
    87   45   46 1    
    88   45   47 1    
    89   45  101 1    
    90   46  102 1    
    91   46  103 1    
    92   46  104 1    
    93   47   48 2    
    94   47   49 am   BACKBONE|DICT|INTERRES
    95   49   50 1    
    96   49  105 1    
    97   50   51 1    
    98   50   52 1    
    99   50  106 1    
   100   51  107 1    
   101   51  108 1    
   102   51  109 1    
   103   52   53 2    
   104   52   54 am   BACKBONE|DICT|INTERRES
   105   54   55 1    
   106   54  110 1    
   107   55   56 1    
   108   55   59 1    
   109   55  111 1    
   110   56   57 am   BACKBONE|DICT|INTERRES
   111   56   58 2    
   112   57  112 1    
   113   57  113 1    
   114   59   60 1    
   115   59  114 1    
   116   59  115 1    
   117   60   61 1    
   118   61  116 1    
   119   61  117 1    
@<TRIPOS>SUBSTRUCTURE
     1 UNK         1 GROUP             0       ****    0 ROOT    
