@<TRIPOS>MOLECULE
3R8
117   119    1
SMALL
USER_CHARGES


@<TRIPOS>ATOM
      1 CA         18.8219  -28.9045  -41.6542 C.3       0 UNK        -0.2013 
      2 C          18.1844  -27.9661  -42.6612 C.2       0 UNK         0.4866 
      3 O          18.8692  -27.4871  -43.5621 O.2       0 UNK        -0.5176 
      4 N          16.8846  -27.6814  -42.5015 N.am      1 UNK        -0.4884 
      5 CA         16.0671  -26.7738  -43.3222 C.3       1 UNK         0.0853 
      6 C6         15.9180  -27.2171  -44.8053 C.3       10 UNK        -0.0849 
      7 S7         15.1658  -28.8729  -44.9583 S.3       10 UNK        -0.2776 
      8 C8         16.1270  -29.6013  -46.3256 C.3       10 UNK         0.0316 
      9 C9         17.5483  -29.9730  -45.9203 C.ar      10 UNK        -0.0863 
     10 C10        17.7752  -31.0683  -45.0816 C.ar      10 UNK        -0.1009 
     11 C11        19.0774  -31.4503  -44.7457 C.ar      10 UNK        -0.0712 
     12 C12        20.1603  -30.7154  -45.2417 C.ar      10 UNK        -0.0894 
     13 C13        19.9501  -29.6280  -46.0977 C.ar      10 UNK        -0.0745 
     14 C14        18.6404  -29.2629  -46.4307 C.ar      10 UNK        -0.0972 
     15 C15        21.1373  -28.9123  -46.7371 C.3       10 UNK         0.0209 
     16 S16        21.1196  -27.1049  -46.4997 S.3       10 UNK        -0.2568 
     17 C17        21.9035  -26.9582  -44.8621 C.3       10 UNK        -0.0983 
     18 CA         21.7542  -25.5368  -44.2647 C.3       3 UNK         0.0876 
     19 N          20.3525  -25.1748  -44.0642 N.am      3 UNK        -0.4424 
     20 C          19.8820  -23.9201  -44.0194 C.2       2 UNK         0.4918 
     21 O          20.6038  -22.9289  -44.1397 O.2       2 UNK        -0.4875 
     22 CA         18.3644  -23.7168  -43.8293 C.3       2 UNK         0.0481 
     23 CB         17.7851  -22.7290  -44.8592 C.3       2 UNK        -0.1831 
     24 N          17.6325  -24.9802  -43.9009 N.am      2 UNK        -0.4498 
     25 C          16.5516  -25.3138  -43.1876 C.2       1 UNK         0.5027 
     26 O          15.9613  -24.5426  -42.4287 O.2       1 UNK        -0.4969 
     27 C          22.5046  -25.4393  -42.9257 C.2       3 UNK         0.5005 
     28 O          22.0441  -26.0028  -41.9300 O.2       3 UNK        -0.5279 
     29 N          23.6520  -24.7468  -42.9266 N.am      4 UNK        -0.4463 
     30 CA         24.5641  -24.6789  -41.7810 C.3       4 UNK         0.0283 
     31 CB         25.4384  -23.4188  -41.8868 C.3       4 UNK        -0.1875 
     32 C          25.4384  -25.9395  -41.6788 C.2       4 UNK         0.4949 
     33 O          25.6766  -26.4283  -40.5743 O.2       4 UNK        -0.5039 
     34 N          25.8913  -26.4492  -42.8325 N.am      5 UNK        -0.4663 
     35 CA         26.6247  -27.7082  -42.9466 C.3       5 UNK         0.0242 
     36 CB         27.4303  -27.7113  -44.2562 C.3       5 UNK        -0.1982 
     37 C          25.6388  -28.8839  -42.9122 C.2       5 UNK         0.5017 
     38 O          24.6424  -28.8504  -43.6369 O.2       5 UNK        -0.5012 
     39 N          25.9407  -29.8931  -42.0819 N.am      6 UNK        -0.4439 
     40 CA         25.1409  -31.1044  -41.8462 C.3       6 UNK         0.0297 
     41 CB         25.1366  -32.0112  -43.0963 C.3       6 UNK        -0.2006 
     42 C          23.7189  -30.8067  -41.3249 C.2       6 UNK         0.4892 
     43 O          22.7772  -31.5177  -41.6764 O.2       6 UNK        -0.5089 
     44 N          23.5948  -29.7737  -40.4766 N.am      7 UNK        -0.4243 
     45 CA         22.3329  -29.2589  -39.9283 C.3       7 UNK         0.0196 
     46 CB         22.6261  -28.0001  -39.0963 C.3       7 UNK        -0.2007 
     47 C          21.5223  -30.2694  -39.0939 C.2       7 UNK         0.5020 
     48 O          20.3107  -30.1042  -38.9569 O.2       7 UNK        -0.5147 
     49 N          22.1928  -31.2940  -38.5509 N.am      8 UNK        -0.4734 
     50 CA         21.5626  -32.4106  -37.8423 C.3       8 UNK         0.0238 
     51 CB         22.6182  -33.1031  -36.9641 C.3       8 UNK        -0.1912 
     52 C          20.8926  -33.4319  -38.7826 C.2       8 UNK         0.5038 
     53 O          20.0657  -34.2132  -38.3103 O.2       8 UNK        -0.5046 
     54 N          21.2687  -33.4285  -40.0710 N.am      9 UNK        -0.4200 
     55 CA         20.8017  -34.3471  -41.1244 C.3       9 UNK         0.0839 
     56 C          21.1544  -35.8487  -40.8889 C.2       9 UNK         0.5513 
     57 N          22.1519  -36.1700  -40.0733 N.am      9 UNK        -0.7519 
     58 O          20.5427  -36.7380  -41.4758 O.2       9 UNK        -0.4960 
     59 C59        19.3109  -34.1203  -41.5082 C.3       10 UNK        -0.0876 
     60 S60        19.0022  -32.4369  -42.1431 S.3       10 UNK        -0.2414 
     61 C61        19.3111  -32.7042  -43.9146 C.3       10 UNK         0.0169 
     62 H62        19.5976  -29.5004  -42.1390 H         1 UNK         0.0903 
     63 H63        19.2847  -28.3301  -40.8499 H         1 UNK         0.0903 
     64 H64        18.0917  -29.5890  -41.2181 H         1 UNK         0.0903 
     65 H65        16.3921  -28.1008  -41.7248 H         1 UNK         0.3096 
     66 H66        15.0685  -26.7965  -42.8819 H         1 UNK         0.1121 
     67 H67        15.2855  -26.5140  -45.3506 H         1 UNK         0.0849 
     68 H68        16.8823  -27.2132  -45.3145 H         1 UNK         0.0849 
     69 H69        15.6134  -30.4992  -46.6722 H         1 UNK         0.0865 
     70 H70        16.1294  -28.9121  -47.1717 H         1 UNK         0.0865 
     71 H71        16.9360  -31.6367  -44.7042 H         1 UNK         0.1346 
     72 H72        21.1688  -31.0174  -44.9935 H         1 UNK         0.1412 
     73 H73        18.4761  -28.4320  -47.1029 H         1 UNK         0.1426 
     74 H74        22.0829  -29.3120  -46.3669 H         1 UNK         0.0716 
     75 H75        21.1204  -29.1168  -47.8083 H         1 UNK         0.0716 
     76 H76        22.9582  -27.2146  -44.9765 H         1 UNK         0.0695 
     77 H77        21.4753  -27.7093  -44.1947 H         1 UNK         0.0695 
     78 H78        22.1962  -24.8284  -44.9690 H         1 UNK         0.0983 
     79 H79        19.7430  -25.9673  -43.8681 H         1 UNK         0.3095 
     80 H80        18.2401  -23.2902  -42.8320 H         1 UNK         0.0454 
     81 H81        16.7242  -22.5500  -44.6845 H         1 UNK         0.0851 
     82 H82        17.8997  -23.1004  -45.8781 H         1 UNK         0.0851 
     83 H83        18.2864  -21.7618  -44.8046 H         1 UNK         0.0851 
     84 H84        18.0729  -25.7223  -44.4324 H         1 UNK         0.2976 
     85 H85        23.9457  -24.2819  -43.7741 H         1 UNK         0.3116 
     86 H86        23.9765  -24.6033  -40.8630 H         1 UNK         0.0646 
     87 H87        24.8301  -22.5141  -41.8999 H         1 UNK         0.0847 
     88 H88        26.1124  -23.3412  -41.0324 H         1 UNK         0.0847 
     89 H89        26.0544  -23.4228  -42.7869 H         1 UNK         0.0847 
     90 H90        25.6100  -26.0133  -43.6976 H         1 UNK         0.3040 
     91 H91        27.3241  -27.7902  -42.1110 H         1 UNK         0.1015 
     92 H92        26.7830  -27.6311  -45.1308 H         1 UNK         0.0786 
     93 H93        28.0029  -28.6342  -44.3589 H         1 UNK         0.0786 
     94 H94        28.1406  -26.8847  -44.2870 H         1 UNK         0.0786 
     95 H95        26.7865  -29.8194  -41.5323 H         1 UNK         0.3172 
     96 H96        25.6442  -31.6514  -41.0478 H         1 UNK         0.0595 
     97 H97        24.5895  -31.5573  -43.9234 H         1 UNK         0.0839 
     98 H98        24.6622  -32.9700  -42.8830 H         1 UNK         0.0839 
     99 H99        26.1496  -32.2220  -43.4389 H         1 UNK         0.0839 
    100 H100       24.4261  -29.2464  -40.2504 H         1 UNK         0.2998 
    101 H101       21.7121  -28.9691  -40.7784 H         1 UNK         0.0822 
    102 H102       23.1123  -27.2318  -39.6977 H         1 UNK         0.0787 
    103 H103       21.7040  -27.5651  -38.7081 H         1 UNK         0.0787 
    104 H104       23.2705  -28.2190  -38.2440 H         1 UNK         0.0787 
    105 H105       23.1909  -31.3423  -38.6948 H         1 UNK         0.3055 
    106 H106       20.7813  -32.0137  -37.1897 H         1 UNK         0.1106 
    107 H107       23.0468  -32.4111  -36.2388 H         1 UNK         0.0828 
    108 H108       22.1777  -33.9267  -36.4001 H         1 UNK         0.0828 
    109 H109       23.4340  -33.5157  -37.5588 H         1 UNK         0.0828 
    110 H110       21.9125  -32.7130  -40.3935 H         1 UNK         0.2931 
    111 H111       21.3941  -34.0819  -42.0007 H         1 UNK         0.0412 
    112 H112       22.6734  -35.4526  -39.5963 H         1 UNK         0.3472 
    113 H113       22.3821  -37.1414  -39.9333 H         1 UNK         0.3472 
    114 H114       18.9867  -34.8354  -42.2662 H         1 UNK         0.0970 
    115 H115       18.6647  -34.2920  -40.6463 H         1 UNK         0.0970 
    116 H116       20.3340  -33.0603  -44.0463 H         1 UNK         0.0612 
    117 H117       18.6591  -33.5000  -44.2779 H         1 UNK         0.0612 
@<TRIPOS>BOND
     1    1    2 1    
     2    1   62 1    
     3    1   63 1    
     4    1   64 1    
     5    2    3 2    
     6    2    4 am   BACKBONE|DICT|INTERRES
     7    4    5 1    
     8    4   65 1    
     9    5    6 1    
    10    5   25 1    
    11    5   66 1    
    12    6    7 1    
    13    6   67 1    
    14    6   68 1    
    15    7    8 1    
    16    8    9 1    
    17    8   69 1    
    18    8   70 1    
    19    9   10 ar   
    20    9   14 ar   
    21   10   11 ar   
    22   10   71 1    
    23   11   12 ar   
    24   11   61 1    
    25   12   13 ar   
    26   12   72 1    
    27   13   14 ar   
    28   13   15 1    
    29   14   73 1    
    30   15   16 1    
    31   15   74 1    
    32   15   75 1    
    33   16   17 1    
    34   17   18 1    
    35   17   76 1    
    36   17   77 1    
    37   18   19 1    
    38   18   27 1    
    39   18   78 1    
    40   19   20 am   BACKBONE|DICT|INTERRES
    41   19   79 1    
    42   20   21 2    
    43   20   22 1    
    44   22   23 1    
    45   22   24 1    
    46   22   80 1    
    47   23   81 1    
    48   23   82 1    
    49   23   83 1    
    50   24   25 am   BACKBONE|DICT|INTERRES
    51   24   84 1    
    52   25   26 2    
    53   27   28 2    
    54   27   29 am   BACKBONE|DICT|INTERRES
    55   29   30 1    
    56   29   85 1    
    57   30   31 1    
    58   30   32 1    
    59   30   86 1    
    60   31   87 1    
    61   31   88 1    
    62   31   89 1    
    63   32   33 2    
    64   32   34 am   BACKBONE|DICT|INTERRES
    65   34   35 1    
    66   34   90 1    
    67   35   36 1    
    68   35   37 1    
    69   35   91 1    
    70   36   92 1    
    71   36   93 1    
    72   36   94 1    
    73   37   38 2    
    74   37   39 am   BACKBONE|DICT|INTERRES
    75   39   40 1    
    76   39   95 1    
    77   40   41 1    
    78   40   42 1    
    79   40   96 1    
    80   41   97 1    
    81   41   98 1    
    82   41   99 1    
    83   42   43 2    
    84   42   44 am   BACKBONE|DICT|INTERRES
    85   44   45 1    
    86   44  100 1    
    87   45   46 1    
    88   45   47 1    
    89   45  101 1    
    90   46  102 1    
    91   46  103 1    
    92   46  104 1    
    93   47   48 2    
    94   47   49 am   BACKBONE|DICT|INTERRES
    95   49   50 1    
    96   49  105 1    
    97   50   51 1    
    98   50   52 1    
    99   50  106 1    
   100   51  107 1    
   101   51  108 1    
   102   51  109 1    
   103   52   53 2    
   104   52   54 am   BACKBONE|DICT|INTERRES
   105   54   55 1    
   106   54  110 1    
   107   55   56 1    
   108   55   59 1    
   109   55  111 1    
   110   56   57 am   BACKBONE|DICT|INTERRES
   111   56   58 2    
   112   57  112 1    
   113   57  113 1    
   114   59   60 1    
   115   59  114 1    
   116   59  115 1    
   117   60   61 1    
   118   61  116 1    
   119   61  117 1    
@<TRIPOS>SUBSTRUCTURE
     1 UNK         1 GROUP             0       ****    0 ROOT    
