@<TRIPOS>MOLECULE
3R8
117   119    1
SMALL
USER_CHARGES


@<TRIPOS>ATOM
      1 CA         24.1544  -29.7777  -46.8101 C.3       0 UNK        -0.2013 
      2 C          22.7755  -29.4555  -46.2551 C.2       0 UNK         0.4866 
      3 O          22.6026  -29.3810  -45.0362 O.2       0 UNK        -0.5176 
      4 N          21.7854  -29.2797  -47.1394 N.am      1 UNK        -0.4884 
      5 CA         20.4125  -28.8910  -46.8043 C.3       1 UNK         0.0853 
      6 C6         19.4178  -29.3832  -47.8867 C.3       10 UNK        -0.0849 
      7 S7         17.6562  -29.0577  -47.5208 S.3       10 UNK        -0.2776 
      8 C8         17.2195  -30.4016  -46.3713 C.3       10 UNK         0.0316 
      9 C9         17.3995  -29.9944  -44.9138 C.ar      10 UNK        -0.0863 
     10 C10        18.3322  -30.6474  -44.1030 C.ar      10 UNK        -0.1009 
     11 C11        18.4487  -30.3185  -42.7489 C.ar      10 UNK        -0.0712 
     12 C12        17.6391  -29.3124  -42.2093 C.ar      10 UNK        -0.0894 
     13 C13        16.7061  -28.6461  -43.0101 C.ar      10 UNK        -0.0745 
     14 C14        16.5896  -28.9971  -44.3593 C.ar      10 UNK        -0.0972 
     15 C15        15.7799  -27.5905  -42.4152 C.3       10 UNK         0.0209 
     16 S16        16.1254  -25.9224  -43.0643 S.3       10 UNK        -0.2568 
     17 C17        17.0893  -25.1471  -41.7187 C.3       10 UNK        -0.0983 
     18 CA         18.5843  -25.5470  -41.7136 C.3       3 UNK         0.0876 
     19 N          19.2069  -25.3924  -43.0305 N.am      3 UNK        -0.4424 
     20 C          20.4127  -25.8687  -43.3507 C.2       2 UNK         0.4918 
     21 O          21.1340  -26.4973  -42.5734 O.2       2 UNK        -0.4875 
     22 CA         20.8712  -25.6624  -44.7921 C.3       2 UNK         0.0481 
     23 CB         22.2658  -25.0180  -44.8578 C.3       2 UNK        -0.1831 
     24 N          20.9185  -26.9919  -45.3749 N.am      2 UNK        -0.4498 
     25 C          20.3648  -27.3729  -46.5275 C.2       1 UNK         0.5027 
     26 O          19.8821  -26.5922  -47.3506 O.2       1 UNK        -0.4969 
     27 C          19.3732  -24.7687  -40.6379 C.2       3 UNK         0.5005 
     28 O          20.0205  -23.7672  -40.9563 O.2       3 UNK        -0.5279 
     29 N          19.3434  -25.2667  -39.3940 N.am      4 UNK        -0.4463 
     30 CA         20.1113  -24.8238  -38.2171 C.3       4 UNK         0.0283 
     31 CB         19.8738  -23.3381  -37.8803 C.3       4 UNK        -0.1875 
     32 C          21.6157  -25.1540  -38.2892 C.2       4 UNK         0.4949 
     33 O          22.1789  -25.5633  -37.2741 O.2       4 UNK        -0.5039 
     34 N          22.2332  -25.0202  -39.4724 N.am      5 UNK        -0.4663 
     35 CA         23.5754  -25.5332  -39.7736 C.3       5 UNK         0.0242 
     36 CB         24.0746  -24.9483  -41.1049 C.3       5 UNK        -0.1982 
     37 C          23.5823  -27.0718  -39.7984 C.2       5 UNK         0.5017 
     38 O          24.4337  -27.6882  -39.1578 O.2       5 UNK        -0.5012 
     39 N          22.5813  -27.6428  -40.4853 N.am      6 UNK        -0.4439 
     40 CA         22.1511  -29.0419  -40.4601 C.3       6 UNK         0.0297 
     41 CB         21.5893  -29.3919  -39.0650 C.3       6 UNK        -0.2006 
     42 C          23.2030  -30.0523  -40.9540 C.2       6 UNK         0.4892 
     43 O          23.2377  -31.1827  -40.4642 O.2       6 UNK        -0.5089 
     44 N          24.0264  -29.6429  -41.9286 N.am      7 UNK        -0.4243 
     45 CA         25.1569  -30.4154  -42.4549 C.3       7 UNK         0.0196 
     46 CB         25.9473  -29.5510  -43.4492 C.3       7 UNK        -0.2007 
     47 C          24.7760  -31.7726  -43.0753 C.2       7 UNK         0.5020 
     48 O          25.5187  -32.7387  -42.9005 O.2       7 UNK        -0.5147 
     49 N          23.6278  -31.8372  -43.7640 N.am      8 UNK        -0.4734 
     50 CA         23.0832  -33.0812  -44.3243 C.3       8 UNK         0.0238 
     51 CB         22.0502  -32.7565  -45.4170 C.3       8 UNK        -0.1912 
     52 C          22.4548  -34.0100  -43.2709 C.2       8 UNK         0.5038 
     53 O          22.3775  -35.2157  -43.5121 O.2       8 UNK        -0.5046 
     54 N          21.9951  -33.4411  -42.1509 N.am      9 UNK        -0.4200 
     55 CA         21.3263  -34.1684  -41.0634 C.3       9 UNK         0.0839 
     56 C          22.3309  -34.7105  -40.0133 C.2       9 UNK         0.5513 
     57 N          23.3959  -33.9839  -39.6977 N.am      9 UNK        -0.7519 
     58 O          22.1430  -35.8027  -39.4842 O.2       9 UNK        -0.4960 
     59 C59        20.2304  -33.3108  -40.3820 C.3       10 UNK        -0.0876 
     60 S60        18.9223  -32.7670  -41.5358 S.3       10 UNK        -0.2414 
     61 C61        19.4447  -31.0569  -41.8688 C.3       10 UNK         0.0169 
     62 H62        24.1211  -30.0027  -47.8758 H         1 UNK         0.0903 
     63 H63        24.8241  -28.9312  -46.6624 H         1 UNK         0.0903 
     64 H64        24.5764  -30.6418  -46.2979 H         1 UNK         0.0903 
     65 H65        21.9933  -29.3320  -48.1270 H         1 UNK         0.3096 
     66 H66        20.1378  -29.3895  -45.8727 H         1 UNK         0.1121 
     67 H67        19.6485  -28.9173  -48.8465 H         1 UNK         0.0849 
     68 H68        19.5430  -30.4557  -48.0439 H         1 UNK         0.0849 
     69 H69        16.1729  -30.6657  -46.5299 H         1 UNK         0.0865 
     70 H70        17.7935  -31.2991  -46.6069 H         1 UNK         0.0865 
     71 H71        18.9505  -31.4333  -44.5144 H         1 UNK         0.1346 
     72 H72        17.7216  -29.0626  -41.1606 H         1 UNK         0.1412 
     73 H73        15.8581  -28.4964  -44.9796 H         1 UNK         0.1426 
     74 H74        15.8328  -27.5898  -41.3256 H         1 UNK         0.0716 
     75 H75        14.7502  -27.8505  -42.6647 H         1 UNK         0.0716 
     76 H76        16.6206  -25.3891  -40.7630 H         1 UNK         0.0695 
     77 H77        16.9905  -24.0658  -41.8347 H         1 UNK         0.0695 
     78 H78        18.6463  -26.6079  -41.4625 H         1 UNK         0.0983 
     79 H79        18.6644  -24.8981  -43.7230 H         1 UNK         0.3095 
     80 H80        20.1548  -25.0265  -45.3166 H         1 UNK         0.0454 
     81 H81        23.0232  -25.6379  -44.3763 H         1 UNK         0.0851 
     82 H82        22.2709  -24.0472  -44.3608 H         1 UNK         0.0851 
     83 H83        22.5760  -24.8578  -45.8903 H         1 UNK         0.0851 
     84 H84        21.3442  -27.7070  -44.7925 H         1 UNK         0.2976 
     85 H85        18.7902  -26.0985  -39.2375 H         1 UNK         0.3116 
     86 H86        19.7114  -25.4051  -37.3844 H         1 UNK         0.0646 
     87 H87        18.8103  -23.1127  -37.8024 H         1 UNK         0.0847 
     88 H88        20.3058  -22.6708  -38.6263 H         1 UNK         0.0847 
     89 H89        20.3300  -23.0830  -36.9231 H         1 UNK         0.0847 
     90 H90        21.6924  -24.6341  -40.2399 H         1 UNK         0.3040 
     91 H91        24.2534  -25.2091  -38.9807 H         1 UNK         0.1015 
     92 H92        25.0693  -25.3248  -41.3474 H         1 UNK         0.0786 
     93 H93        24.1427  -23.8614  -41.0571 H         1 UNK         0.0786 
     94 H94        23.4172  -25.2040  -41.9354 H         1 UNK         0.0786 
     95 H95        22.0088  -27.0403  -41.0755 H         1 UNK         0.3172 
     96 H96        21.3322  -29.0921  -41.1760 H         1 UNK         0.0595 
     97 H97        21.1449  -30.3853  -39.0471 H         1 UNK         0.0839 
     98 H98        20.8142  -28.6881  -38.7618 H         1 UNK         0.0839 
     99 H99        22.3699  -29.3772  -38.3036 H         1 UNK         0.0839 
    100 H100       23.8969  -28.7129  -42.3000 H         1 UNK         0.2998 
    101 H101       25.8127  -30.6325  -41.6089 H         1 UNK         0.0822 
    102 H102       26.3875  -28.6849  -42.9548 H         1 UNK         0.0787 
    103 H103       26.7647  -30.1153  -43.9004 H         1 UNK         0.0787 
    104 H104       25.3140  -29.1858  -44.2564 H         1 UNK         0.0787 
    105 H105       23.1108  -30.9782  -43.9307 H         1 UNK         0.3055 
    106 H106       23.8996  -33.6394  -44.7888 H         1 UNK         0.1106 
    107 H107       22.5271  -32.3198  -46.2930 H         1 UNK         0.0828 
    108 H108       21.5388  -33.6578  -45.7584 H         1 UNK         0.0828 
    109 H109       21.2868  -32.0642  -45.0612 H         1 UNK         0.0828 
    110 H110       22.1899  -32.4644  -41.9848 H         1 UNK         0.2931 
    111 H111       20.8211  -35.0375  -41.4906 H         1 UNK         0.0412 
    112 H112       23.5035  -33.0454  -40.0718 H         1 UNK         0.3472 
    113 H113       24.0540  -34.3348  -39.0205 H         1 UNK         0.3472 
    114 H114       20.6741  -32.4463  -39.8888 H         1 UNK         0.0970 
    115 H115       19.7442  -33.8857  -39.5914 H         1 UNK         0.0970 
    116 H116       20.4228  -31.0589  -42.3509 H         1 UNK         0.0612 
    117 H117       19.5549  -30.5400  -40.9158 H         1 UNK         0.0612 
@<TRIPOS>BOND
     1    1    2 1    
     2    1   62 1    
     3    1   63 1    
     4    1   64 1    
     5    2    3 2    
     6    2    4 am   BACKBONE|DICT|INTERRES
     7    4    5 1    
     8    4   65 1    
     9    5    6 1    
    10    5   25 1    
    11    5   66 1    
    12    6    7 1    
    13    6   67 1    
    14    6   68 1    
    15    7    8 1    
    16    8    9 1    
    17    8   69 1    
    18    8   70 1    
    19    9   10 ar   
    20    9   14 ar   
    21   10   11 ar   
    22   10   71 1    
    23   11   12 ar   
    24   11   61 1    
    25   12   13 ar   
    26   12   72 1    
    27   13   14 ar   
    28   13   15 1    
    29   14   73 1    
    30   15   16 1    
    31   15   74 1    
    32   15   75 1    
    33   16   17 1    
    34   17   18 1    
    35   17   76 1    
    36   17   77 1    
    37   18   19 1    
    38   18   27 1    
    39   18   78 1    
    40   19   20 am   BACKBONE|DICT|INTERRES
    41   19   79 1    
    42   20   21 2    
    43   20   22 1    
    44   22   23 1    
    45   22   24 1    
    46   22   80 1    
    47   23   81 1    
    48   23   82 1    
    49   23   83 1    
    50   24   25 am   BACKBONE|DICT|INTERRES
    51   24   84 1    
    52   25   26 2    
    53   27   28 2    
    54   27   29 am   BACKBONE|DICT|INTERRES
    55   29   30 1    
    56   29   85 1    
    57   30   31 1    
    58   30   32 1    
    59   30   86 1    
    60   31   87 1    
    61   31   88 1    
    62   31   89 1    
    63   32   33 2    
    64   32   34 am   BACKBONE|DICT|INTERRES
    65   34   35 1    
    66   34   90 1    
    67   35   36 1    
    68   35   37 1    
    69   35   91 1    
    70   36   92 1    
    71   36   93 1    
    72   36   94 1    
    73   37   38 2    
    74   37   39 am   BACKBONE|DICT|INTERRES
    75   39   40 1    
    76   39   95 1    
    77   40   41 1    
    78   40   42 1    
    79   40   96 1    
    80   41   97 1    
    81   41   98 1    
    82   41   99 1    
    83   42   43 2    
    84   42   44 am   BACKBONE|DICT|INTERRES
    85   44   45 1    
    86   44  100 1    
    87   45   46 1    
    88   45   47 1    
    89   45  101 1    
    90   46  102 1    
    91   46  103 1    
    92   46  104 1    
    93   47   48 2    
    94   47   49 am   BACKBONE|DICT|INTERRES
    95   49   50 1    
    96   49  105 1    
    97   50   51 1    
    98   50   52 1    
    99   50  106 1    
   100   51  107 1    
   101   51  108 1    
   102   51  109 1    
   103   52   53 2    
   104   52   54 am   BACKBONE|DICT|INTERRES
   105   54   55 1    
   106   54  110 1    
   107   55   56 1    
   108   55   59 1    
   109   55  111 1    
   110   56   57 am   BACKBONE|DICT|INTERRES
   111   56   58 2    
   112   57  112 1    
   113   57  113 1    
   114   59   60 1    
   115   59  114 1    
   116   59  115 1    
   117   60   61 1    
   118   61  116 1    
   119   61  117 1    
@<TRIPOS>SUBSTRUCTURE
     1 UNK         1 GROUP             0       ****    0 ROOT    
