@<TRIPOS>MOLECULE
3R8
117   119    1
SMALL
USER_CHARGES


@<TRIPOS>ATOM
      1 CA         17.5995  -22.5239  -48.4656 C.3       0 UNK        -0.2013 
      2 C          17.9182  -23.9901  -48.2141 C.2       0 UNK         0.4866 
      3 O          18.8024  -24.5446  -48.8670 O.2       0 UNK        -0.5176 
      4 N          17.2036  -24.6231  -47.2732 N.am      1 UNK        -0.4884 
      5 CA         17.3810  -26.0335  -46.8961 C.3       1 UNK         0.0853 
      6 C6         16.1677  -26.5678  -46.0788 C.3       10 UNK        -0.0849 
      7 S7         15.3326  -27.9833  -46.8698 S.3       10 UNK        -0.2776 
      8 C8         16.4275  -29.3891  -46.4501 C.3       10 UNK         0.0316 
      9 C9         16.5661  -29.7374  -44.9648 C.ar      10 UNK        -0.0863 
     10 C10        17.6215  -30.5715  -44.5792 C.ar      10 UNK        -0.1009 
     11 C11        17.7922  -30.9427  -43.2427 C.ar      10 UNK        -0.0712 
     12 C12        16.8980  -30.4746  -42.2794 C.ar      10 UNK        -0.0894 
     13 C13        15.8594  -29.6124  -42.6394 C.ar      10 UNK        -0.0745 
     14 C14        15.6814  -29.2695  -43.9833 C.ar      10 UNK        -0.0972 
     15 C15        14.9549  -29.0189  -41.5693 C.3       10 UNK         0.0209 
     16 S16        15.8934  -28.0295  -40.3564 S.3       10 UNK        -0.2568 
     17 C17        16.7249  -26.7879  -41.4112 C.3       10 UNK        -0.0983 
     18 CA         18.2164  -27.1161  -41.6959 C.3       3 UNK         0.0876 
     19 N          18.7620  -26.2358  -42.7311 N.am      3 UNK        -0.4424 
     20 C          19.9915  -26.2992  -43.2661 C.2       2 UNK         0.4918 
     21 O          20.8622  -27.0956  -42.9097 O.2       2 UNK        -0.4875 
     22 CA         20.2661  -25.3049  -44.4146 C.3       2 UNK         0.0481 
     23 CB         21.6085  -25.5560  -45.1340 C.3       2 UNK        -0.1831 
     24 N          19.1526  -25.2629  -45.3731 N.am      2 UNK        -0.4498 
     25 C          18.6961  -26.2801  -46.1250 C.2       1 UNK         0.5027 
     26 O          19.2407  -27.3812  -46.2025 O.2       1 UNK        -0.4969 
     27 C          19.0822  -27.0876  -40.4192 C.2       3 UNK         0.5005 
     28 O          19.1093  -26.0678  -39.7258 O.2       3 UNK        -0.5279 
     29 N          19.7865  -28.2009  -40.1637 N.am      4 UNK        -0.4463 
     30 CA         20.7009  -28.4399  -39.0416 C.3       4 UNK         0.0283 
     31 CB         19.9235  -28.4957  -37.7094 C.3       4 UNK        -0.1875 
     32 C          21.9009  -27.4708  -38.9920 C.2       4 UNK         0.4949 
     33 O          22.4270  -27.2104  -37.9088 O.2       4 UNK        -0.5039 
     34 N          22.3333  -26.9641  -40.1576 N.am      5 UNK        -0.4663 
     35 CA         23.4880  -26.0651  -40.2885 C.3       5 UNK         0.0242 
     36 CB         23.4580  -25.4035  -41.6742 C.3       5 UNK        -0.1982 
     37 C          24.8412  -26.7653  -40.0613 C.2       5 UNK         0.5017 
     38 O          25.8276  -26.0921  -39.7599 O.2       5 UNK        -0.5012 
     39 N          24.8621  -28.0929  -40.2079 N.am      6 UNK        -0.4439 
     40 CA         25.9901  -28.9816  -39.9650 C.3       6 UNK         0.0297 
     41 CB         26.8758  -29.0545  -41.2230 C.3       6 UNK        -0.2006 
     42 C          25.4272  -30.3608  -39.6051 C.2       6 UNK         0.4892 
     43 O          24.2459  -30.6208  -39.8535 O.2       6 UNK        -0.5089 
     44 N          26.2872  -31.2292  -39.0554 N.am      7 UNK        -0.4243 
     45 CA         25.9655  -32.6292  -38.7528 C.3       7 UNK         0.0196 
     46 CB         27.1049  -33.2566  -37.9339 C.3       7 UNK        -0.2007 
     47 C          25.6868  -33.4571  -40.0196 C.2       7 UNK         0.5020 
     48 O          24.7975  -34.3082  -40.0108 O.2       7 UNK        -0.5147 
     49 N          26.4088  -33.1520  -41.1063 N.am      8 UNK        -0.4734 
     50 CA         26.1921  -33.6952  -42.4493 C.3       8 UNK         0.0238 
     51 CB         27.5299  -33.6813  -43.2133 C.3       8 UNK        -0.1912 
     52 C          25.0791  -32.9185  -43.1819 C.2       8 UNK         0.5038 
     53 O          25.3155  -32.3688  -44.2593 O.2       8 UNK        -0.5046 
     54 N          23.8962  -32.8578  -42.5591 N.am      9 UNK        -0.4200 
     55 CA         22.6886  -32.2025  -43.0752 C.3       9 UNK         0.0839 
     56 C          22.1562  -32.8904  -44.3631 C.2       9 UNK         0.5513 
     57 N          21.7379  -32.1188  -45.3568 N.am      9 UNK        -0.7519 
     58 O          22.0879  -34.1149  -44.4497 O.2       9 UNK        -0.4960 
     59 C59        21.6049  -32.1249  -41.9678 C.3       10 UNK        -0.0876 
     60 S60        20.3659  -30.8239  -42.2795 S.3       10 UNK        -0.2414 
     61 C61        18.9547  -31.8289  -42.8322 C.3       10 UNK         0.0169 
     62 H62        17.2957  -22.3789  -49.5020 H         1 UNK         0.0903 
     63 H63        16.7958  -22.1639  -47.8237 H         1 UNK         0.0903 
     64 H64        18.4815  -21.9113  -48.2805 H         1 UNK         0.0903 
     65 H65        16.4780  -24.1188  -46.7827 H         1 UNK         0.3096 
     66 H66        17.4664  -26.6009  -47.8262 H         1 UNK         0.1121 
     67 H67        16.4339  -26.8374  -45.0549 H         1 UNK         0.0849 
     68 H68        15.4083  -25.7929  -45.9625 H         1 UNK         0.0849 
     69 H69        16.0493  -30.2721  -46.9668 H         1 UNK         0.0865 
     70 H70        17.4140  -29.1950  -46.8727 H         1 UNK         0.0865 
     71 H71        18.3197  -30.9319  -45.3230 H         1 UNK         0.1346 
     72 H72        17.0370  -30.7434  -41.2408 H         1 UNK         0.1412 
     73 H73        14.8605  -28.6210  -44.2538 H         1 UNK         0.1426 
     74 H74        14.4393  -29.8262  -41.0476 H         1 UNK         0.0716 
     75 H75        14.1799  -28.3922  -42.0132 H         1 UNK         0.0716 
     76 H76        16.6316  -25.8124  -40.9303 H         1 UNK         0.0695 
     77 H77        16.1732  -26.7079  -42.3491 H         1 UNK         0.0695 
     78 H78        18.2635  -28.1213  -42.1162 H         1 UNK         0.0983 
     79 H79        18.1382  -25.5199  -43.0704 H         1 UNK         0.3095 
     80 H80        20.3185  -24.3149  -43.9596 H         1 UNK         0.0454 
     81 H81        21.6780  -26.5709  -45.5264 H         1 UNK         0.0851 
     82 H82        22.4476  -25.4157  -44.4540 H         1 UNK         0.0851 
     83 H83        21.7490  -24.8651  -45.9649 H         1 UNK         0.0851 
     84 H84        18.6371  -24.3945  -45.4116 H         1 UNK         0.2976 
     85 H85        19.7374  -28.9548  -40.8388 H         1 UNK         0.3116 
     86 H86        21.1287  -29.4292  -39.2120 H         1 UNK         0.0646 
     87 H87        19.5196  -27.5204  -37.4362 H         1 UNK         0.0847 
     88 H88        20.5681  -28.8206  -36.8918 H         1 UNK         0.0847 
     89 H89        19.0930  -29.1996  -37.7632 H         1 UNK         0.0847 
     90 H90        21.8360  -27.1998  -41.0107 H         1 UNK         0.3040 
     91 H91        23.3975  -25.2817  -39.5327 H         1 UNK         0.1015 
     92 H92        23.5517  -26.1440  -42.4693 H         1 UNK         0.0786 
     93 H93        24.2799  -24.6953  -41.7887 H         1 UNK         0.0786 
     94 H94        22.5311  -24.8518  -41.8314 H         1 UNK         0.0786 
     95 H95        23.9936  -28.5789  -40.3979 H         1 UNK         0.3172 
     96 H96        26.5712  -28.6104  -39.1181 H         1 UNK         0.0595 
     97 H97        27.7430  -29.6952  -41.0607 H         1 UNK         0.0839 
     98 H98        27.2530  -28.0700  -41.5005 H         1 UNK         0.0839 
     99 H99        26.3280  -29.4547  -42.0777 H         1 UNK         0.0839 
    100 H100       27.2339  -30.9288  -38.8703 H         1 UNK         0.2998 
    101 H101       25.0582  -32.6420  -38.1447 H         1 UNK         0.0822 
    102 H102       26.8769  -34.2931  -37.6807 H         1 UNK         0.0787 
    103 H103       28.0478  -33.2552  -38.4823 H         1 UNK         0.0787 
    104 H104       27.2602  -32.7229  -36.9961 H         1 UNK         0.0787 
    105 H105       27.0939  -32.4149  -41.0261 H         1 UNK         0.3055 
    106 H106       25.8630  -34.7342  -42.3719 H         1 UNK         0.1106 
    107 H107       27.4156  -34.1126  -44.2088 H         1 UNK         0.0828 
    108 H108       27.9149  -32.6685  -43.3388 H         1 UNK         0.0828 
    109 H109       28.2889  -34.2672  -42.6947 H         1 UNK         0.0828 
    110 H110       23.8066  -33.3422  -41.6748 H         1 UNK         0.2931 
    111 H111       22.9859  -31.1823  -43.3281 H         1 UNK         0.0412 
    112 H112       21.7705  -31.1141  -45.2792 H         1 UNK         0.3472 
    113 H113       21.3817  -32.5472  -46.1966 H         1 UNK         0.3472 
    114 H114       22.0707  -31.8766  -41.0125 H         1 UNK         0.0970 
    115 H115       21.1207  -33.0916  -41.8154 H         1 UNK         0.0970 
    116 H116       18.6482  -32.4994  -42.0279 H         1 UNK         0.0612 
    117 H117       19.2572  -32.4621  -43.6674 H         1 UNK         0.0612 
@<TRIPOS>BOND
     1    1    2 1    
     2    1   62 1    
     3    1   63 1    
     4    1   64 1    
     5    2    3 2    
     6    2    4 am   BACKBONE|DICT|INTERRES
     7    4    5 1    
     8    4   65 1    
     9    5    6 1    
    10    5   25 1    
    11    5   66 1    
    12    6    7 1    
    13    6   67 1    
    14    6   68 1    
    15    7    8 1    
    16    8    9 1    
    17    8   69 1    
    18    8   70 1    
    19    9   10 ar   
    20    9   14 ar   
    21   10   11 ar   
    22   10   71 1    
    23   11   12 ar   
    24   11   61 1    
    25   12   13 ar   
    26   12   72 1    
    27   13   14 ar   
    28   13   15 1    
    29   14   73 1    
    30   15   16 1    
    31   15   74 1    
    32   15   75 1    
    33   16   17 1    
    34   17   18 1    
    35   17   76 1    
    36   17   77 1    
    37   18   19 1    
    38   18   27 1    
    39   18   78 1    
    40   19   20 am   BACKBONE|DICT|INTERRES
    41   19   79 1    
    42   20   21 2    
    43   20   22 1    
    44   22   23 1    
    45   22   24 1    
    46   22   80 1    
    47   23   81 1    
    48   23   82 1    
    49   23   83 1    
    50   24   25 am   BACKBONE|DICT|INTERRES
    51   24   84 1    
    52   25   26 2    
    53   27   28 2    
    54   27   29 am   BACKBONE|DICT|INTERRES
    55   29   30 1    
    56   29   85 1    
    57   30   31 1    
    58   30   32 1    
    59   30   86 1    
    60   31   87 1    
    61   31   88 1    
    62   31   89 1    
    63   32   33 2    
    64   32   34 am   BACKBONE|DICT|INTERRES
    65   34   35 1    
    66   34   90 1    
    67   35   36 1    
    68   35   37 1    
    69   35   91 1    
    70   36   92 1    
    71   36   93 1    
    72   36   94 1    
    73   37   38 2    
    74   37   39 am   BACKBONE|DICT|INTERRES
    75   39   40 1    
    76   39   95 1    
    77   40   41 1    
    78   40   42 1    
    79   40   96 1    
    80   41   97 1    
    81   41   98 1    
    82   41   99 1    
    83   42   43 2    
    84   42   44 am   BACKBONE|DICT|INTERRES
    85   44   45 1    
    86   44  100 1    
    87   45   46 1    
    88   45   47 1    
    89   45  101 1    
    90   46  102 1    
    91   46  103 1    
    92   46  104 1    
    93   47   48 2    
    94   47   49 am   BACKBONE|DICT|INTERRES
    95   49   50 1    
    96   49  105 1    
    97   50   51 1    
    98   50   52 1    
    99   50  106 1    
   100   51  107 1    
   101   51  108 1    
   102   51  109 1    
   103   52   53 2    
   104   52   54 am   BACKBONE|DICT|INTERRES
   105   54   55 1    
   106   54  110 1    
   107   55   56 1    
   108   55   59 1    
   109   55  111 1    
   110   56   57 am   BACKBONE|DICT|INTERRES
   111   56   58 2    
   112   57  112 1    
   113   57  113 1    
   114   59   60 1    
   115   59  114 1    
   116   59  115 1    
   117   60   61 1    
   118   61  116 1    
   119   61  117 1    
@<TRIPOS>SUBSTRUCTURE
     1 UNK         1 GROUP             0       ****    0 ROOT    
