@<TRIPOS>MOLECULE
3R8
117   119    1
SMALL
USER_CHARGES


@<TRIPOS>ATOM
      1 CA         14.3768  -27.7046  -46.4671 C.3       0 UNK        -0.2013 
      2 C          15.7444  -27.6034  -45.8096 C.2       0 UNK         0.4866 
      3 O          16.7162  -28.1576  -46.3259 O.2       0 UNK        -0.5176 
      4 N          15.8361  -26.8914  -44.6782 N.am      1 UNK        -0.4884 
      5 CA         17.0659  -26.6808  -43.9068 C.3       1 UNK         0.0853 
      6 C6         16.7424  -26.4091  -42.4124 C.3       10 UNK        -0.0849 
      7 S7         18.2143  -26.3680  -41.3296 S.3       10 UNK        -0.2776 
      8 C8         18.3181  -28.0782  -40.7112 C.3       10 UNK         0.0316 
      9 C9         18.5386  -29.0990  -41.8205 C.ar      10 UNK        -0.0863 
     10 C10        17.6945  -30.2047  -41.9288 C.ar      10 UNK        -0.1009 
     11 C11        17.9056  -31.1712  -42.9176 C.ar      10 UNK        -0.0712 
     12 C12        18.9461  -30.9976  -43.8361 C.ar      10 UNK        -0.0894 
     13 C13        19.7970  -29.8916  -43.7463 C.ar      10 UNK        -0.0745 
     14 C14        19.5947  -28.9562  -42.7244 C.ar      10 UNK        -0.0972 
     15 C15        20.8969  -29.6942  -44.7838 C.3       10 UNK         0.0209 
     16 S16        22.4579  -29.1109  -44.0497 S.3       10 UNK        -0.2568 
     17 C17        23.0617  -27.9392  -45.3156 C.3       10 UNK        -0.0983 
     18 CA         22.6458  -26.4555  -45.1070 C.3       3 UNK         0.0876 
     19 N          21.2603  -26.2264  -45.5354 N.am      3 UNK        -0.4424 
     20 C          20.8075  -25.0795  -46.0607 C.2       2 UNK         0.4918 
     21 O          21.4902  -24.0619  -46.1771 O.2       2 UNK        -0.4875 
     22 CA         19.3527  -25.0698  -46.5610 C.3       2 UNK         0.0481 
     23 CB         19.2928  -25.5035  -48.0341 C.3       2 UNK        -0.1831 
     24 N          18.4718  -25.9314  -45.7700 N.am      2 UNK        -0.4498 
     25 C          17.9607  -25.6094  -44.5750 C.2       1 UNK         0.5027 
     26 O          18.1514  -24.5203  -44.0313 O.2       1 UNK        -0.4969 
     27 C          22.9292  -25.9464  -43.6746 C.2       3 UNK         0.5005 
     28 O          24.0973  -25.8331  -43.2983 O.2       3 UNK        -0.5279 
     29 N          21.8702  -25.6779  -42.8939 N.am      4 UNK        -0.4463 
     30 CA         21.8994  -25.3447  -41.4670 C.3       4 UNK         0.0283 
     31 CB         22.5172  -23.9445  -41.2427 C.3       4 UNK        -0.1875 
     32 C          22.5480  -26.4772  -40.6428 C.2       4 UNK         0.4949 
     33 O          22.1317  -27.6303  -40.7633 O.2       4 UNK        -0.5039 
     34 N          23.5552  -26.1420  -39.8286 N.am      5 UNK        -0.4663 
     35 CA         24.2754  -27.0720  -38.9561 C.3       5 UNK         0.0242 
     36 CB         24.9552  -26.2635  -37.8374 C.3       5 UNK        -0.1982 
     37 C          25.3017  -27.9637  -39.6829 C.2       5 UNK         0.5017 
     38 O          25.8953  -28.8233  -39.0308 O.2       5 UNK        -0.5012 
     39 N          25.5208  -27.7523  -40.9913 N.am      6 UNK        -0.4439 
     40 CA         26.5224  -28.4701  -41.7909 C.3       6 UNK         0.0297 
     41 CB         26.7024  -27.7709  -43.1458 C.3       6 UNK        -0.2006 
     42 C          26.2299  -29.9691  -41.9946 C.2       6 UNK         0.4892 
     43 O          27.1660  -30.7191  -42.2762 O.2       6 UNK        -0.5089 
     44 N          24.9666  -30.3842  -41.8374 N.am      7 UNK        -0.4243 
     45 CA         24.5577  -31.7895  -41.8431 C.3       7 UNK         0.0196 
     46 CB         24.2375  -32.2785  -43.2670 C.3       7 UNK        -0.2007 
     47 C          23.3833  -32.0346  -40.8924 C.2       7 UNK         0.5020 
     48 O          23.4004  -33.0463  -40.1923 O.2       7 UNK        -0.5147 
     49 N          22.3892  -31.1291  -40.8777 N.am      8 UNK        -0.4734 
     50 CA         21.1852  -31.1750  -40.0290 C.3       8 UNK         0.0238 
     51 CB         21.5495  -30.8516  -38.5650 C.3       8 UNK        -0.1912 
     52 C          20.3953  -32.4944  -40.1797 C.2       8 UNK         0.5038 
     53 O          20.0893  -33.1568  -39.1866 O.2       8 UNK        -0.5046 
     54 N          20.1409  -32.8601  -41.4416 N.am      9 UNK        -0.4200 
     55 CA         19.5582  -34.1250  -41.9225 C.3       9 UNK         0.0839 
     56 C          20.5264  -35.3462  -41.8671 C.2       9 UNK         0.5513 
     57 N          21.7656  -35.2175  -41.4090 N.am      9 UNK        -0.7519 
     58 O          20.1538  -36.4394  -42.2857 O.2       9 UNK        -0.4960 
     59 C59        18.1694  -34.4831  -41.3097 C.3       10 UNK        -0.0876 
     60 S60        16.8284  -33.2392  -41.3826 S.3       10 UNK        -0.2414 
     61 C61        17.0047  -32.3977  -42.9941 C.3       10 UNK         0.0169 
     62 H62        14.0746  -28.7487  -46.5429 H         1 UNK         0.0903 
     63 H63        13.6120  -27.1702  -45.9038 H         1 UNK         0.0903 
     64 H64        14.4126  -27.2863  -47.4727 H         1 UNK         0.0903 
     65 H65        15.0118  -26.4291  -44.3199 H         1 UNK         0.3096 
     66 H66        17.6265  -27.6146  -43.9477 H         1 UNK         0.1121 
     67 H67        16.0616  -27.1741  -42.0351 H         1 UNK         0.0849 
     68 H68        16.2134  -25.4605  -42.3044 H         1 UNK         0.0849 
     69 H69        19.1500  -28.1436  -40.0084 H         1 UNK         0.0865 
     70 H70        17.4152  -28.3040  -40.1417 H         1 UNK         0.0865 
     71 H71        16.8803  -30.3293  -41.2279 H         1 UNK         0.1346 
     72 H72        19.0934  -31.7263  -44.6217 H         1 UNK         0.1412 
     73 H73        20.2491  -28.1006  -42.6356 H         1 UNK         0.1426 
     74 H74        20.5370  -28.9849  -45.5285 H         1 UNK         0.0716 
     75 H75        21.0988  -30.6244  -45.3171 H         1 UNK         0.0716 
     76 H76        24.1495  -28.0083  -45.3207 H         1 UNK         0.0695 
     77 H77        22.7574  -28.2847  -46.3050 H         1 UNK         0.0695 
     78 H78        23.2914  -25.8618  -45.7586 H         1 UNK         0.0983 
     79 H79        20.6328  -27.0130  -45.4777 H         1 UNK         0.3095 
     80 H80        18.9853  -24.0432  -46.4986 H         1 UNK         0.0454 
     81 H81        19.6348  -26.5302  -48.1702 H         1 UNK         0.0851 
     82 H82        18.2781  -25.4339  -48.4265 H         1 UNK         0.0851 
     83 H83        19.9228  -24.8649  -48.6550 H         1 UNK         0.0851 
     84 H84        18.1789  -26.8139  -46.1807 H         1 UNK         0.2976 
     85 H85        20.9519  -25.8041  -43.2926 H         1 UNK         0.3116 
     86 H86        20.8624  -25.2925  -41.1392 H         1 UNK         0.0646 
     87 H87        22.4342  -23.6372  -40.1994 H         1 UNK         0.0847 
     88 H88        21.9949  -23.1919  -41.8335 H         1 UNK         0.0847 
     89 H89        23.5706  -23.9035  -41.5217 H         1 UNK         0.0847 
     90 H90        23.8536  -25.1774  -39.8070 H         1 UNK         0.3040 
     91 H91        23.5475  -27.7434  -38.4949 H         1 UNK         0.1015 
     92 H92        24.2289  -25.6803  -37.2708 H         1 UNK         0.0786 
     93 H93        25.7039  -25.5763  -38.2338 H         1 UNK         0.0786 
     94 H94        25.4602  -26.9207  -37.1278 H         1 UNK         0.0786 
     95 H95        24.9842  -27.0359  -41.4664 H         1 UNK         0.3172 
     96 H96        27.4716  -28.4014  -41.2552 H         1 UNK         0.0595 
     97 H97        26.9492  -26.7161  -43.0242 H         1 UNK         0.0839 
     98 H98        25.7993  -27.8377  -43.7499 H         1 UNK         0.0839 
     99 H99        27.5097  -28.2297  -43.7183 H         1 UNK         0.0839 
    100 H100       24.2701  -29.7001  -41.5780 H         1 UNK         0.2998 
    101 H101       25.3875  -32.3903  -41.4630 H         1 UNK         0.0822 
    102 H102       25.0746  -32.1097  -43.9445 H         1 UNK         0.0787 
    103 H103       24.0300  -33.3494  -43.2685 H         1 UNK         0.0787 
    104 H104       23.3624  -31.7831  -43.6842 H         1 UNK         0.0787 
    105 H105       22.4226  -30.3557  -41.5291 H         1 UNK         0.3055 
    106 H106       20.5260  -30.3813  -40.3790 H         1 UNK         0.1106 
    107 H107       22.2014  -31.6109  -38.1318 H         1 UNK         0.0828 
    108 H108       22.0562  -29.8896  -38.4893 H         1 UNK         0.0828 
    109 H109       20.6551  -30.7960  -37.9434 H         1 UNK         0.0828 
    110 H110       20.4376  -32.2295  -42.1717 H         1 UNK         0.2931 
    111 H111       19.4065  -33.9623  -42.9891 H         1 UNK         0.0412 
    112 H112       22.3659  -36.0266  -41.4012 H         1 UNK         0.3472 
    113 H113       22.1008  -34.3457  -41.0158 H         1 UNK         0.3472 
    114 H114       18.2902  -34.7655  -40.2628 H         1 UNK         0.0970 
    115 H115       17.7757  -35.3753  -41.8002 H         1 UNK         0.0970 
    116 H116       17.3513  -33.1083  -43.7453 H         1 UNK         0.0612 
    117 H117       16.0163  -32.0703  -43.3184 H         1 UNK         0.0612 
@<TRIPOS>BOND
     1    1    2 1    
     2    1   62 1    
     3    1   63 1    
     4    1   64 1    
     5    2    3 2    
     6    2    4 am   BACKBONE|DICT|INTERRES
     7    4    5 1    
     8    4   65 1    
     9    5    6 1    
    10    5   25 1    
    11    5   66 1    
    12    6    7 1    
    13    6   67 1    
    14    6   68 1    
    15    7    8 1    
    16    8    9 1    
    17    8   69 1    
    18    8   70 1    
    19    9   10 ar   
    20    9   14 ar   
    21   10   11 ar   
    22   10   71 1    
    23   11   12 ar   
    24   11   61 1    
    25   12   13 ar   
    26   12   72 1    
    27   13   14 ar   
    28   13   15 1    
    29   14   73 1    
    30   15   16 1    
    31   15   74 1    
    32   15   75 1    
    33   16   17 1    
    34   17   18 1    
    35   17   76 1    
    36   17   77 1    
    37   18   19 1    
    38   18   27 1    
    39   18   78 1    
    40   19   20 am   BACKBONE|DICT|INTERRES
    41   19   79 1    
    42   20   21 2    
    43   20   22 1    
    44   22   23 1    
    45   22   24 1    
    46   22   80 1    
    47   23   81 1    
    48   23   82 1    
    49   23   83 1    
    50   24   25 am   BACKBONE|DICT|INTERRES
    51   24   84 1    
    52   25   26 2    
    53   27   28 2    
    54   27   29 am   BACKBONE|DICT|INTERRES
    55   29   30 1    
    56   29   85 1    
    57   30   31 1    
    58   30   32 1    
    59   30   86 1    
    60   31   87 1    
    61   31   88 1    
    62   31   89 1    
    63   32   33 2    
    64   32   34 am   BACKBONE|DICT|INTERRES
    65   34   35 1    
    66   34   90 1    
    67   35   36 1    
    68   35   37 1    
    69   35   91 1    
    70   36   92 1    
    71   36   93 1    
    72   36   94 1    
    73   37   38 2    
    74   37   39 am   BACKBONE|DICT|INTERRES
    75   39   40 1    
    76   39   95 1    
    77   40   41 1    
    78   40   42 1    
    79   40   96 1    
    80   41   97 1    
    81   41   98 1    
    82   41   99 1    
    83   42   43 2    
    84   42   44 am   BACKBONE|DICT|INTERRES
    85   44   45 1    
    86   44  100 1    
    87   45   46 1    
    88   45   47 1    
    89   45  101 1    
    90   46  102 1    
    91   46  103 1    
    92   46  104 1    
    93   47   48 2    
    94   47   49 am   BACKBONE|DICT|INTERRES
    95   49   50 1    
    96   49  105 1    
    97   50   51 1    
    98   50   52 1    
    99   50  106 1    
   100   51  107 1    
   101   51  108 1    
   102   51  109 1    
   103   52   53 2    
   104   52   54 am   BACKBONE|DICT|INTERRES
   105   54   55 1    
   106   54  110 1    
   107   55   56 1    
   108   55   59 1    
   109   55  111 1    
   110   56   57 am   BACKBONE|DICT|INTERRES
   111   56   58 2    
   112   57  112 1    
   113   57  113 1    
   114   59   60 1    
   115   59  114 1    
   116   59  115 1    
   117   60   61 1    
   118   61  116 1    
   119   61  117 1    
@<TRIPOS>SUBSTRUCTURE
     1 UNK         1 GROUP             0       ****    0 ROOT    
