@<TRIPOS>MOLECULE
3R8
117   119    1
SMALL
USER_CHARGES


@<TRIPOS>ATOM
      1 CA         16.3937  -24.2831  -40.4596 C.3       0 UNK        -0.2013 
      2 C          16.6712  -24.3306  -41.9547 C.2       0 UNK         0.4866 
      3 O          16.7400  -23.2830  -42.5989 O.2       0 UNK        -0.5176 
      4 N          16.8212  -25.5380  -42.5126 N.am      1 UNK        -0.4884 
      5 CA         17.1432  -25.7810  -43.9234 C.3       1 UNK         0.0853 
      6 C6         16.9565  -27.2739  -44.3071 C.3       10 UNK        -0.0849 
      7 S7         15.2926  -27.9148  -43.9113 S.3       10 UNK        -0.2776 
      8 C8         15.0997  -29.2690  -45.1185 C.3       10 UNK         0.0316 
      9 C9         16.1946  -30.3225  -44.9978 C.ar      10 UNK        -0.0863 
     10 C10        16.2949  -31.1144  -43.8495 C.ar      10 UNK        -0.1009 
     11 C11        17.3125  -32.0669  -43.7269 C.ar      10 UNK        -0.0712 
     12 C12        18.2257  -32.2349  -44.7739 C.ar      10 UNK        -0.0894 
     13 C13        18.1237  -31.4636  -45.9360 C.ar      10 UNK        -0.0745 
     14 C14        17.1033  -30.5132  -46.0425 C.ar      10 UNK        -0.0972 
     15 C15        19.1042  -31.6639  -47.0859 C.3       10 UNK         0.0209 
     16 S16        20.6926  -30.8115  -46.8141 S.3       10 UNK        -0.2568 
     17 C17        20.1599  -29.0651  -46.7449 C.3       10 UNK        -0.0983 
     18 CA         21.2266  -28.0208  -46.3170 C.3       3 UNK         0.0876 
     19 N          20.5844  -26.7075  -46.2734 N.am      3 UNK        -0.4424 
     20 C          21.1544  -25.5209  -46.0372 C.2       2 UNK         0.4918 
     21 O          22.3669  -25.3428  -45.9273 O.2       2 UNK        -0.4875 
     22 CA         20.1795  -24.3376  -45.8557 C.3       2 UNK         0.0481 
     23 CB         20.0511  -23.5437  -47.1652 C.3       2 UNK        -0.1831 
     24 N          18.8382  -24.7375  -45.3913 N.am      2 UNK        -0.4498 
     25 C          18.5928  -25.3455  -44.2197 C.2       1 UNK         0.5027 
     26 O          19.4796  -25.6340  -43.4139 O.2       1 UNK        -0.4969 
     27 C          21.9044  -28.4082  -44.9795 C.2       3 UNK         0.5005 
     28 O          22.9096  -29.1184  -45.0115 O.2       3 UNK        -0.5279 
     29 N          21.3303  -27.9733  -43.8436 N.am      4 UNK        -0.4463 
     30 CA         21.6176  -28.4810  -42.4990 C.3       4 UNK         0.0283 
     31 CB         20.7213  -27.7706  -41.4702 C.3       4 UNK        -0.1875 
     32 C          23.0866  -28.3898  -42.0704 C.2       4 UNK         0.4949 
     33 O          23.6420  -29.3896  -41.6133 O.2       4 UNK        -0.5039 
     34 N          23.6688  -27.1853  -42.1746 N.am      5 UNK        -0.4663 
     35 CA         25.0601  -26.8352  -41.8323 C.3       5 UNK         0.0242 
     36 CB         26.0190  -27.4685  -42.8627 C.3       5 UNK        -0.1982 
     37 C          25.4886  -27.1694  -40.3827 C.2       5 UNK         0.5017 
     38 O          26.6868  -27.1892  -40.0978 O.2       5 UNK        -0.5012 
     39 N          24.5097  -27.4545  -39.5087 N.am      6 UNK        -0.4439 
     40 CA         24.6396  -28.0335  -38.1664 C.3       6 UNK         0.0297 
     41 CB         25.2834  -27.0221  -37.1940 C.3       6 UNK        -0.2006 
     42 C          25.3455  -29.4097  -38.1589 C.2       6 UNK         0.4892 
     43 O          26.0249  -29.7330  -37.1821 O.2       6 UNK        -0.5089 
     44 N          25.1883  -30.1908  -39.2390 N.am      7 UNK        -0.4243 
     45 CA         25.8599  -31.4792  -39.4284 C.3       7 UNK         0.0196 
     46 CB         27.2069  -31.2662  -40.1425 C.3       7 UNK        -0.2007 
     47 C          24.9885  -32.4880  -40.1868 C.2       7 UNK         0.5020 
     48 O          24.8651  -33.6292  -39.7418 O.2       7 UNK        -0.5147 
     49 N          24.4013  -32.0672  -41.3143 N.am      8 UNK        -0.4734 
     50 CA         23.5269  -32.8965  -42.1513 C.3       8 UNK         0.0238 
     51 CB         23.5938  -32.3898  -43.6004 C.3       8 UNK        -0.1912 
     52 C          22.0706  -32.9019  -41.6592 C.2       8 UNK         0.5038 
     53 O          21.3214  -33.8161  -42.0045 O.2       8 UNK        -0.5046 
     54 N          21.6985  -31.8893  -40.8713 N.am      9 UNK        -0.4200 
     55 CA         20.3874  -31.7150  -40.2461 C.3       9 UNK         0.0839 
     56 C          20.5102  -30.8089  -38.9920 C.2       9 UNK         0.5513 
     57 N          19.4403  -30.6667  -38.2242 N.am      9 UNK        -0.7519 
     58 O          21.5578  -30.2255  -38.7145 O.2       9 UNK        -0.4960 
     59 C59        19.3165  -31.2183  -41.2610 C.3       10 UNK        -0.0876 
     60 S60        17.6688  -31.9378  -40.9608 S.3       10 UNK        -0.2414 
     61 C61        17.4160  -32.9264  -42.4714 C.3       10 UNK         0.0169 
     62 H62        15.4434  -23.7848  -40.2697 H         1 UNK         0.0903 
     63 H63        16.3472  -25.2800  -40.0215 H         1 UNK         0.0903 
     64 H64        17.1792  -23.7254  -39.9503 H         1 UNK         0.0903 
     65 H65        16.7518  -26.3655  -41.9381 H         1 UNK         0.3096 
     66 H66        16.4651  -25.1765  -44.5301 H         1 UNK         0.1121 
     67 H67        17.1346  -27.4113  -45.3753 H         1 UNK         0.0849 
     68 H68        17.6852  -27.9044  -43.7920 H         1 UNK         0.0849 
     69 H69        15.0725  -28.8469  -46.1244 H         1 UNK         0.0865 
     70 H70        14.1302  -29.7443  -44.9633 H         1 UNK         0.0865 
     71 H71        15.5892  -30.9772  -43.0413 H         1 UNK         0.1346 
     72 H72        19.0161  -32.9685  -44.6886 H         1 UNK         0.1412 
     73 H73        17.0242  -29.9141  -46.9395 H         1 UNK         0.1426 
     74 H74        18.6693  -31.3177  -48.0249 H         1 UNK         0.0716 
     75 H75        19.2966  -32.7297  -47.2173 H         1 UNK         0.0716 
     76 H76        19.3215  -29.0021  -46.0512 H         1 UNK         0.0695 
     77 H77        19.7614  -28.8042  -47.7268 H         1 UNK         0.0695 
     78 H78        22.0082  -27.9844  -47.0787 H         1 UNK         0.0983 
     79 H79        19.5825  -26.7121  -46.3842 H         1 UNK         0.3095 
     80 H80        20.6078  -23.6777  -45.0983 H         1 UNK         0.0454 
     81 H81        19.6044  -24.1418  -47.9603 H         1 UNK         0.0851 
     82 H82        21.0289  -23.2124  -47.5180 H         1 UNK         0.0851 
     83 H83        19.4398  -22.6511  -47.0310 H         1 UNK         0.0851 
     84 H84        18.0655  -24.5264  -46.0076 H         1 UNK         0.2976 
     85 H85        20.5728  -27.3026  -43.9079 H         1 UNK         0.3116 
     86 H86        21.3527  -29.5390  -42.5081 H         1 UNK         0.0646 
     87 H87        20.8675  -28.1788  -40.4700 H         1 UNK         0.0847 
     88 H88        20.9340  -26.7024  -41.4147 H         1 UNK         0.0847 
     89 H89        19.6649  -27.8790  -41.7149 H         1 UNK         0.0847 
     90 H90        23.1106  -26.4326  -42.5549 H         1 UNK         0.3040 
     91 H91        25.1380  -25.7508  -41.9248 H         1 UNK         0.1015 
     92 H92        25.7264  -27.2176  -43.8824 H         1 UNK         0.0786 
     93 H93        26.0380  -28.5559  -42.7795 H         1 UNK         0.0786 
     94 H94        27.0408  -27.1130  -42.7242 H         1 UNK         0.0786 
     95 H95        23.5661  -27.4047  -39.8650 H         1 UNK         0.3172 
     96 H96        23.6219  -28.2208  -37.8205 H         1 UNK         0.0595 
     97 H97        26.3300  -26.8367  -37.4374 H         1 UNK         0.0839 
     98 H98        25.2496  -27.3895  -36.1676 H         1 UNK         0.0839 
     99 H99        24.7601  -26.0662  -37.2107 H         1 UNK         0.0839 
    100 H100       24.5983  -29.8607  -39.9976 H         1 UNK         0.2998 
    101 H101       26.0620  -31.9250  -38.4517 H         1 UNK         0.0822 
    102 H102       27.8760  -30.6460  -39.5456 H         1 UNK         0.0787 
    103 H103       27.7139  -32.2163  -40.3164 H         1 UNK         0.0787 
    104 H104       27.0778  -30.7794  -41.1101 H         1 UNK         0.0787 
    105 H105       24.4872  -31.0933  -41.5918 H         1 UNK         0.3055 
    106 H106       23.8831  -33.9292  -42.1332 H         1 UNK         0.1106 
    107 H107       22.9752  -33.0006  -44.2594 H         1 UNK         0.0828 
    108 H108       23.2372  -31.3630  -43.6817 H         1 UNK         0.0828 
    109 H109       24.6120  -32.4228  -43.9880 H         1 UNK         0.0828 
    110 H110       22.3852  -31.1932  -40.6099 H         1 UNK         0.2931 
    111 H111       20.1017  -32.7006  -39.8728 H         1 UNK         0.0412 
    112 H112       19.4952  -30.0814  -37.4055 H         1 UNK         0.3472 
    113 H113       18.5741  -31.1274  -38.4594 H         1 UNK         0.3472 
    114 H114       19.2188  -30.1337  -41.2431 H         1 UNK         0.0970 
    115 H115       19.6168  -31.4578  -42.2816 H         1 UNK         0.0970 
    116 H116       18.2280  -33.6507  -42.5576 H         1 UNK         0.0612 
    117 H117       16.4973  -33.5040  -42.3628 H         1 UNK         0.0612 
@<TRIPOS>BOND
     1    1    2 1    
     2    1   62 1    
     3    1   63 1    
     4    1   64 1    
     5    2    3 2    
     6    2    4 am   BACKBONE|DICT|INTERRES
     7    4    5 1    
     8    4   65 1    
     9    5    6 1    
    10    5   25 1    
    11    5   66 1    
    12    6    7 1    
    13    6   67 1    
    14    6   68 1    
    15    7    8 1    
    16    8    9 1    
    17    8   69 1    
    18    8   70 1    
    19    9   10 ar   
    20    9   14 ar   
    21   10   11 ar   
    22   10   71 1    
    23   11   12 ar   
    24   11   61 1    
    25   12   13 ar   
    26   12   72 1    
    27   13   14 ar   
    28   13   15 1    
    29   14   73 1    
    30   15   16 1    
    31   15   74 1    
    32   15   75 1    
    33   16   17 1    
    34   17   18 1    
    35   17   76 1    
    36   17   77 1    
    37   18   19 1    
    38   18   27 1    
    39   18   78 1    
    40   19   20 am   BACKBONE|DICT|INTERRES
    41   19   79 1    
    42   20   21 2    
    43   20   22 1    
    44   22   23 1    
    45   22   24 1    
    46   22   80 1    
    47   23   81 1    
    48   23   82 1    
    49   23   83 1    
    50   24   25 am   BACKBONE|DICT|INTERRES
    51   24   84 1    
    52   25   26 2    
    53   27   28 2    
    54   27   29 am   BACKBONE|DICT|INTERRES
    55   29   30 1    
    56   29   85 1    
    57   30   31 1    
    58   30   32 1    
    59   30   86 1    
    60   31   87 1    
    61   31   88 1    
    62   31   89 1    
    63   32   33 2    
    64   32   34 am   BACKBONE|DICT|INTERRES
    65   34   35 1    
    66   34   90 1    
    67   35   36 1    
    68   35   37 1    
    69   35   91 1    
    70   36   92 1    
    71   36   93 1    
    72   36   94 1    
    73   37   38 2    
    74   37   39 am   BACKBONE|DICT|INTERRES
    75   39   40 1    
    76   39   95 1    
    77   40   41 1    
    78   40   42 1    
    79   40   96 1    
    80   41   97 1    
    81   41   98 1    
    82   41   99 1    
    83   42   43 2    
    84   42   44 am   BACKBONE|DICT|INTERRES
    85   44   45 1    
    86   44  100 1    
    87   45   46 1    
    88   45   47 1    
    89   45  101 1    
    90   46  102 1    
    91   46  103 1    
    92   46  104 1    
    93   47   48 2    
    94   47   49 am   BACKBONE|DICT|INTERRES
    95   49   50 1    
    96   49  105 1    
    97   50   51 1    
    98   50   52 1    
    99   50  106 1    
   100   51  107 1    
   101   51  108 1    
   102   51  109 1    
   103   52   53 2    
   104   52   54 am   BACKBONE|DICT|INTERRES
   105   54   55 1    
   106   54  110 1    
   107   55   56 1    
   108   55   59 1    
   109   55  111 1    
   110   56   57 am   BACKBONE|DICT|INTERRES
   111   56   58 2    
   112   57  112 1    
   113   57  113 1    
   114   59   60 1    
   115   59  114 1    
   116   59  115 1    
   117   60   61 1    
   118   61  116 1    
   119   61  117 1    
@<TRIPOS>SUBSTRUCTURE
     1 UNK         1 GROUP             0       ****    0 ROOT    
