@<TRIPOS>MOLECULE
3R8
117   119    1
SMALL
USER_CHARGES


@<TRIPOS>ATOM
      1 CA         17.8196  -23.0457  -40.8188 C.3       0 UNK        -0.2013 
      2 C          17.6807  -23.4721  -42.2726 C.2       0 UNK         0.4866 
      3 O          17.6406  -22.6192  -43.1603 O.2       0 UNK        -0.5176 
      4 N          17.5964  -24.7847  -42.5211 N.am      1 UNK        -0.4884 
      5 CA         17.5093  -25.3841  -43.8578 C.3       1 UNK         0.0853 
      6 C6         17.1245  -26.8836  -43.7937 C.3       10 UNK        -0.0849 
      7 S7         15.5928  -27.2076  -42.8540 S.3       10 UNK        -0.2776 
      8 C8         14.7964  -28.5076  -43.8559 C.3       10 UNK         0.0316 
      9 C9         15.7290  -29.6795  -44.1394 C.ar      10 UNK        -0.0863 
     10 C10        16.2092  -30.4748  -43.0932 C.ar      10 UNK        -0.1009 
     11 C11        17.0818  -31.5377  -43.3487 C.ar      10 UNK        -0.0712 
     12 C12        17.4522  -31.8155  -44.6681 C.ar      10 UNK        -0.0894 
     13 C13        17.0070  -31.0065  -45.7189 C.ar      10 UNK        -0.0745 
     14 C14        16.1316  -29.9515  -45.4507 C.ar      10 UNK        -0.0972 
     15 C15        17.5267  -31.2330  -47.1337 C.3       10 UNK         0.0209 
     16 S16        18.7278  -29.9508  -47.6439 S.3       10 UNK        -0.2568 
     17 C17        19.9371  -30.0097  -46.2755 C.3       10 UNK        -0.0983 
     18 CA         20.9341  -28.8214  -46.2108 C.3       3 UNK         0.0876 
     19 N          20.2615  -27.5330  -46.3931 N.am      3 UNK        -0.4424 
     20 C          20.8633  -26.3856  -46.7299 C.2       2 UNK         0.4918 
     21 O          22.0721  -26.2793  -46.9361 O.2       2 UNK        -0.4875 
     22 CA         19.9608  -25.1392  -46.8346 C.3       2 UNK         0.0481 
     23 CB         19.5041  -24.9322  -48.2873 C.3       2 UNK        -0.1831 
     24 N          18.7839  -25.1828  -45.9544 N.am      2 UNK        -0.4498 
     25 C          18.8446  -25.2361  -44.6157 C.2       1 UNK         0.5027 
     26 O          19.9066  -25.2547  -43.9893 O.2       1 UNK        -0.4969 
     27 C          21.6833  -28.9246  -44.8638 C.2       3 UNK         0.5005 
     28 O          22.5036  -29.8320  -44.7254 O.2       3 UNK        -0.5279 
     29 N          21.3104  -28.0839  -43.8808 N.am      4 UNK        -0.4463 
     30 CA         21.4619  -28.3302  -42.4403 C.3       4 UNK         0.0283 
     31 CB         20.8529  -27.1711  -41.6356 C.3       4 UNK        -0.1875 
     32 C          22.8797  -28.6275  -41.9381 C.2       4 UNK         0.4949 
     33 O          23.0101  -29.4421  -41.0276 O.2       4 UNK        -0.5039 
     34 N          23.8938  -27.9603  -42.5098 N.am      5 UNK        -0.4663 
     35 CA         25.3316  -28.1701  -42.2690 C.3       5 UNK         0.0242 
     36 CB         25.7944  -29.4392  -43.0138 C.3       5 UNK        -0.1982 
     37 C          25.7289  -28.1803  -40.7746 C.2       5 UNK         0.5017 
     38 O          26.4706  -29.0623  -40.3387 O.2       5 UNK        -0.5012 
     39 N          25.2022  -27.2004  -40.0233 N.am      6 UNK        -0.4439 
     40 CA         25.3271  -27.0320  -38.5687 C.3       6 UNK         0.0297 
     41 CB         26.7931  -26.7760  -38.1545 C.3       6 UNK        -0.2006 
     42 C          24.6590  -28.1763  -37.7764 C.2       6 UNK         0.4892 
     43 O          25.2753  -28.7481  -36.8753 O.2       6 UNK        -0.5089 
     44 N          23.3938  -28.4574  -38.1249 N.am      7 UNK        -0.4243 
     45 CA         22.4913  -29.4485  -37.5220 C.3       7 UNK         0.0196 
     46 CB         22.1646  -29.0821  -36.0577 C.3       7 UNK        -0.2007 
     47 C          22.9836  -30.8993  -37.6901 C.2       7 UNK         0.5020 
     48 O          22.9604  -31.6814  -36.7378 O.2       7 UNK        -0.5147 
     49 N          23.4032  -31.2356  -38.9121 N.am      8 UNK        -0.4734 
     50 CA         23.8676  -32.5559  -39.3271 C.3       8 UNK         0.0238 
     51 CB         25.3389  -32.7521  -38.9058 C.3       8 UNK        -0.1912 
     52 C          23.6513  -32.6642  -40.8423 C.2       8 UNK         0.5038 
     53 O          24.6293  -32.6834  -41.5908 O.2       8 UNK        -0.5046 
     54 N          22.3699  -32.6586  -41.2457 N.am      9 UNK        -0.4200 
     55 CA         21.8639  -32.5140  -42.6231 C.3       9 UNK         0.0839 
     56 C          22.6402  -33.3159  -43.7040 C.2       9 UNK         0.5513 
     57 N          23.0747  -32.6542  -44.7671 N.am      9 UNK        -0.7519 
     58 O          22.7936  -34.5318  -43.6073 O.2       9 UNK        -0.4960 
     59 C59        20.3527  -32.8488  -42.7242 C.3       10 UNK        -0.0876 
     60 S60        19.2824  -31.8209  -41.6628 S.3       10 UNK        -0.2414 
     61 C61        17.6262  -32.3750  -42.1972 C.3       10 UNK         0.0169 
     62 H62        17.8295  -23.9000  -40.1421 H         1 UNK         0.0903 
     63 H63        18.7471  -22.4914  -40.6781 H         1 UNK         0.0903 
     64 H64        16.9893  -22.3990  -40.5361 H         1 UNK         0.0903 
     65 H65        17.6249  -25.4407  -41.7541 H         1 UNK         0.3096 
     66 H66        16.7370  -24.8472  -44.4135 H         1 UNK         0.1121 
     67 H67        17.0021  -27.2711  -44.8065 H         1 UNK         0.0849 
     68 H68        17.9203  -27.4772  -43.3391 H         1 UNK         0.0849 
     69 H69        13.9137  -28.8718  -43.3284 H         1 UNK         0.0865 
     70 H70        14.4342  -28.0646  -44.7851 H         1 UNK         0.0865 
     71 H71        15.9161  -30.2516  -42.0762 H         1 UNK         0.1346 
     72 H72        18.1197  -32.6384  -44.8777 H         1 UNK         0.1412 
     73 H73        15.7902  -29.3254  -46.2641 H         1 UNK         0.1426 
     74 H74        16.6895  -31.2350  -47.8331 H         1 UNK         0.0716 
     75 H75        17.9988  -32.2131  -47.2184 H         1 UNK         0.0716 
     76 H76        20.4773  -30.9562  -46.3438 H         1 UNK         0.0695 
     77 H77        19.3800  -30.0480  -45.3392 H         1 UNK         0.0695 
     78 H78        21.6690  -28.9410  -47.0099 H         1 UNK         0.0983 
     79 H79        19.2579  -27.5414  -46.2938 H         1 UNK         0.3095 
     80 H80        20.5611  -24.2756  -46.5408 H         1 UNK         0.0454 
     81 H81        20.3608  -24.8684  -48.9599 H         1 UNK         0.0851 
     82 H82        18.9393  -24.0067  -48.3993 H         1 UNK         0.0851 
     83 H83        18.8778  -25.7542  -48.6365 H         1 UNK         0.0851 
     84 H84        17.8806  -25.1762  -46.4075 H         1 UNK         0.2976 
     85 H85        20.7052  -27.3108  -44.1275 H         1 UNK         0.3116 
     86 H86        20.8683  -29.2207  -42.2247 H         1 UNK         0.0646 
     87 H87        19.7920  -27.0508  -41.8502 H         1 UNK         0.0847 
     88 H88        21.3492  -26.2244  -41.8523 H         1 UNK         0.0847 
     89 H89        20.9403  -27.3480  -40.5627 H         1 UNK         0.0847 
     90 H90        23.6591  -27.3012  -43.2394 H         1 UNK         0.3040 
     91 H91        25.8523  -27.3203  -42.7132 H         1 UNK         0.1015 
     92 H92        26.8735  -29.5754  -42.9339 H         1 UNK         0.0786 
     93 H93        25.5508  -29.3875  -44.0750 H         1 UNK         0.0786 
     94 H94        25.3197  -30.3333  -42.6093 H         1 UNK         0.0786 
     95 H95        24.6036  -26.5340  -40.4917 H         1 UNK         0.3172 
     96 H96        24.7647  -26.1302  -38.3216 H         1 UNK         0.0595 
     97 H97        26.8583  -26.5212  -37.0960 H         1 UNK         0.0839 
     98 H98        27.2255  -25.9464  -38.7137 H         1 UNK         0.0839 
     99 H99        27.4222  -27.6523  -38.3129 H         1 UNK         0.0839 
    100 H100       23.0185  -27.9699  -38.9257 H         1 UNK         0.2998 
    101 H101       21.5591  -29.3866  -38.0860 H         1 UNK         0.0822 
    102 H102       21.7868  -28.0628  -35.9782 H         1 UNK         0.0787 
    103 H103       21.3978  -29.7433  -35.6522 H         1 UNK         0.0787 
    104 H104       23.0395  -29.1676  -35.4125 H         1 UNK         0.0787 
    105 H105       23.3527  -30.5376  -39.6576 H         1 UNK         0.3055 
    106 H106       23.2601  -33.3276  -38.8488 H         1 UNK         0.1106 
    107 H107       25.4495  -32.7253  -37.8218 H         1 UNK         0.0828 
    108 H108       25.7186  -33.7158  -39.2472 H         1 UNK         0.0828 
    109 H109       25.9817  -31.9766  -39.3254 H         1 UNK         0.0828 
    110 H110       21.6558  -32.6249  -40.5336 H         1 UNK         0.2931 
    111 H111       21.9752  -31.4544  -42.8469 H         1 UNK         0.0412 
    112 H112       22.9446  -31.6459  -44.8256 H         1 UNK         0.3472 
    113 H113       23.5682  -33.1456  -45.4949 H         1 UNK         0.3472 
    114 H114       20.0246  -32.7155  -43.7547 H         1 UNK         0.0970 
    115 H115       20.1790  -33.8988  -42.4800 H         1 UNK         0.0970 
    116 H116       16.9507  -32.3113  -41.3428 H         1 UNK         0.0612 
    117 H117       17.6558  -33.4289  -42.4781 H         1 UNK         0.0612 
@<TRIPOS>BOND
     1    1    2 1    
     2    1   62 1    
     3    1   63 1    
     4    1   64 1    
     5    2    3 2    
     6    2    4 am   BACKBONE|DICT|INTERRES
     7    4    5 1    
     8    4   65 1    
     9    5    6 1    
    10    5   25 1    
    11    5   66 1    
    12    6    7 1    
    13    6   67 1    
    14    6   68 1    
    15    7    8 1    
    16    8    9 1    
    17    8   69 1    
    18    8   70 1    
    19    9   10 ar   
    20    9   14 ar   
    21   10   11 ar   
    22   10   71 1    
    23   11   12 ar   
    24   11   61 1    
    25   12   13 ar   
    26   12   72 1    
    27   13   14 ar   
    28   13   15 1    
    29   14   73 1    
    30   15   16 1    
    31   15   74 1    
    32   15   75 1    
    33   16   17 1    
    34   17   18 1    
    35   17   76 1    
    36   17   77 1    
    37   18   19 1    
    38   18   27 1    
    39   18   78 1    
    40   19   20 am   BACKBONE|DICT|INTERRES
    41   19   79 1    
    42   20   21 2    
    43   20   22 1    
    44   22   23 1    
    45   22   24 1    
    46   22   80 1    
    47   23   81 1    
    48   23   82 1    
    49   23   83 1    
    50   24   25 am   BACKBONE|DICT|INTERRES
    51   24   84 1    
    52   25   26 2    
    53   27   28 2    
    54   27   29 am   BACKBONE|DICT|INTERRES
    55   29   30 1    
    56   29   85 1    
    57   30   31 1    
    58   30   32 1    
    59   30   86 1    
    60   31   87 1    
    61   31   88 1    
    62   31   89 1    
    63   32   33 2    
    64   32   34 am   BACKBONE|DICT|INTERRES
    65   34   35 1    
    66   34   90 1    
    67   35   36 1    
    68   35   37 1    
    69   35   91 1    
    70   36   92 1    
    71   36   93 1    
    72   36   94 1    
    73   37   38 2    
    74   37   39 am   BACKBONE|DICT|INTERRES
    75   39   40 1    
    76   39   95 1    
    77   40   41 1    
    78   40   42 1    
    79   40   96 1    
    80   41   97 1    
    81   41   98 1    
    82   41   99 1    
    83   42   43 2    
    84   42   44 am   BACKBONE|DICT|INTERRES
    85   44   45 1    
    86   44  100 1    
    87   45   46 1    
    88   45   47 1    
    89   45  101 1    
    90   46  102 1    
    91   46  103 1    
    92   46  104 1    
    93   47   48 2    
    94   47   49 am   BACKBONE|DICT|INTERRES
    95   49   50 1    
    96   49  105 1    
    97   50   51 1    
    98   50   52 1    
    99   50  106 1    
   100   51  107 1    
   101   51  108 1    
   102   51  109 1    
   103   52   53 2    
   104   52   54 am   BACKBONE|DICT|INTERRES
   105   54   55 1    
   106   54  110 1    
   107   55   56 1    
   108   55   59 1    
   109   55  111 1    
   110   56   57 am   BACKBONE|DICT|INTERRES
   111   56   58 2    
   112   57  112 1    
   113   57  113 1    
   114   59   60 1    
   115   59  114 1    
   116   59  115 1    
   117   60   61 1    
   118   61  116 1    
   119   61  117 1    
@<TRIPOS>SUBSTRUCTURE
     1 UNK         1 GROUP             0       ****    0 ROOT    
