@<TRIPOS>MOLECULE
3R8
117   119    1
SMALL
USER_CHARGES


@<TRIPOS>ATOM
      1 CA         17.2696  -21.8244  -42.6924 C.3       0 UNK        -0.2013 
      2 C          17.8295  -22.7071  -43.7976 C.2       0 UNK         0.4866 
      3 O          18.6222  -22.2376  -44.6149 O.2       0 UNK        -0.5176 
      4 N          17.4165  -23.9795  -43.8347 N.am      1 UNK        -0.4884 
      5 CA         17.9115  -25.0044  -44.7584 C.3       1 UNK         0.0853 
      6 C6         16.9789  -26.2453  -44.8248 C.3       10 UNK        -0.0849 
      7 S7         16.2965  -26.7848  -43.2155 S.3       10 UNK        -0.2776 
      8 C8         15.3904  -28.2932  -43.6818 C.3       10 UNK         0.0316 
      9 C9         16.3072  -29.5061  -43.6941 C.ar      10 UNK        -0.0863 
     10 C10        16.4982  -30.2542  -42.5277 C.ar      10 UNK        -0.1009 
     11 C11        17.3641  -31.3527  -42.5163 C.ar      10 UNK        -0.0712 
     12 C12        18.0086  -31.7194  -43.7005 C.ar      10 UNK        -0.0894 
     13 C13        17.8410  -30.9703  -44.8668 C.ar      10 UNK        -0.0745 
     14 C14        16.9763  -29.8738  -44.8635 C.ar      10 UNK        -0.0972 
     15 C15        18.6129  -31.3286  -46.1249 C.3       10 UNK         0.0209 
     16 S16        19.9656  -30.1486  -46.4300 S.3       10 UNK        -0.2568 
     17 C17        21.1464  -30.5303  -45.0800 C.3       10 UNK        -0.0983 
     18 CA         21.7446  -29.3057  -44.3169 C.3       3 UNK         0.0876 
     19 N          21.4569  -28.0066  -44.9335 N.am      3 UNK        -0.4424 
     20 C          22.1287  -26.8787  -44.6740 C.2       2 UNK         0.4918 
     21 O          23.0645  -26.8077  -43.8798 O.2       2 UNK        -0.4875 
     22 CA         21.6648  -25.6086  -45.4015 C.3       2 UNK         0.0481 
     23 CB         22.2759  -25.5450  -46.8099 C.3       2 UNK        -0.1831 
     24 N          20.2087  -25.4564  -45.4876 N.am      2 UNK        -0.4498 
     25 C          19.3761  -25.3742  -44.4387 C.2       1 UNK         0.5027 
     26 O          19.7238  -25.5638  -43.2699 O.2       1 UNK        -0.4969 
     27 C          21.4390  -29.3163  -42.8031 C.2       3 UNK         0.5005 
     28 O          22.1936  -29.9344  -42.0511 O.2       3 UNK        -0.5279 
     29 N          20.3998  -28.5869  -42.3666 N.am      4 UNK        -0.4463 
     30 CA         20.1063  -28.3682  -40.9471 C.3       4 UNK         0.0283 
     31 CB         18.6849  -27.8218  -40.7632 C.3       4 UNK        -0.1875 
     32 C          21.1175  -27.4174  -40.2942 C.2       4 UNK         0.4949 
     33 O          21.5874  -27.7056  -39.1947 O.2       4 UNK        -0.5039 
     34 N          21.4510  -26.3174  -40.9864 N.am      5 UNK        -0.4663 
     35 CA         22.4195  -25.3105  -40.5376 C.3       5 UNK         0.0242 
     36 CB         22.4119  -24.1203  -41.5099 C.3       5 UNK        -0.1982 
     37 C          23.8418  -25.8732  -40.3679 C.2       5 UNK         0.5017 
     38 O          24.5169  -25.5340  -39.3958 O.2       5 UNK        -0.5012 
     39 N          24.2513  -26.7500  -41.2940 N.am      6 UNK        -0.4439 
     40 CA         25.5059  -27.5040  -41.2448 C.3       6 UNK         0.0297 
     41 CB         25.8168  -28.0391  -42.6528 C.3       6 UNK        -0.2006 
     42 C          25.4914  -28.6674  -40.2342 C.2       6 UNK         0.4892 
     43 O          26.5626  -29.1962  -39.9346 O.2       6 UNK        -0.5089 
     44 N          24.2983  -29.0590  -39.7562 N.am      7 UNK        -0.4243 
     45 CA         24.0087  -30.2307  -38.9195 C.3       7 UNK         0.0196 
     46 CB         24.6072  -30.0634  -37.5069 C.3       7 UNK        -0.2007 
     47 C          24.4303  -31.5412  -39.6120 C.2       7 UNK         0.5020 
     48 O          25.1004  -32.3815  -39.0090 O.2       7 UNK        -0.5147 
     49 N          24.0490  -31.6694  -40.8868 N.am      8 UNK        -0.4734 
     50 CA         24.4439  -32.7438  -41.7913 C.3       8 UNK         0.0238 
     51 CB         25.6193  -32.2594  -42.6629 C.3       8 UNK        -0.1912 
     52 C          23.2261  -33.1866  -42.6131 C.2       8 UNK         0.5038 
     53 O          23.2731  -33.1756  -43.8446 O.2       8 UNK        -0.5046 
     54 N          22.1463  -33.5532  -41.9103 N.am      9 UNK        -0.4200 
     55 CA         20.8916  -34.0432  -42.5039 C.3       9 UNK         0.0839 
     56 C          20.9886  -35.4433  -43.1788 C.2       9 UNK         0.5513 
     57 N          22.0245  -36.2359  -42.9299 N.am      9 UNK        -0.7519 
     58 O          20.1034  -35.8136  -43.9453 O.2       9 UNK        -0.4960 
     59 C59        19.7158  -34.0130  -41.4905 C.3       10 UNK        -0.0876 
     60 S60        19.3627  -32.3499  -40.8167 S.3       10 UNK        -0.2414 
     61 C61        17.5930  -32.1309  -41.2239 C.3       10 UNK         0.0169 
     62 H62        16.7445  -20.9718  -43.1221 H         1 UNK         0.0903 
     63 H63        16.5722  -22.3653  -42.0529 H         1 UNK         0.0903 
     64 H64        18.0792  -21.4474  -42.0681 H         1 UNK         0.0903 
     65 H65        16.7887  -24.3277  -43.1228 H         1 UNK         0.3096 
     66 H66        17.9073  -24.5523  -45.7532 H         1 UNK         0.1121 
     67 H67        17.4845  -27.0831  -45.3069 H         1 UNK         0.0849 
     68 H68        16.1290  -26.0103  -45.4675 H         1 UNK         0.0849 
     69 H69        14.9118  -28.1599  -44.6532 H         1 UNK         0.0865 
     70 H70        14.5816  -28.4514  -42.9668 H         1 UNK         0.0865 
     71 H71        15.9865  -29.9638  -41.6202 H         1 UNK         0.1346 
     72 H72        18.6603  -32.5774  -43.7106 H         1 UNK         0.1412 
     73 H73        16.8414  -29.2986  -45.7690 H         1 UNK         0.1426 
     74 H74        17.9352  -31.3199  -46.9798 H         1 UNK         0.0716 
     75 H75        19.0187  -32.3398  -46.0645 H         1 UNK         0.0716 
     76 H76        21.9629  -31.0922  -45.5364 H         1 UNK         0.0695 
     77 H77        20.6873  -31.2394  -44.3910 H         1 UNK         0.0695 
     78 H78        22.8301  -29.4206  -44.3746 H         1 UNK         0.0983 
     79 H79        20.7066  -27.9972  -45.6099 H         1 UNK         0.3095 
     80 H80        22.0421  -24.7546  -44.8359 H         1 UNK         0.0454 
     81 H81        21.9052  -26.3461  -47.4505 H         1 UNK         0.0851 
     82 H82        23.3622  -25.6384  -46.7681 H         1 UNK         0.0851 
     83 H83        22.0551  -24.5951  -47.2969 H         1 UNK         0.0851 
     84 H84        19.8358  -25.2970  -46.4128 H         1 UNK         0.2976 
     85 H85        19.8455  -28.0708  -43.0350 H         1 UNK         0.3116 
     86 H86        20.1651  -29.3306  -40.4340 H         1 UNK         0.0646 
     87 H87        17.9447  -28.4993  -41.1784 H         1 UNK         0.0847 
     88 H88        18.5560  -26.8496  -41.2389 H         1 UNK         0.0847 
     89 H89        18.4493  -27.6986  -39.7055 H         1 UNK         0.0847 
     90 H90        20.9748  -26.1363  -41.8663 H         1 UNK         0.3040 
     91 H91        22.0907  -24.9537  -39.5590 H         1 UNK         0.1015 
     92 H92        23.0813  -23.3311  -41.1652 H         1 UNK         0.0786 
     93 H93        21.4157  -23.6862  -41.5992 H         1 UNK         0.0786 
     94 H94        22.7391  -24.4123  -42.5078 H         1 UNK         0.0786 
     95 H95        23.6601  -26.9019  -42.1091 H         1 UNK         0.3172 
     96 H96        26.3072  -26.8224  -40.9521 H         1 UNK         0.0595 
     97 H97        25.0459  -28.7294  -42.9984 H         1 UNK         0.0839 
     98 H98        26.7661  -28.5763  -42.6687 H         1 UNK         0.0839 
     99 H99        25.8909  -27.2293  -43.3788 H         1 UNK         0.0839 
    100 H100       23.4824  -28.5403  -40.0560 H         1 UNK         0.2998 
    101 H101       22.9231  -30.2727  -38.8171 H         1 UNK         0.0822 
    102 H102       24.2713  -29.1355  -37.0438 H         1 UNK         0.0787 
    103 H103       24.2997  -30.8816  -36.8546 H         1 UNK         0.0787 
    104 H104       25.6974  -30.0546  -37.5248 H         1 UNK         0.0787 
    105 H105       23.4294  -30.9623  -41.2889 H         1 UNK         0.3055 
    106 H106       24.7735  -33.6163  -41.2228 H         1 UNK         0.1106 
    107 H107       25.9561  -33.0455  -43.3398 H         1 UNK         0.0828 
    108 H108       26.4735  -31.9706  -42.0500 H         1 UNK         0.0828 
    109 H109       25.3395  -31.3985  -43.2714 H         1 UNK         0.0828 
    110 H110       22.1766  -33.4994  -40.9031 H         1 UNK         0.2931 
    111 H111       20.6522  -33.3527  -43.3116 H         1 UNK         0.0412 
    112 H112       22.7542  -35.9452  -42.2996 H         1 UNK         0.3472 
    113 H113       22.0740  -37.1381  -43.3771 H         1 UNK         0.3472 
    114 H114       18.8108  -34.4064  -41.9567 H         1 UNK         0.0970 
    115 H115       19.9258  -34.6788  -40.6516 H         1 UNK         0.0970 
    116 H116       17.0859  -33.0943  -41.2819 H         1 UNK         0.0612 
    117 H117       17.1333  -31.6020  -40.3877 H         1 UNK         0.0612 
@<TRIPOS>BOND
     1    1    2 1    
     2    1   62 1    
     3    1   63 1    
     4    1   64 1    
     5    2    3 2    
     6    2    4 am   BACKBONE|DICT|INTERRES
     7    4    5 1    
     8    4   65 1    
     9    5    6 1    
    10    5   25 1    
    11    5   66 1    
    12    6    7 1    
    13    6   67 1    
    14    6   68 1    
    15    7    8 1    
    16    8    9 1    
    17    8   69 1    
    18    8   70 1    
    19    9   10 ar   
    20    9   14 ar   
    21   10   11 ar   
    22   10   71 1    
    23   11   12 ar   
    24   11   61 1    
    25   12   13 ar   
    26   12   72 1    
    27   13   14 ar   
    28   13   15 1    
    29   14   73 1    
    30   15   16 1    
    31   15   74 1    
    32   15   75 1    
    33   16   17 1    
    34   17   18 1    
    35   17   76 1    
    36   17   77 1    
    37   18   19 1    
    38   18   27 1    
    39   18   78 1    
    40   19   20 am   BACKBONE|DICT|INTERRES
    41   19   79 1    
    42   20   21 2    
    43   20   22 1    
    44   22   23 1    
    45   22   24 1    
    46   22   80 1    
    47   23   81 1    
    48   23   82 1    
    49   23   83 1    
    50   24   25 am   BACKBONE|DICT|INTERRES
    51   24   84 1    
    52   25   26 2    
    53   27   28 2    
    54   27   29 am   BACKBONE|DICT|INTERRES
    55   29   30 1    
    56   29   85 1    
    57   30   31 1    
    58   30   32 1    
    59   30   86 1    
    60   31   87 1    
    61   31   88 1    
    62   31   89 1    
    63   32   33 2    
    64   32   34 am   BACKBONE|DICT|INTERRES
    65   34   35 1    
    66   34   90 1    
    67   35   36 1    
    68   35   37 1    
    69   35   91 1    
    70   36   92 1    
    71   36   93 1    
    72   36   94 1    
    73   37   38 2    
    74   37   39 am   BACKBONE|DICT|INTERRES
    75   39   40 1    
    76   39   95 1    
    77   40   41 1    
    78   40   42 1    
    79   40   96 1    
    80   41   97 1    
    81   41   98 1    
    82   41   99 1    
    83   42   43 2    
    84   42   44 am   BACKBONE|DICT|INTERRES
    85   44   45 1    
    86   44  100 1    
    87   45   46 1    
    88   45   47 1    
    89   45  101 1    
    90   46  102 1    
    91   46  103 1    
    92   46  104 1    
    93   47   48 2    
    94   47   49 am   BACKBONE|DICT|INTERRES
    95   49   50 1    
    96   49  105 1    
    97   50   51 1    
    98   50   52 1    
    99   50  106 1    
   100   51  107 1    
   101   51  108 1    
   102   51  109 1    
   103   52   53 2    
   104   52   54 am   BACKBONE|DICT|INTERRES
   105   54   55 1    
   106   54  110 1    
   107   55   56 1    
   108   55   59 1    
   109   55  111 1    
   110   56   57 am   BACKBONE|DICT|INTERRES
   111   56   58 2    
   112   57  112 1    
   113   57  113 1    
   114   59   60 1    
   115   59  114 1    
   116   59  115 1    
   117   60   61 1    
   118   61  116 1    
   119   61  117 1    
@<TRIPOS>SUBSTRUCTURE
     1 UNK         1 GROUP             0       ****    0 ROOT    
