@<TRIPOS>MOLECULE
3R8
117   119    1
SMALL
USER_CHARGES


@<TRIPOS>ATOM
      1 CA         16.8433  -23.5245  -48.1980 C.3       0 UNK        -0.2013 
      2 C          17.0168  -24.8999  -47.5707 C.2       0 UNK         0.4866 
      3 O          17.7788  -25.7142  -48.0919 O.2       0 UNK        -0.5176 
      4 N          16.3201  -25.1536  -46.4580 N.am      1 UNK        -0.4884 
      5 CA         16.3877  -26.3852  -45.6671 C.3       1 UNK         0.0853 
      6 C6         15.1688  -27.3147  -45.9237 C.3       10 UNK        -0.0849 
      7 S7         15.3768  -28.2646  -47.4677 S.3       10 UNK        -0.2776 
      8 C8         15.8968  -29.9055  -46.8535 C.3       10 UNK         0.0316 
      9 C9         17.0708  -29.8373  -45.8815 C.ar      10 UNK        -0.0863 
     10 C10        16.9163  -30.2791  -44.5640 C.ar      10 UNK        -0.1009 
     11 C11        17.9800  -30.2071  -43.6606 C.ar      10 UNK        -0.0712 
     12 C12        19.2043  -29.6762  -44.0788 C.ar      10 UNK        -0.0894 
     13 C13        19.3738  -29.2352  -45.3936 C.ar      10 UNK        -0.0745 
     14 C14        18.3085  -29.3332  -46.2944 C.ar      10 UNK        -0.0972 
     15 C15        20.7071  -28.6615  -45.8495 C.3       10 UNK         0.0209 
     16 S16        20.8608  -26.8938  -45.4338 S.3       10 UNK        -0.2568 
     17 C17        21.6533  -26.9393  -43.7892 C.3       10 UNK        -0.0983 
     18 CA         20.8427  -26.1833  -42.7075 C.3       3 UNK         0.0876 
     19 N          19.4984  -26.7410  -42.5434 N.am      3 UNK        -0.4424 
     20 C          18.5289  -26.2691  -41.7467 C.2       2 UNK         0.4918 
     21 O          18.6701  -25.3387  -40.9524 O.2       2 UNK        -0.4875 
     22 CA         17.1559  -26.9452  -41.9231 C.3       2 UNK         0.0481 
     23 CB         16.0356  -26.3003  -41.0794 C.3       2 UNK        -0.1831 
     24 N          16.7899  -27.0363  -43.3445 N.am      2 UNK        -0.4498 
     25 C          16.5382  -26.0156  -44.1808 C.2       1 UNK         0.5027 
     26 O          16.4464  -24.8361  -43.8283 O.2       1 UNK        -0.4969 
     27 C          21.6506  -26.1095  -41.3975 C.2       3 UNK         0.5005 
     28 O          22.2929  -25.0875  -41.1493 O.2       3 UNK        -0.5279 
     29 N          21.6374  -27.1961  -40.6070 N.am      4 UNK        -0.4463 
     30 CA         22.3602  -27.4195  -39.3425 C.3       4 UNK         0.0283 
     31 CB         21.9838  -26.3813  -38.2680 C.3       4 UNK        -0.1875 
     32 C          23.8858  -27.5306  -39.5117 C.2       4 UNK         0.4949 
     33 O          24.4793  -28.4999  -39.0396 O.2       4 UNK        -0.5039 
     34 N          24.4879  -26.5800  -40.2381 N.am      5 UNK        -0.4663 
     35 CA         25.9054  -26.5425  -40.6191 C.3       5 UNK         0.0242 
     36 CB         26.2024  -25.1940  -41.2942 C.3       5 UNK        -0.1982 
     37 C          26.3378  -27.7085  -41.5292 C.2       5 UNK         0.5017 
     38 O          27.5321  -27.9924  -41.6210 O.2       5 UNK        -0.5012 
     39 N          25.3603  -28.3781  -42.1570 N.am      6 UNK        -0.4439 
     40 CA         25.5247  -29.6220  -42.9104 C.3       6 UNK         0.0297 
     41 CB         24.2394  -29.8922  -43.7115 C.3       6 UNK        -0.2006 
     42 C          25.8690  -30.8383  -42.0272 C.2       6 UNK         0.4892 
     43 O          26.3058  -31.8533  -42.5704 O.2       6 UNK        -0.5089 
     44 N          25.6450  -30.7368  -40.7052 N.am      7 UNK        -0.4243 
     45 CA         25.8982  -31.7184  -39.6381 C.3       7 UNK         0.0196 
     46 CB         27.3890  -32.1009  -39.5608 C.3       7 UNK        -0.2007 
     47 C          25.0045  -32.9701  -39.6875 C.2       7 UNK         0.5020 
     48 O          24.5173  -33.4029  -38.6434 O.2       7 UNK        -0.5147 
     49 N          24.7811  -33.5177  -40.8874 N.am      8 UNK        -0.4734 
     50 CA         23.8940  -34.6539  -41.1527 C.3       8 UNK         0.0238 
     51 CB         24.1889  -35.1979  -42.5601 C.3       8 UNK        -0.1912 
     52 C          22.3997  -34.3095  -41.0126 C.2       8 UNK         0.5038 
     53 O          21.5910  -35.2194  -40.8254 O.2       8 UNK        -0.5046 
     54 N          22.0609  -33.0191  -41.1086 N.am      9 UNK        -0.4200 
     55 CA         20.7120  -32.4775  -40.9559 C.3       9 UNK         0.0839 
     56 C          20.8248  -31.0183  -40.4556 C.2       9 UNK         0.5513 
     57 N          20.2398  -30.7050  -39.3083 N.am      9 UNK        -0.7519 
     58 O          21.4055  -30.1621  -41.1208 O.2       9 UNK        -0.4960 
     59 C59        19.8975  -32.6023  -42.2709 C.3       10 UNK        -0.0876 
     60 S60        18.0943  -32.4599  -42.0203 S.3       10 UNK        -0.2414 
     61 C61        17.7910  -30.6755  -42.2257 C.3       10 UNK         0.0169 
     62 H62        16.1410  -22.9060  -47.6394 H         1 UNK         0.0903 
     63 H63        17.8001  -23.0044  -48.2324 H         1 UNK         0.0903 
     64 H64        16.4716  -23.6221  -49.2176 H         1 UNK         0.0903 
     65 H65        15.7789  -24.4160  -46.0254 H         1 UNK         0.3096 
     66 H66        17.3099  -26.9098  -45.9183 H         1 UNK         0.1121 
     67 H67        15.0042  -28.0215  -45.1089 H         1 UNK         0.0849 
     68 H68        14.2490  -26.7311  -45.9905 H         1 UNK         0.0849 
     69 H69        15.0378  -30.3928  -46.3894 H         1 UNK         0.0865 
     70 H70        16.1754  -30.5290  -47.7041 H         1 UNK         0.0865 
     71 H71        15.9669  -30.6825  -44.2374 H         1 UNK         0.1346 
     72 H72        20.0296  -29.6141  -43.3830 H         1 UNK         0.1412 
     73 H73        18.4306  -28.9891  -47.3131 H         1 UNK         0.1426 
     74 H74        20.8028  -28.7673  -46.9312 H         1 UNK         0.0716 
     75 H75        21.5342  -29.2305  -45.4226 H         1 UNK         0.0716 
     76 H76        21.8199  -27.9737  -43.4854 H         1 UNK         0.0695 
     77 H77        22.6450  -26.4957  -43.9011 H         1 UNK         0.0695 
     78 H78        20.7096  -25.1537  -43.0471 H         1 UNK         0.0983 
     79 H79        19.2591  -27.4762  -43.1916 H         1 UNK         0.3095 
     80 H80        17.2714  -27.9678  -41.5666 H         1 UNK         0.0454 
     81 H81        16.2664  -26.3671  -40.0156 H         1 UNK         0.0851 
     82 H82        15.0815  -26.8030  -41.2356 H         1 UNK         0.0851 
     83 H83        15.9007  -25.2436  -41.3110 H         1 UNK         0.0851 
     84 H84        16.8356  -27.9665  -43.7405 H         1 UNK         0.2976 
     85 H85        21.1451  -28.0143  -40.9484 H         1 UNK         0.3116 
     86 H86        22.0220  -28.3905  -38.9799 H         1 UNK         0.0646 
     87 H87        22.3207  -25.3774  -38.5269 H         1 UNK         0.0847 
     88 H88        20.9051  -26.3425  -38.1163 H         1 UNK         0.0847 
     89 H89        22.4376  -26.6350  -37.3092 H         1 UNK         0.0847 
     90 H90        23.8928  -25.8320  -40.5904 H         1 UNK         0.3040 
     91 H91        26.4983  -26.6123  -39.7045 H         1 UNK         0.1015 
     92 H92        27.2553  -25.1166  -41.5696 H         1 UNK         0.0786 
     93 H93        25.9816  -24.3598  -40.6279 H         1 UNK         0.0786 
     94 H94        25.6156  -25.0610  -42.2041 H         1 UNK         0.0786 
     95 H95        24.4156  -28.0544  -42.0141 H         1 UNK         0.3172 
     96 H96        26.3480  -29.4862  -43.6147 H         1 UNK         0.0595 
     97 H97        23.3746  -30.0241  -43.0601 H         1 UNK         0.0839 
     98 H98        24.3353  -30.7993  -44.3102 H         1 UNK         0.0839 
     99 H99        24.0224  -29.0762  -44.4011 H         1 UNK         0.0839 
    100 H100       25.2490  -29.8654  -40.3669 H         1 UNK         0.2998 
    101 H101       25.6487  -31.2001  -38.7104 H         1 UNK         0.0822 
    102 H102       27.5814  -32.7389  -38.6972 H         1 UNK         0.0787 
    103 H103       28.0190  -31.2172  -39.4580 H         1 UNK         0.0787 
    104 H104       27.7189  -32.6471  -40.4449 H         1 UNK         0.0787 
    105 H105       25.2622  -33.0998  -41.6815 H         1 UNK         0.3055 
    106 H106       24.1151  -35.4377  -40.4246 H         1 UNK         0.1106 
    107 H107       25.2265  -35.5193  -42.6518 H         1 UNK         0.0828 
    108 H108       23.5626  -36.0625  -42.7848 H         1 UNK         0.0828 
    109 H109       24.0003  -34.4488  -43.3303 H         1 UNK         0.0828 
    110 H110       22.7889  -32.3309  -41.2380 H         1 UNK         0.2931 
    111 H111       20.2095  -33.0640  -40.1832 H         1 UNK         0.0412 
    112 H112       20.2855  -29.7598  -38.9665 H         1 UNK         0.3472 
    113 H113       19.7503  -31.4041  -38.7714 H         1 UNK         0.3472 
    114 H114       20.2520  -31.9064  -43.0294 H         1 UNK         0.0970 
    115 H115       20.0577  -33.5912  -42.7029 H         1 UNK         0.0970 
    116 H116       18.4299  -30.1058  -41.5525 H         1 UNK         0.0612 
    117 H117       16.7683  -30.4666  -41.9080 H         1 UNK         0.0612 
@<TRIPOS>BOND
     1    1    2 1    
     2    1   62 1    
     3    1   63 1    
     4    1   64 1    
     5    2    3 2    
     6    2    4 am   BACKBONE|DICT|INTERRES
     7    4    5 1    
     8    4   65 1    
     9    5    6 1    
    10    5   25 1    
    11    5   66 1    
    12    6    7 1    
    13    6   67 1    
    14    6   68 1    
    15    7    8 1    
    16    8    9 1    
    17    8   69 1    
    18    8   70 1    
    19    9   10 ar   
    20    9   14 ar   
    21   10   11 ar   
    22   10   71 1    
    23   11   12 ar   
    24   11   61 1    
    25   12   13 ar   
    26   12   72 1    
    27   13   14 ar   
    28   13   15 1    
    29   14   73 1    
    30   15   16 1    
    31   15   74 1    
    32   15   75 1    
    33   16   17 1    
    34   17   18 1    
    35   17   76 1    
    36   17   77 1    
    37   18   19 1    
    38   18   27 1    
    39   18   78 1    
    40   19   20 am   BACKBONE|DICT|INTERRES
    41   19   79 1    
    42   20   21 2    
    43   20   22 1    
    44   22   23 1    
    45   22   24 1    
    46   22   80 1    
    47   23   81 1    
    48   23   82 1    
    49   23   83 1    
    50   24   25 am   BACKBONE|DICT|INTERRES
    51   24   84 1    
    52   25   26 2    
    53   27   28 2    
    54   27   29 am   BACKBONE|DICT|INTERRES
    55   29   30 1    
    56   29   85 1    
    57   30   31 1    
    58   30   32 1    
    59   30   86 1    
    60   31   87 1    
    61   31   88 1    
    62   31   89 1    
    63   32   33 2    
    64   32   34 am   BACKBONE|DICT|INTERRES
    65   34   35 1    
    66   34   90 1    
    67   35   36 1    
    68   35   37 1    
    69   35   91 1    
    70   36   92 1    
    71   36   93 1    
    72   36   94 1    
    73   37   38 2    
    74   37   39 am   BACKBONE|DICT|INTERRES
    75   39   40 1    
    76   39   95 1    
    77   40   41 1    
    78   40   42 1    
    79   40   96 1    
    80   41   97 1    
    81   41   98 1    
    82   41   99 1    
    83   42   43 2    
    84   42   44 am   BACKBONE|DICT|INTERRES
    85   44   45 1    
    86   44  100 1    
    87   45   46 1    
    88   45   47 1    
    89   45  101 1    
    90   46  102 1    
    91   46  103 1    
    92   46  104 1    
    93   47   48 2    
    94   47   49 am   BACKBONE|DICT|INTERRES
    95   49   50 1    
    96   49  105 1    
    97   50   51 1    
    98   50   52 1    
    99   50  106 1    
   100   51  107 1    
   101   51  108 1    
   102   51  109 1    
   103   52   53 2    
   104   52   54 am   BACKBONE|DICT|INTERRES
   105   54   55 1    
   106   54  110 1    
   107   55   56 1    
   108   55   59 1    
   109   55  111 1    
   110   56   57 am   BACKBONE|DICT|INTERRES
   111   56   58 2    
   112   57  112 1    
   113   57  113 1    
   114   59   60 1    
   115   59  114 1    
   116   59  115 1    
   117   60   61 1    
   118   61  116 1    
   119   61  117 1    
@<TRIPOS>SUBSTRUCTURE
     1 UNK         1 GROUP             0       ****    0 ROOT    
