@<TRIPOS>MOLECULE
3R8
117   119    1
SMALL
USER_CHARGES


@<TRIPOS>ATOM
      1 CA         23.0640  -31.0361  -47.5112 C.3       0 UNK        -0.2013 
      2 C          21.9998  -30.5197  -46.5553 C.2       0 UNK         0.4866 
      3 O          22.0835  -30.7692  -45.3527 O.2       0 UNK        -0.5176 
      4 N          21.0045  -29.8034  -47.0893 N.am      1 UNK        -0.4884 
      5 CA         19.9381  -29.1348  -46.3386 C.3       1 UNK         0.0853 
      6 C6         18.7984  -28.6769  -47.2868 C.3       10 UNK        -0.0849 
      7 S7         17.8051  -30.0840  -47.8917 S.3       10 UNK        -0.2776 
      8 C8         16.2186  -29.8285  -47.0239 C.3       10 UNK         0.0316 
      9 C9         16.4063  -29.7315  -45.5163 C.ar      10 UNK        -0.0863 
     10 C10        16.7806  -30.8601  -44.7848 C.ar      10 UNK        -0.1009 
     11 C11        17.0371  -30.7612  -43.4163 C.ar      10 UNK        -0.0712 
     12 C12        16.8974  -29.5263  -42.7759 C.ar      10 UNK        -0.0894 
     13 C13        16.4834  -28.3900  -43.4869 C.ar      10 UNK        -0.0745 
     14 C14        16.2420  -28.5074  -44.8592 C.ar      10 UNK        -0.0972 
     15 C15        16.3291  -27.0110  -42.8370 C.3       10 UNK         0.0209 
     16 S16        16.2423  -27.0189  -41.0114 S.3       10 UNK        -0.2568 
     17 C17        17.0661  -25.4524  -40.5708 C.3       10 UNK        -0.0983 
     18 CA         18.5864  -25.6506  -40.3099 C.3       3 UNK         0.0876 
     19 N          19.3413  -25.7466  -41.5673 N.am      3 UNK        -0.4424 
     20 C          19.8520  -26.8733  -42.0752 C.2       2 UNK         0.4918 
     21 O          19.7518  -27.9834  -41.5516 O.2       2 UNK        -0.4875 
     22 CA         20.6085  -26.7299  -43.3991 C.3       2 UNK         0.0481 
     23 CB         22.1265  -26.6373  -43.1545 C.3       2 UNK        -0.1831 
     24 N          20.2743  -27.8618  -44.2602 N.am      2 UNK        -0.4498 
     25 C          20.5082  -27.9228  -45.5764 C.2       1 UNK         0.5027 
     26 O          21.1108  -27.0504  -46.2076 O.2       1 UNK        -0.4969 
     27 C          19.1717  -24.5572  -39.3854 C.2       3 UNK         0.5005 
     28 O          18.6212  -24.3241  -38.3076 O.2       3 UNK        -0.5279 
     29 N          20.2784  -23.9172  -39.7913 N.am      4 UNK        -0.4463 
     30 CA         21.0018  -22.8961  -39.0259 C.3       4 UNK         0.0283 
     31 CB         20.4608  -21.4973  -39.3816 C.3       4 UNK        -0.1875 
     32 C          22.5227  -23.0163  -39.2392 C.2       4 UNK         0.4949 
     33 O          23.2422  -22.0267  -39.0994 O.2       4 UNK        -0.5039 
     34 N          22.9867  -24.2225  -39.5841 N.am      5 UNK        -0.4663 
     35 CA         24.3735  -24.5902  -39.8591 C.3       5 UNK         0.0242 
     36 CB         24.8278  -24.0027  -41.2128 C.3       5 UNK        -0.1982 
     37 C          24.4595  -26.1240  -39.8515 C.2       5 UNK         0.5017 
     38 O          23.4302  -26.7879  -39.6886 O.2       5 UNK        -0.5012 
     39 N          25.6730  -26.6618  -40.0384 N.am      6 UNK        -0.4439 
     40 CA         25.9296  -28.0968  -40.1988 C.3       6 UNK         0.0297 
     41 CB         27.4457  -28.3444  -40.2576 C.3       6 UNK        -0.2006 
     42 C          25.2376  -28.6492  -41.4578 C.2       6 UNK         0.4892 
     43 O          25.3311  -28.0291  -42.5199 O.2       6 UNK        -0.5089 
     44 N          24.5544  -29.7868  -41.3045 N.am      7 UNK        -0.4243 
     45 CA         23.7179  -30.4082  -42.3286 C.3       7 UNK         0.0196 
     46 CB         22.2590  -30.3785  -41.8390 C.3       7 UNK        -0.2007 
     47 C          24.1552  -31.8569  -42.5642 C.2       7 UNK         0.5020 
     48 O          24.8000  -32.4598  -41.7029 O.2       7 UNK        -0.5147 
     49 N          23.7289  -32.4132  -43.7031 N.am      8 UNK        -0.4734 
     50 CA         23.8787  -33.8341  -44.0425 C.3       8 UNK         0.0238 
     51 CB         23.8869  -33.9818  -45.5728 C.3       8 UNK        -0.1912 
     52 C          22.7746  -34.7149  -43.4229 C.2       8 UNK         0.5038 
     53 O          22.8217  -35.9357  -43.5784 O.2       8 UNK        -0.5046 
     54 N          21.7964  -34.0834  -42.7613 N.am      9 UNK        -0.4200 
     55 CA         20.6028  -34.6910  -42.1537 C.3       9 UNK         0.0839 
     56 C          20.8766  -35.6881  -40.9899 C.2       9 UNK         0.5513 
     57 N          22.0560  -35.6934  -40.3802 N.am      9 UNK        -0.7519 
     58 O          19.9974  -36.4682  -40.6336 O.2       9 UNK        -0.4960 
     59 C59        19.5908  -33.6045  -41.6992 C.3       10 UNK        -0.0876 
     60 S60        19.2256  -32.3686  -42.9929 S.3       10 UNK        -0.2414 
     61 C61        17.4870  -31.9857  -42.6365 C.3       10 UNK         0.0169 
     62 H62        24.0443  -31.0118  -47.0358 H         1 UNK         0.0903 
     63 H63        22.8466  -32.0635  -47.7999 H         1 UNK         0.0903 
     64 H64        23.1169  -30.4315  -48.4165 H         1 UNK         0.0903 
     65 H65        20.9989  -29.6348  -48.0849 H         1 UNK         0.3096 
     66 H66        19.5333  -29.8427  -45.6105 H         1 UNK         0.1121 
     67 H67        19.2061  -28.1456  -48.1490 H         1 UNK         0.0849 
     68 H68        18.1397  -27.9587  -46.7968 H         1 UNK         0.0849 
     69 H69        15.7375  -28.9305  -47.4148 H         1 UNK         0.0865 
     70 H70        15.5482  -30.6580  -47.2536 H         1 UNK         0.0865 
     71 H71        16.9118  -31.8086  -45.2883 H         1 UNK         0.1346 
     72 H72        17.1267  -29.4603  -41.7221 H         1 UNK         0.1412 
     73 H73        15.9479  -27.6327  -45.4240 H         1 UNK         0.1426 
     74 H74        15.4234  -26.5316  -43.2116 H         1 UNK         0.0716 
     75 H75        17.1600  -26.3884  -43.1665 H         1 UNK         0.0716 
     76 H76        16.8889  -24.7008  -41.3421 H         1 UNK         0.0695 
     77 H77        16.5554  -25.0881  -39.6775 H         1 UNK         0.0695 
     78 H78        18.7148  -26.5729  -39.7383 H         1 UNK         0.0983 
     79 H79        19.4237  -24.8914  -42.0988 H         1 UNK         0.3095 
     80 H80        20.2730  -25.8152  -43.8927 H         1 UNK         0.0454 
     81 H81        22.6723  -26.4196  -44.0721 H         1 UNK         0.0851 
     82 H82        22.3612  -25.8437  -42.4455 H         1 UNK         0.0851 
     83 H83        22.5271  -27.5631  -42.7450 H         1 UNK         0.0851 
     84 H84        19.7758  -28.6106  -43.7938 H         1 UNK         0.2976 
     85 H85        20.6943  -24.1759  -40.6741 H         1 UNK         0.3116 
     86 H86        20.8402  -23.0628  -37.9588 H         1 UNK         0.0646 
     87 H87        20.9459  -20.7231  -38.7858 H         1 UNK         0.0847 
     88 H88        19.3903  -21.4249  -39.1889 H         1 UNK         0.0847 
     89 H89        20.6300  -21.2570  -40.4317 H         1 UNK         0.0847 
     90 H90        22.3630  -25.0220  -39.5782 H         1 UNK         0.3040 
     91 H91        25.0072  -24.2078  -39.0559 H         1 UNK         0.1015 
     92 H92        24.7504  -22.9156  -41.2253 H         1 UNK         0.0786 
     93 H93        24.2318  -24.3873  -42.0406 H         1 UNK         0.0786 
     94 H94        25.8698  -24.2452  -41.4233 H         1 UNK         0.0786 
     95 H95        26.4580  -26.0452  -40.1898 H         1 UNK         0.3172 
     96 H96        25.5304  -28.6069  -39.3193 H         1 UNK         0.0595 
     97 H97        27.9425  -27.9944  -39.3525 H         1 UNK         0.0839 
     98 H98        27.9044  -27.8418  -41.1103 H         1 UNK         0.0839 
     99 H99        27.6626  -29.4093  -40.3535 H         1 UNK         0.0839 
    100 H100       24.6048  -30.2822  -40.4249 H         1 UNK         0.2998 
    101 H101       23.7912  -29.8618  -43.2719 H         1 UNK         0.0822 
    102 H102       21.9862  -29.3973  -41.4536 H         1 UNK         0.0787 
    103 H103       21.5709  -30.6038  -42.6533 H         1 UNK         0.0787 
    104 H104       22.0780  -31.1000  -41.0409 H         1 UNK         0.0787 
    105 H105       23.1641  -31.8466  -44.3374 H         1 UNK         0.3055 
    106 H106       24.8352  -34.1955  -43.6580 H         1 UNK         0.1106 
    107 H107       24.6646  -33.3691  -46.0285 H         1 UNK         0.0828 
    108 H108       24.0784  -35.0151  -45.8652 H         1 UNK         0.0828 
    109 H109       22.9285  -33.6946  -46.0062 H         1 UNK         0.0828 
    110 H110       21.8380  -33.0768  -42.7199 H         1 UNK         0.2931 
    111 H111       20.1246  -35.2733  -42.9435 H         1 UNK         0.0412 
    112 H112       22.7835  -35.0589  -40.6694 H         1 UNK         0.3472 
    113 H113       22.2220  -36.3447  -39.6289 H         1 UNK         0.3472 
    114 H114       19.9690  -33.0704  -40.8252 H         1 UNK         0.0970 
    115 H115       18.6567  -34.0755  -41.3863 H         1 UNK         0.0970 
    116 H116       16.8642  -32.8429  -42.8967 H         1 UNK         0.0612 
    117 H117       17.3644  -31.8212  -41.5647 H         1 UNK         0.0612 
@<TRIPOS>BOND
     1    1    2 1    
     2    1   62 1    
     3    1   63 1    
     4    1   64 1    
     5    2    3 2    
     6    2    4 am   BACKBONE|DICT|INTERRES
     7    4    5 1    
     8    4   65 1    
     9    5    6 1    
    10    5   25 1    
    11    5   66 1    
    12    6    7 1    
    13    6   67 1    
    14    6   68 1    
    15    7    8 1    
    16    8    9 1    
    17    8   69 1    
    18    8   70 1    
    19    9   10 ar   
    20    9   14 ar   
    21   10   11 ar   
    22   10   71 1    
    23   11   12 ar   
    24   11   61 1    
    25   12   13 ar   
    26   12   72 1    
    27   13   14 ar   
    28   13   15 1    
    29   14   73 1    
    30   15   16 1    
    31   15   74 1    
    32   15   75 1    
    33   16   17 1    
    34   17   18 1    
    35   17   76 1    
    36   17   77 1    
    37   18   19 1    
    38   18   27 1    
    39   18   78 1    
    40   19   20 am   BACKBONE|DICT|INTERRES
    41   19   79 1    
    42   20   21 2    
    43   20   22 1    
    44   22   23 1    
    45   22   24 1    
    46   22   80 1    
    47   23   81 1    
    48   23   82 1    
    49   23   83 1    
    50   24   25 am   BACKBONE|DICT|INTERRES
    51   24   84 1    
    52   25   26 2    
    53   27   28 2    
    54   27   29 am   BACKBONE|DICT|INTERRES
    55   29   30 1    
    56   29   85 1    
    57   30   31 1    
    58   30   32 1    
    59   30   86 1    
    60   31   87 1    
    61   31   88 1    
    62   31   89 1    
    63   32   33 2    
    64   32   34 am   BACKBONE|DICT|INTERRES
    65   34   35 1    
    66   34   90 1    
    67   35   36 1    
    68   35   37 1    
    69   35   91 1    
    70   36   92 1    
    71   36   93 1    
    72   36   94 1    
    73   37   38 2    
    74   37   39 am   BACKBONE|DICT|INTERRES
    75   39   40 1    
    76   39   95 1    
    77   40   41 1    
    78   40   42 1    
    79   40   96 1    
    80   41   97 1    
    81   41   98 1    
    82   41   99 1    
    83   42   43 2    
    84   42   44 am   BACKBONE|DICT|INTERRES
    85   44   45 1    
    86   44  100 1    
    87   45   46 1    
    88   45   47 1    
    89   45  101 1    
    90   46  102 1    
    91   46  103 1    
    92   46  104 1    
    93   47   48 2    
    94   47   49 am   BACKBONE|DICT|INTERRES
    95   49   50 1    
    96   49  105 1    
    97   50   51 1    
    98   50   52 1    
    99   50  106 1    
   100   51  107 1    
   101   51  108 1    
   102   51  109 1    
   103   52   53 2    
   104   52   54 am   BACKBONE|DICT|INTERRES
   105   54   55 1    
   106   54  110 1    
   107   55   56 1    
   108   55   59 1    
   109   55  111 1    
   110   56   57 am   BACKBONE|DICT|INTERRES
   111   56   58 2    
   112   57  112 1    
   113   57  113 1    
   114   59   60 1    
   115   59  114 1    
   116   59  115 1    
   117   60   61 1    
   118   61  116 1    
   119   61  117 1    
@<TRIPOS>SUBSTRUCTURE
     1 UNK         1 GROUP             0       ****    0 ROOT    
