@<TRIPOS>MOLECULE
3R8
117   119    1
SMALL
USER_CHARGES


@<TRIPOS>ATOM
      1 CA         15.5410  -21.9699  -44.0495 C.3       0 UNK        -0.2013 
      2 C          16.0806  -23.0223  -45.0061 C.2       0 UNK         0.4866 
      3 O          16.4717  -22.6906  -46.1253 O.2       0 UNK        -0.5176 
      4 N          16.1049  -24.2902  -44.5750 N.am      1 UNK        -0.4884 
      5 CA         16.5991  -25.4376  -45.3485 C.3       1 UNK         0.0853 
      6 C6         16.0470  -26.7908  -44.8199 C.3       10 UNK        -0.0849 
      7 S7         15.9932  -26.9741  -42.9983 S.3       10 UNK        -0.2776 
      8 C8         17.6600  -27.5653  -42.5662 C.3       10 UNK         0.0316 
      9 C9         17.9699  -28.9463  -43.1257 C.ar      10 UNK        -0.0863 
     10 C10        17.6008  -30.0970  -42.4243 C.ar      10 UNK        -0.1009 
     11 C11        17.9240  -31.3670  -42.9131 C.ar      10 UNK        -0.0712 
     12 C12        18.6061  -31.4701  -44.1334 C.ar      10 UNK        -0.0894 
     13 C13        18.9980  -30.3304  -44.8411 C.ar      10 UNK        -0.0745 
     14 C14        18.6672  -29.0715  -44.3284 C.ar      10 UNK        -0.0972 
     15 C15        19.7679  -30.5084  -46.1525 C.3       10 UNK         0.0209 
     16 S16        20.7610  -29.0729  -46.6960 S.3       10 UNK        -0.2568 
     17 C17        21.9375  -28.9055  -45.3129 C.3       10 UNK        -0.0983 
     18 CA         22.7235  -27.5662  -45.3501 C.3       3 UNK         0.0876 
     19 N          21.8631  -26.3699  -45.3897 N.am      3 UNK        -0.4424 
     20 C          21.0720  -25.9116  -44.4075 C.2       2 UNK         0.4918 
     21 O          20.9572  -26.4582  -43.3097 O.2       2 UNK        -0.4875 
     22 CA         20.3272  -24.5816  -44.6474 C.3       2 UNK         0.0481 
     23 CB         20.8006  -23.7986  -45.8939 C.3       2 UNK        -0.1831 
     24 N          18.8691  -24.7448  -44.6532 N.am      2 UNK        -0.4498 
     25 C          18.1348  -25.4572  -45.5231 C.2       1 UNK         0.5027 
     26 O          18.6149  -26.1000  -46.4566 O.2       1 UNK        -0.4969 
     27 C          23.7682  -27.4762  -44.2146 C.2       3 UNK         0.5005 
     28 O          23.9459  -28.4357  -43.4619 O.2       3 UNK        -0.5279 
     29 N          24.3991  -26.2968  -44.0819 N.am      4 UNK        -0.4463 
     30 CA         25.3449  -25.9195  -43.0210 C.3       4 UNK         0.0283 
     31 CB         26.6830  -26.6691  -43.1918 C.3       4 UNK        -0.1875 
     32 C          24.7380  -26.0634  -41.6087 C.2       4 UNK         0.4949 
     33 O          25.3848  -26.5978  -40.7073 O.2       4 UNK        -0.5039 
     34 N          23.4899  -25.5884  -41.4695 N.am      5 UNK        -0.4663 
     35 CA         22.6180  -25.6869  -40.2927 C.3       5 UNK         0.0242 
     36 CB         23.1947  -24.8885  -39.1029 C.3       5 UNK        -0.1982 
     37 C          22.2824  -27.1501  -39.9446 C.2       5 UNK         0.5017 
     38 O          22.4759  -27.5721  -38.8029 O.2       5 UNK        -0.5012 
     39 N          21.7817  -27.8842  -40.9509 N.am      6 UNK        -0.4439 
     40 CA         21.3804  -29.2957  -40.9128 C.3       6 UNK         0.0297 
     41 CB         20.1260  -29.4756  -40.0307 C.3       6 UNK        -0.2006 
     42 C          22.5275  -30.2359  -40.4941 C.2       6 UNK         0.4892 
     43 O          22.3404  -31.0695  -39.6042 O.2       6 UNK        -0.5089 
     44 N          23.6990  -30.0883  -41.1309 N.am      7 UNK        -0.4243 
     45 CA         24.8857  -30.9106  -40.8757 C.3       7 UNK         0.0196 
     46 CB         26.0691  -30.3875  -41.7020 C.3       7 UNK        -0.2007 
     47 C          24.6139  -32.3932  -41.1755 C.2       7 UNK         0.5020 
     48 O          24.1076  -32.7113  -42.2533 O.2       7 UNK        -0.5147 
     49 N          24.8923  -33.2578  -40.1897 N.am      8 UNK        -0.4734 
     50 CA         24.5994  -34.7008  -40.1159 C.3       8 UNK         0.0238 
     51 CB         25.2948  -35.4809  -41.2493 C.3       8 UNK        -0.1912 
     52 C          23.0989  -35.0556  -40.0375 C.2       8 UNK         0.5038 
     53 O          22.7524  -36.0270  -39.3642 O.2       8 UNK        -0.5046 
     54 N          22.2448  -34.2774  -40.7106 N.am      9 UNK        -0.4200 
     55 CA         20.7816  -34.3915  -40.7100 C.3       9 UNK         0.0839 
     56 C          20.1298  -34.0919  -39.3305 C.2       9 UNK         0.5513 
     57 N          20.6089  -33.1026  -38.5868 N.am      9 UNK        -0.7519 
     58 O          19.1926  -34.7740  -38.9246 O.2       9 UNK        -0.4960 
     59 C59        20.1752  -33.5211  -41.8396 C.3       10 UNK        -0.0876 
     60 S60        18.5276  -34.0914  -42.3787 S.3       10 UNK        -0.2414 
     61 C61        17.5123  -32.5973  -42.1002 C.3       10 UNK         0.0169 
     62 H62        16.3049  -21.2196  -43.8472 H         1 UNK         0.0903 
     63 H63        14.6796  -21.4689  -44.4905 H         1 UNK         0.0903 
     64 H64        15.2307  -22.4031  -43.0987 H         1 UNK         0.0903 
     65 H65        15.7619  -24.5168  -43.6506 H         1 UNK         0.3096 
     66 H66        16.2106  -25.3212  -46.3634 H         1 UNK         0.1121 
     67 H67        16.5564  -27.6411  -45.2746 H         1 UNK         0.0849 
     68 H68        15.0137  -26.8859  -45.1569 H         1 UNK         0.0849 
     69 H69        18.4041  -26.8428  -42.8960 H         1 UNK         0.0865 
     70 H70        17.7371  -27.5861  -41.4791 H         1 UNK         0.0865 
     71 H71        17.0683  -30.0013  -41.4877 H         1 UNK         0.1346 
     72 H72        18.8479  -32.4426  -44.5379 H         1 UNK         0.1412 
     73 H73        18.9623  -28.1788  -44.8587 H         1 UNK         0.1426 
     74 H74        19.0524  -30.7473  -46.9401 H         1 UNK         0.0716 
     75 H75        20.4362  -31.3672  -46.0708 H         1 UNK         0.0716 
     76 H76        22.6234  -29.7534  -45.3615 H         1 UNK         0.0695 
     77 H77        21.4053  -29.0010  -44.3663 H         1 UNK         0.0695 
     78 H78        23.2995  -27.5571  -46.2769 H         1 UNK         0.0983 
     79 H79        21.8677  -25.8630  -46.2629 H         1 UNK         0.3095 
     80 H80        20.5512  -23.9600  -43.7794 H         1 UNK         0.0454 
     81 H81        20.2993  -22.8327  -45.9574 H         1 UNK         0.0851 
     82 H82        20.5985  -24.3296  -46.8246 H         1 UNK         0.0851 
     83 H83        21.8714  -23.5950  -45.8512 H         1 UNK         0.0851 
     84 H84        18.3715  -24.2676  -43.9149 H         1 UNK         0.2976 
     85 H85        24.1759  -25.5690  -44.7468 H         1 UNK         0.3116 
     86 H86        25.5498  -24.8558  -43.1512 H         1 UNK         0.0646 
     87 H87        26.5590  -27.7472  -43.0990 H         1 UNK         0.0847 
     88 H88        27.1255  -26.4691  -44.1675 H         1 UNK         0.0847 
     89 H89        27.4084  -26.3575  -42.4393 H         1 UNK         0.0847 
     90 H90        23.0535  -25.1995  -42.2930 H         1 UNK         0.3040 
     91 H91        21.6715  -25.2189  -40.5695 H         1 UNK         0.1015 
     92 H92        22.4914  -24.8717  -38.2695 H         1 UNK         0.0786 
     93 H93        23.3939  -23.8532  -39.3792 H         1 UNK         0.0786 
     94 H94        24.1240  -25.3217  -38.7319 H         1 UNK         0.0786 
     95 H95        21.6474  -27.4210  -41.8478 H         1 UNK         0.3172 
     96 H96        21.1097  -29.5666  -41.9345 H         1 UNK         0.0595 
     97 H97        20.3444  -29.3050  -38.9760 H         1 UNK         0.0839 
     98 H98        19.7267  -30.4864  -40.1191 H         1 UNK         0.0839 
     99 H99        19.3343  -28.7881  -40.3192 H         1 UNK         0.0839 
    100 H100       23.7676  -29.4129  -41.8908 H         1 UNK         0.2998 
    101 H101       25.1355  -30.8014  -39.8184 H         1 UNK         0.0822 
    102 H102       26.9602  -30.9957  -41.5417 H         1 UNK         0.0787 
    103 H103       26.3183  -29.3651  -41.4184 H         1 UNK         0.0787 
    104 H104       25.8503  -30.3988  -42.7707 H         1 UNK         0.0787 
    105 H105       25.2713  -32.8692  -39.3362 H         1 UNK         0.3055 
    106 H106       25.0367  -35.0393  -39.1747 H         1 UNK         0.1106 
    107 H107       24.8873  -35.2322  -42.2295 H         1 UNK         0.0828 
    108 H108       26.3660  -35.2807  -41.2701 H         1 UNK         0.0828 
    109 H109       25.1690  -36.5558  -41.1131 H         1 UNK         0.0828 
    110 H110       22.6459  -33.5230  -41.2571 H         1 UNK         0.2931 
    111 H111       20.5661  -35.4361  -40.9442 H         1 UNK         0.0412 
    112 H112       21.3452  -32.4933  -38.9371 H         1 UNK         0.3472 
    113 H113       20.1941  -32.9170  -37.6881 H         1 UNK         0.3472 
    114 H114       20.1468  -32.4699  -41.5475 H         1 UNK         0.0970 
    115 H115       20.8142  -33.5586  -42.7236 H         1 UNK         0.0970 
    116 H116       17.5412  -32.3641  -41.0344 H         1 UNK         0.0612 
    117 H117       16.4752  -32.8361  -42.3380 H         1 UNK         0.0612 
@<TRIPOS>BOND
     1    1    2 1    
     2    1   62 1    
     3    1   63 1    
     4    1   64 1    
     5    2    3 2    
     6    2    4 am   BACKBONE|DICT|INTERRES
     7    4    5 1    
     8    4   65 1    
     9    5    6 1    
    10    5   25 1    
    11    5   66 1    
    12    6    7 1    
    13    6   67 1    
    14    6   68 1    
    15    7    8 1    
    16    8    9 1    
    17    8   69 1    
    18    8   70 1    
    19    9   10 ar   
    20    9   14 ar   
    21   10   11 ar   
    22   10   71 1    
    23   11   12 ar   
    24   11   61 1    
    25   12   13 ar   
    26   12   72 1    
    27   13   14 ar   
    28   13   15 1    
    29   14   73 1    
    30   15   16 1    
    31   15   74 1    
    32   15   75 1    
    33   16   17 1    
    34   17   18 1    
    35   17   76 1    
    36   17   77 1    
    37   18   19 1    
    38   18   27 1    
    39   18   78 1    
    40   19   20 am   BACKBONE|DICT|INTERRES
    41   19   79 1    
    42   20   21 2    
    43   20   22 1    
    44   22   23 1    
    45   22   24 1    
    46   22   80 1    
    47   23   81 1    
    48   23   82 1    
    49   23   83 1    
    50   24   25 am   BACKBONE|DICT|INTERRES
    51   24   84 1    
    52   25   26 2    
    53   27   28 2    
    54   27   29 am   BACKBONE|DICT|INTERRES
    55   29   30 1    
    56   29   85 1    
    57   30   31 1    
    58   30   32 1    
    59   30   86 1    
    60   31   87 1    
    61   31   88 1    
    62   31   89 1    
    63   32   33 2    
    64   32   34 am   BACKBONE|DICT|INTERRES
    65   34   35 1    
    66   34   90 1    
    67   35   36 1    
    68   35   37 1    
    69   35   91 1    
    70   36   92 1    
    71   36   93 1    
    72   36   94 1    
    73   37   38 2    
    74   37   39 am   BACKBONE|DICT|INTERRES
    75   39   40 1    
    76   39   95 1    
    77   40   41 1    
    78   40   42 1    
    79   40   96 1    
    80   41   97 1    
    81   41   98 1    
    82   41   99 1    
    83   42   43 2    
    84   42   44 am   BACKBONE|DICT|INTERRES
    85   44   45 1    
    86   44  100 1    
    87   45   46 1    
    88   45   47 1    
    89   45  101 1    
    90   46  102 1    
    91   46  103 1    
    92   46  104 1    
    93   47   48 2    
    94   47   49 am   BACKBONE|DICT|INTERRES
    95   49   50 1    
    96   49  105 1    
    97   50   51 1    
    98   50   52 1    
    99   50  106 1    
   100   51  107 1    
   101   51  108 1    
   102   51  109 1    
   103   52   53 2    
   104   52   54 am   BACKBONE|DICT|INTERRES
   105   54   55 1    
   106   54  110 1    
   107   55   56 1    
   108   55   59 1    
   109   55  111 1    
   110   56   57 am   BACKBONE|DICT|INTERRES
   111   56   58 2    
   112   57  112 1    
   113   57  113 1    
   114   59   60 1    
   115   59  114 1    
   116   59  115 1    
   117   60   61 1    
   118   61  116 1    
   119   61  117 1    
@<TRIPOS>SUBSTRUCTURE
     1 UNK         1 GROUP             0       ****    0 ROOT    
