@<TRIPOS>MOLECULE
3R8
117   119    1
SMALL
USER_CHARGES


@<TRIPOS>ATOM
      1 CA         14.0627  -23.0368  -45.0062 C.3       0 UNK        -0.2013 
      2 C          15.4391  -23.5019  -45.4574 C.2       0 UNK         0.4866 
      3 O          16.3993  -22.7359  -45.3773 O.2       0 UNK        -0.5176 
      4 N          15.5367  -24.7475  -45.9387 N.am      1 UNK        -0.4884 
      5 CA         16.7776  -25.4058  -46.3630 C.3       1 UNK         0.0853 
      6 C6         16.4961  -26.6807  -47.2031 C.3       10 UNK        -0.0849 
      7 S7         15.2719  -27.8263  -46.4589 S.3       10 UNK        -0.2776 
      8 C8         15.8386  -29.4503  -47.0548 C.3       10 UNK         0.0316 
      9 C9         17.0367  -29.9652  -46.2699 C.ar      10 UNK        -0.0863 
     10 C10        16.8522  -30.6814  -45.0826 C.ar      10 UNK        -0.1009 
     11 C11        17.9441  -31.1955  -44.3725 C.ar      10 UNK        -0.0712 
     12 C12        19.2367  -30.9638  -44.8642 C.ar      10 UNK        -0.0894 
     13 C13        19.4341  -30.2336  -46.0406 C.ar      10 UNK        -0.0745 
     14 C14        18.3311  -29.7517  -46.7458 C.ar      10 UNK        -0.0972 
     15 C15        20.8352  -29.9614  -46.5644 C.3       10 UNK         0.0209 
     16 S16        21.3986  -28.2895  -46.1150 S.3       10 UNK        -0.2568 
     17 C17        21.8644  -28.5450  -44.3734 C.3       10 UNK        -0.0983 
     18 CA         21.5738  -27.3237  -43.4621 C.3       3 UNK         0.0876 
     19 N          20.1610  -26.9043  -43.4653 N.am      3 UNK        -0.4424 
     20 C          19.1224  -27.5319  -42.8950 C.2       2 UNK         0.4918 
     21 O          19.2048  -28.6124  -42.3177 O.2       2 UNK        -0.4875 
     22 CA         17.7677  -26.8007  -42.8911 C.3       2 UNK         0.0481 
     23 CB         17.8124  -25.5605  -41.9767 C.3       2 UNK        -0.1831 
     24 N          17.2162  -26.4636  -44.2070 N.am      2 UNK        -0.4498 
     25 C          17.7116  -25.6655  -45.1625 C.2       1 UNK         0.5027 
     26 O          18.8077  -25.1049  -45.1037 O.2       1 UNK        -0.4969 
     27 C          22.1241  -27.5452  -42.0309 C.2       3 UNK         0.5005 
     28 O          22.9270  -28.4587  -41.8213 O.2       3 UNK        -0.5279 
     29 N          21.6659  -26.7183  -41.0765 N.am      4 UNK        -0.4463 
     30 CA         21.9031  -26.8232  -39.6334 C.3       4 UNK         0.0283 
     31 CB         21.2188  -25.6428  -38.9226 C.3       4 UNK        -0.1875 
     32 C          23.3954  -26.9033  -39.2718 C.2       4 UNK         0.4949 
     33 O          24.0918  -25.8893  -39.3372 O.2       4 UNK        -0.5039 
     34 N          23.8506  -28.1214  -38.9476 N.am      5 UNK        -0.4663 
     35 CA         25.2327  -28.5229  -38.6497 C.3       5 UNK         0.0242 
     36 CB         25.7731  -27.7848  -37.4063 C.3       5 UNK        -0.1982 
     37 C          26.2053  -28.4393  -39.8465 C.2       5 UNK         0.5017 
     38 O          27.4010  -28.6713  -39.6589 O.2       5 UNK        -0.5012 
     39 N          25.6938  -28.1463  -41.0497 N.am      6 UNK        -0.4439 
     40 CA         26.4203  -28.2546  -42.3162 C.3       6 UNK         0.0297 
     41 CB         25.8909  -27.2110  -43.3134 C.3       6 UNK        -0.2006 
     42 C          26.2779  -29.6773  -42.8779 C.2       6 UNK         0.4892 
     43 O          27.2556  -30.2362  -43.3764 O.2       6 UNK        -0.5089 
     44 N          25.0717  -30.2416  -42.7430 N.am      7 UNK        -0.4243 
     45 CA         24.7677  -31.6574  -42.9265 C.3       7 UNK         0.0196 
     46 CB         23.4739  -31.7688  -43.7576 C.3       7 UNK        -0.2007 
     47 C          24.6162  -32.3150  -41.5420 C.2       7 UNK         0.5020 
     48 O          24.9327  -31.7008  -40.5202 O.2       7 UNK        -0.5147 
     49 N          24.0999  -33.5514  -41.5188 N.am      8 UNK        -0.4734 
     50 CA         23.6880  -34.2434  -40.2889 C.3       8 UNK         0.0238 
     51 CB         23.4320  -35.7265  -40.6038 C.3       8 UNK        -0.1912 
     52 C          22.4468  -33.6089  -39.6266 C.2       8 UNK         0.5038 
     53 O          22.2310  -33.8069  -38.4302 O.2       8 UNK        -0.5046 
     54 N          21.6616  -32.8704  -40.4207 N.am      9 UNK        -0.4200 
     55 CA         20.5080  -32.0647  -40.0066 C.3       9 UNK         0.0839 
     56 C          20.8910  -30.9154  -39.0315 C.2       9 UNK         0.5513 
     57 N          19.9831  -30.5358  -38.1429 N.am      9 UNK        -0.7519 
     58 O          21.9770  -30.3425  -39.0928 O.2       9 UNK        -0.4960 
     59 C59        19.7623  -31.5057  -41.2452 C.3       10 UNK        -0.0876 
     60 S60        19.0950  -32.8260  -42.3167 S.3       10 UNK        -0.2414 
     61 C61        17.6612  -31.9966  -43.0963 C.3       10 UNK         0.0169 
     62 H62        14.0860  -22.7659  -43.9510 H         1 UNK         0.0903 
     63 H63        13.7571  -22.1600  -45.5766 H         1 UNK         0.0903 
     64 H64        13.3059  -23.8094  -45.1410 H         1 UNK         0.0903 
     65 H65        14.7122  -25.3314  -45.9797 H         1 UNK         0.3096 
     66 H66        17.3082  -24.7054  -47.0126 H         1 UNK         0.1121 
     67 H67        17.4290  -27.2024  -47.4142 H         1 UNK         0.0849 
     68 H68        16.1068  -26.3846  -48.1785 H         1 UNK         0.0849 
     69 H69        15.0153  -30.1609  -46.9674 H         1 UNK         0.0865 
     70 H70        16.0702  -29.3909  -48.1196 H         1 UNK         0.0865 
     71 H71        15.8490  -30.8507  -44.7152 H         1 UNK         0.1346 
     72 H72        20.0988  -31.3428  -44.3370 H         1 UNK         0.1412 
     73 H73        18.4875  -29.2071  -47.6666 H         1 UNK         0.1426 
     74 H74        21.5424  -30.7040  -46.1918 H         1 UNK         0.0716 
     75 H75        20.8426  -30.0543  -47.6515 H         1 UNK         0.0716 
     76 H76        22.9291  -28.7837  -44.3718 H         1 UNK         0.0695 
     77 H77        21.3561  -29.4229  -43.9777 H         1 UNK         0.0695 
     78 H78        22.1374  -26.4791  -43.8615 H         1 UNK         0.0983 
     79 H79        19.9465  -26.0557  -43.9839 H         1 UNK         0.3095 
     80 H80        17.0476  -27.4936  -42.4528 H         1 UNK         0.0454 
     81 H81        16.8219  -25.1201  -41.8622 H         1 UNK         0.0851 
     82 H82        18.1649  -25.8240  -40.9786 H         1 UNK         0.0851 
     83 H83        18.4761  -24.7868  -42.3635 H         1 UNK         0.0851 
     84 H84        16.3286  -26.9014  -44.4179 H         1 UNK         0.2976 
     85 H85        21.0356  -25.9860  -41.3667 H         1 UNK         0.3116 
     86 H86        21.4133  -27.7372  -39.2940 H         1 UNK         0.0646 
     87 H87        20.1412  -25.6487  -39.0862 H         1 UNK         0.0847 
     88 H88        21.3808  -25.6912  -37.8449 H         1 UNK         0.0847 
     89 H89        21.6069  -24.6830  -39.2662 H         1 UNK         0.0847 
     90 H90        23.1887  -28.8961  -39.0029 H         1 UNK         0.3040 
     91 H91        25.1756  -29.5845  -38.4023 H         1 UNK         0.1015 
     92 H92        25.9301  -26.7234  -37.5994 H         1 UNK         0.0786 
     93 H93        26.7311  -28.1999  -37.0909 H         1 UNK         0.0786 
     94 H94        25.0896  -27.8764  -36.5622 H         1 UNK         0.0786 
     95 H95        24.6859  -28.0326  -41.1123 H         1 UNK         0.3172 
     96 H96        27.4810  -28.0552  -42.1498 H         1 UNK         0.0595 
     97 H97        24.8412  -27.3720  -43.5571 H         1 UNK         0.0839 
     98 H98        26.4505  -27.2513  -44.2488 H         1 UNK         0.0839 
     99 H99        25.9918  -26.1999  -42.9184 H         1 UNK         0.0839 
    100 H100       24.3409  -29.6986  -42.2907 H         1 UNK         0.2998 
    101 H101       25.5791  -32.1610  -43.4560 H         1 UNK         0.0822 
    102 H102       23.5653  -31.2235  -44.6970 H         1 UNK         0.0787 
    103 H103       23.2464  -32.8031  -44.0166 H         1 UNK         0.0787 
    104 H104       22.6151  -31.3644  -43.2207 H         1 UNK         0.0787 
    105 H105       23.8945  -34.0141  -42.3932 H         1 UNK         0.3055 
    106 H106       24.5065  -34.1797  -39.5680 H         1 UNK         0.1106 
    107 H107       23.1521  -36.2734  -39.7022 H         1 UNK         0.0828 
    108 H108       22.6238  -35.8539  -41.3251 H         1 UNK         0.0828 
    109 H109       24.3235  -36.2071  -41.0072 H         1 UNK         0.0828 
    110 H110       21.9307  -32.7794  -41.3869 H         1 UNK         0.2931 
    111 H111       19.8305  -32.7353  -39.4741 H         1 UNK         0.0412 
    112 H112       19.0860  -30.9924  -38.0859 H         1 UNK         0.3472 
    113 H113       20.2046  -29.7890  -37.5039 H         1 UNK         0.3472 
    114 H114       20.4246  -30.8707  -41.8366 H         1 UNK         0.0970 
    115 H115       18.9359  -30.8687  -40.9251 H         1 UNK         0.0970 
    116 H116       17.1745  -31.3472  -42.3677 H         1 UNK         0.0612 
    117 H117       16.9357  -32.7739  -43.3403 H         1 UNK         0.0612 
@<TRIPOS>BOND
     1    1    2 1    
     2    1   62 1    
     3    1   63 1    
     4    1   64 1    
     5    2    3 2    
     6    2    4 am   BACKBONE|DICT|INTERRES
     7    4    5 1    
     8    4   65 1    
     9    5    6 1    
    10    5   25 1    
    11    5   66 1    
    12    6    7 1    
    13    6   67 1    
    14    6   68 1    
    15    7    8 1    
    16    8    9 1    
    17    8   69 1    
    18    8   70 1    
    19    9   10 ar   
    20    9   14 ar   
    21   10   11 ar   
    22   10   71 1    
    23   11   12 ar   
    24   11   61 1    
    25   12   13 ar   
    26   12   72 1    
    27   13   14 ar   
    28   13   15 1    
    29   14   73 1    
    30   15   16 1    
    31   15   74 1    
    32   15   75 1    
    33   16   17 1    
    34   17   18 1    
    35   17   76 1    
    36   17   77 1    
    37   18   19 1    
    38   18   27 1    
    39   18   78 1    
    40   19   20 am   BACKBONE|DICT|INTERRES
    41   19   79 1    
    42   20   21 2    
    43   20   22 1    
    44   22   23 1    
    45   22   24 1    
    46   22   80 1    
    47   23   81 1    
    48   23   82 1    
    49   23   83 1    
    50   24   25 am   BACKBONE|DICT|INTERRES
    51   24   84 1    
    52   25   26 2    
    53   27   28 2    
    54   27   29 am   BACKBONE|DICT|INTERRES
    55   29   30 1    
    56   29   85 1    
    57   30   31 1    
    58   30   32 1    
    59   30   86 1    
    60   31   87 1    
    61   31   88 1    
    62   31   89 1    
    63   32   33 2    
    64   32   34 am   BACKBONE|DICT|INTERRES
    65   34   35 1    
    66   34   90 1    
    67   35   36 1    
    68   35   37 1    
    69   35   91 1    
    70   36   92 1    
    71   36   93 1    
    72   36   94 1    
    73   37   38 2    
    74   37   39 am   BACKBONE|DICT|INTERRES
    75   39   40 1    
    76   39   95 1    
    77   40   41 1    
    78   40   42 1    
    79   40   96 1    
    80   41   97 1    
    81   41   98 1    
    82   41   99 1    
    83   42   43 2    
    84   42   44 am   BACKBONE|DICT|INTERRES
    85   44   45 1    
    86   44  100 1    
    87   45   46 1    
    88   45   47 1    
    89   45  101 1    
    90   46  102 1    
    91   46  103 1    
    92   46  104 1    
    93   47   48 2    
    94   47   49 am   BACKBONE|DICT|INTERRES
    95   49   50 1    
    96   49  105 1    
    97   50   51 1    
    98   50   52 1    
    99   50  106 1    
   100   51  107 1    
   101   51  108 1    
   102   51  109 1    
   103   52   53 2    
   104   52   54 am   BACKBONE|DICT|INTERRES
   105   54   55 1    
   106   54  110 1    
   107   55   56 1    
   108   55   59 1    
   109   55  111 1    
   110   56   57 am   BACKBONE|DICT|INTERRES
   111   56   58 2    
   112   57  112 1    
   113   57  113 1    
   114   59   60 1    
   115   59  114 1    
   116   59  115 1    
   117   60   61 1    
   118   61  116 1    
   119   61  117 1    
@<TRIPOS>SUBSTRUCTURE
     1 UNK         1 GROUP             0       ****    0 ROOT    
