@<TRIPOS>MOLECULE
3R8
117   119    1
SMALL
USER_CHARGES


@<TRIPOS>ATOM
      1 CA         22.3101  -29.4990  -49.1645 C.3       0 UNK        -0.2013 
      2 C          21.0805  -29.2058  -48.3184 C.2       0 UNK         0.4866 
      3 O          20.2494  -30.0916  -48.1177 O.2       0 UNK        -0.5176 
      4 N          20.9608  -27.9727  -47.8168 N.am      1 UNK        -0.4884 
      5 CA         19.8827  -27.5289  -46.9389 C.3       1 UNK         0.0853 
      6 C6         18.7229  -26.8815  -47.7338 C.3       10 UNK        -0.0849 
      7 S7         17.3034  -26.3873  -46.6948 S.3       10 UNK        -0.2776 
      8 C8         16.2712  -27.8864  -46.7044 C.3       10 UNK         0.0316 
      9 C9         16.2808  -28.5806  -45.3500 C.ar      10 UNK        -0.0863 
     10 C10        17.0928  -29.6969  -45.1247 C.ar      10 UNK        -0.1009 
     11 C11        17.0466  -30.3700  -43.8990 C.ar      10 UNK        -0.0712 
     12 C12        16.1686  -29.9279  -42.9051 C.ar      10 UNK        -0.0894 
     13 C13        15.3899  -28.7837  -43.0987 C.ar      10 UNK        -0.0745 
     14 C14        15.4452  -28.1196  -44.3276 C.ar      10 UNK        -0.0972 
     15 C15        14.4846  -28.2666  -41.9862 C.3       10 UNK         0.0209 
     16 S16        15.3745  -27.9804  -40.4173 S.3       10 UNK        -0.2568 
     17 C17        16.6602  -26.7813  -40.9109 C.3       10 UNK        -0.0983 
     18 CA         18.0553  -27.4456  -41.0481 C.3       3 UNK         0.0876 
     19 N          18.9423  -26.6659  -41.9166 N.am      3 UNK        -0.4424 
     20 C          20.1872  -27.0074  -42.2735 C.2       2 UNK         0.4918 
     21 O          20.7990  -27.9790  -41.8267 O.2       2 UNK        -0.4875 
     22 CA         20.7845  -26.2121  -43.4377 C.3       2 UNK         0.0481 
     23 CB         22.3253  -26.1254  -43.3706 C.3       2 UNK        -0.1831 
     24 N          20.3335  -26.9267  -44.6258 N.am      2 UNK        -0.4498 
     25 C          20.5071  -26.5820  -45.9042 C.2       1 UNK         0.5027 
     26 O          21.1262  -25.5865  -46.2870 O.2       1 UNK        -0.4969 
     27 C          18.6911  -27.7815  -39.6819 C.2       3 UNK         0.5005 
     28 O          18.8325  -26.8928  -38.8384 O.2       3 UNK        -0.5279 
     29 N          19.0791  -29.0567  -39.5206 N.am      4 UNK        -0.4463 
     30 CA         19.7365  -29.6552  -38.3533 C.3       4 UNK         0.0283 
     31 CB         18.7850  -29.6630  -37.1379 C.3       4 UNK        -0.1875 
     32 C          21.1185  -29.0522  -38.0203 C.2       4 UNK         0.4949 
     33 O          21.5608  -29.1608  -36.8752 O.2       4 UNK        -0.5039 
     34 N          21.7874  -28.4487  -39.0115 N.am      5 UNK        -0.4663 
     35 CA         23.1314  -27.8858  -38.8895 C.3       5 UNK         0.0242 
     36 CB         23.1267  -26.4665  -39.4735 C.3       5 UNK        -0.1982 
     37 C          24.1307  -28.7688  -39.6452 C.2       5 UNK         0.5017 
     38 O          23.7621  -29.4056  -40.6357 O.2       5 UNK        -0.5012 
     39 N          25.3913  -28.7593  -39.1904 N.am      6 UNK        -0.4439 
     40 CA         26.4964  -29.5917  -39.6897 C.3       6 UNK         0.0297 
     41 CB         27.7350  -29.3571  -38.8090 C.3       6 UNK        -0.2006 
     42 C          26.8543  -29.4051  -41.1780 C.2       6 UNK         0.4892 
     43 O          27.5256  -30.2681  -41.7447 O.2       6 UNK        -0.5089 
     44 N          26.3967  -28.3029  -41.7868 N.am      7 UNK        -0.4243 
     45 CA         26.4846  -28.0402  -43.2240 C.3       7 UNK         0.0196 
     46 CB         26.1806  -26.5546  -43.4788 C.3       7 UNK        -0.2007 
     47 C          25.5651  -28.9409  -44.0745 C.2       7 UNK         0.5020 
     48 O          25.7951  -29.0458  -45.2799 O.2       7 UNK        -0.5147 
     49 N          24.5543  -29.5702  -43.4594 N.am      8 UNK        -0.4734 
     50 CA         23.6381  -30.5045  -44.1071 C.3       8 UNK         0.0238 
     51 CB         22.4220  -29.7451  -44.6802 C.3       8 UNK        -0.1912 
     52 C          23.2890  -31.6351  -43.1254 C.2       8 UNK         0.5038 
     53 O          24.1760  -32.4097  -42.7643 O.2       8 UNK        -0.5046 
     54 N          22.0103  -31.7373  -42.7478 N.am      9 UNK        -0.4200 
     55 CA         21.4215  -32.8158  -41.9396 C.3       9 UNK         0.0839 
     56 C          21.7291  -32.7901  -40.4143 C.2       9 UNK         0.5513 
     57 N          22.4379  -31.8079  -39.8795 N.am      9 UNK        -0.7519 
     58 O          21.3276  -33.7020  -39.6959 O.2       9 UNK        -0.4960 
     59 C59        19.9039  -32.9688  -42.2336 C.3       10 UNK        -0.0876 
     60 S60        18.9739  -31.3947  -42.1760 S.3       10 UNK        -0.2414 
     61 C61        17.9247  -31.5883  -43.6543 C.3       10 UNK         0.0169 
     62 H62        22.8988  -30.2934  -48.7063 H         1 UNK         0.0903 
     63 H63        22.0112  -29.8263  -50.1600 H         1 UNK         0.0903 
     64 H64        22.9494  -28.6230  -49.2732 H         1 UNK         0.0903 
     65 H65        21.6810  -27.2800  -47.9800 H         1 UNK         0.3096 
     66 H66        19.4842  -28.3950  -46.4064 H         1 UNK         0.1121 
     67 H67        18.3778  -27.5628  -48.5129 H         1 UNK         0.0849 
     68 H68        19.0783  -25.9945  -48.2620 H         1 UNK         0.0849 
     69 H69        16.5888  -28.5754  -47.4882 H         1 UNK         0.0865 
     70 H70        15.2484  -27.6028  -46.9578 H         1 UNK         0.0865 
     71 H71        17.7452  -30.0538  -45.9104 H         1 UNK         0.1346 
     72 H72        16.1196  -30.4546  -41.9616 H         1 UNK         0.1412 
     73 H73        14.8306  -27.2455  -44.4959 H         1 UNK         0.1426 
     74 H74        13.6896  -28.9928  -41.8126 H         1 UNK         0.0716 
     75 H75        13.9941  -27.3383  -42.2834 H         1 UNK         0.0716 
     76 H76        16.6800  -25.9615  -40.1904 H         1 UNK         0.0695 
     77 H77        16.3592  -26.3317  -41.8585 H         1 UNK         0.0695 
     78 H78        17.9166  -28.3864  -41.5810 H         1 UNK         0.0983 
     79 H79        18.5278  -25.8540  -42.3497 H         1 UNK         0.3095 
     80 H80        20.3667  -25.2036  -43.4498 H         1 UNK         0.0454 
     81 H81        22.7915  -27.1040  -43.2541 H         1 UNK         0.0851 
     82 H82        22.6347  -25.5080  -42.5289 H         1 UNK         0.0851 
     83 H83        22.7508  -25.6631  -44.2601 H         1 UNK         0.0851 
     84 H84        19.7972  -27.7595  -44.4215 H         1 UNK         0.2976 
     85 H85        18.9678  -29.6825  -40.3086 H         1 UNK         0.3116 
     86 H86        19.9270  -30.6946  -38.6243 H         1 UNK         0.0646 
     87 H87        18.6010  -28.6559  -36.7627 H         1 UNK         0.0847 
     88 H88        19.2031  -30.2442  -36.3152 H         1 UNK         0.0847 
     89 H89        17.8228  -30.1088  -37.3893 H         1 UNK         0.0847 
     90 H90        21.3911  -28.4460  -39.9474 H         1 UNK         0.3040 
     91 H91        23.4323  -27.8306  -37.8410 H         1 UNK         0.1015 
     92 H92        22.8606  -26.4783  -40.5281 H         1 UNK         0.0786 
     93 H93        24.1067  -25.9961  -39.3847 H         1 UNK         0.0786 
     94 H94        22.4101  -25.8284  -38.9558 H         1 UNK         0.0786 
     95 H95        25.6043  -28.1800  -38.3904 H         1 UNK         0.3172 
     96 H96        26.1889  -30.6329  -39.5719 H         1 UNK         0.0595 
     97 H97        27.5341  -29.5982  -37.7649 H         1 UNK         0.0839 
     98 H98        28.0744  -28.3216  -38.8576 H         1 UNK         0.0839 
     99 H99        28.5673  -29.9867  -39.1274 H         1 UNK         0.0839 
    100 H100       25.8583  -27.6506  -41.2367 H         1 UNK         0.2998 
    101 H101       27.5103  -28.2373  -43.5431 H         1 UNK         0.0822 
    102 H102       26.2266  -26.3216  -44.5436 H         1 UNK         0.0787 
    103 H103       25.1868  -26.2792  -43.1269 H         1 UNK         0.0787 
    104 H104       26.9036  -25.9112  -42.9770 H         1 UNK         0.0787 
    105 H105       24.4342  -29.4654  -42.4541 H         1 UNK         0.3055 
    106 H106       24.1513  -30.9903  -44.9403 H         1 UNK         0.1106 
    107 H107       21.7462  -30.4182  -45.2100 H         1 UNK         0.0828 
    108 H108       21.8532  -29.2455  -43.8977 H         1 UNK         0.0828 
    109 H109       22.7367  -28.9843  -45.3946 H         1 UNK         0.0828 
    110 H110       21.3607  -31.0222  -43.0395 H         1 UNK         0.2931 
    111 H111       21.8890  -33.7402  -42.2846 H         1 UNK         0.0412 
    112 H112       22.8050  -31.0465  -40.4415 H         1 UNK         0.3472 
    113 H113       22.6373  -31.8389  -38.8937 H         1 UNK         0.3472 
    114 H114       19.7903  -33.4080  -43.2257 H         1 UNK         0.0970 
    115 H115       19.4322  -33.6823  -41.5552 H         1 UNK         0.0970 
    116 H116       17.2893  -32.4666  -43.5326 H         1 UNK         0.0612 
    117 H117       18.5631  -31.7777  -44.5190 H         1 UNK         0.0612 
@<TRIPOS>BOND
     1    1    2 1    
     2    1   62 1    
     3    1   63 1    
     4    1   64 1    
     5    2    3 2    
     6    2    4 am   BACKBONE|DICT|INTERRES
     7    4    5 1    
     8    4   65 1    
     9    5    6 1    
    10    5   25 1    
    11    5   66 1    
    12    6    7 1    
    13    6   67 1    
    14    6   68 1    
    15    7    8 1    
    16    8    9 1    
    17    8   69 1    
    18    8   70 1    
    19    9   10 ar   
    20    9   14 ar   
    21   10   11 ar   
    22   10   71 1    
    23   11   12 ar   
    24   11   61 1    
    25   12   13 ar   
    26   12   72 1    
    27   13   14 ar   
    28   13   15 1    
    29   14   73 1    
    30   15   16 1    
    31   15   74 1    
    32   15   75 1    
    33   16   17 1    
    34   17   18 1    
    35   17   76 1    
    36   17   77 1    
    37   18   19 1    
    38   18   27 1    
    39   18   78 1    
    40   19   20 am   BACKBONE|DICT|INTERRES
    41   19   79 1    
    42   20   21 2    
    43   20   22 1    
    44   22   23 1    
    45   22   24 1    
    46   22   80 1    
    47   23   81 1    
    48   23   82 1    
    49   23   83 1    
    50   24   25 am   BACKBONE|DICT|INTERRES
    51   24   84 1    
    52   25   26 2    
    53   27   28 2    
    54   27   29 am   BACKBONE|DICT|INTERRES
    55   29   30 1    
    56   29   85 1    
    57   30   31 1    
    58   30   32 1    
    59   30   86 1    
    60   31   87 1    
    61   31   88 1    
    62   31   89 1    
    63   32   33 2    
    64   32   34 am   BACKBONE|DICT|INTERRES
    65   34   35 1    
    66   34   90 1    
    67   35   36 1    
    68   35   37 1    
    69   35   91 1    
    70   36   92 1    
    71   36   93 1    
    72   36   94 1    
    73   37   38 2    
    74   37   39 am   BACKBONE|DICT|INTERRES
    75   39   40 1    
    76   39   95 1    
    77   40   41 1    
    78   40   42 1    
    79   40   96 1    
    80   41   97 1    
    81   41   98 1    
    82   41   99 1    
    83   42   43 2    
    84   42   44 am   BACKBONE|DICT|INTERRES
    85   44   45 1    
    86   44  100 1    
    87   45   46 1    
    88   45   47 1    
    89   45  101 1    
    90   46  102 1    
    91   46  103 1    
    92   46  104 1    
    93   47   48 2    
    94   47   49 am   BACKBONE|DICT|INTERRES
    95   49   50 1    
    96   49  105 1    
    97   50   51 1    
    98   50   52 1    
    99   50  106 1    
   100   51  107 1    
   101   51  108 1    
   102   51  109 1    
   103   52   53 2    
   104   52   54 am   BACKBONE|DICT|INTERRES
   105   54   55 1    
   106   54  110 1    
   107   55   56 1    
   108   55   59 1    
   109   55  111 1    
   110   56   57 am   BACKBONE|DICT|INTERRES
   111   56   58 2    
   112   57  112 1    
   113   57  113 1    
   114   59   60 1    
   115   59  114 1    
   116   59  115 1    
   117   60   61 1    
   118   61  116 1    
   119   61  117 1    
@<TRIPOS>SUBSTRUCTURE
     1 UNK         1 GROUP             0       ****    0 ROOT    
