@<TRIPOS>MOLECULE
3R8
117   119    1
SMALL
USER_CHARGES


@<TRIPOS>ATOM
      1 CA         13.5357  -24.4475  -40.9175 C.3       0 UNK        -0.2013 
      2 C          14.8701  -24.5459  -41.6417 C.2       0 UNK         0.4866 
      3 O          15.8652  -23.9937  -41.1707 O.2       0 UNK        -0.5176 
      4 N          14.8957  -25.2341  -42.7893 N.am      1 UNK        -0.4884 
      5 CA         16.0974  -25.4983  -43.5867 C.3       1 UNK         0.0853 
      6 C6         15.7609  -25.8776  -45.0571 C.3       10 UNK        -0.0849 
      7 S7         14.3186  -26.9754  -45.3275 S.3       10 UNK        -0.2776 
      8 C8         14.8074  -28.5858  -44.6075 C.3       10 UNK         0.0316 
      9 C9         16.0655  -29.2453  -45.1780 C.ar      10 UNK        -0.0863 
     10 C10        16.6972  -30.2386  -44.4192 C.ar      10 UNK        -0.1009 
     11 C11        17.8021  -30.9311  -44.9226 C.ar      10 UNK        -0.0712 
     12 C12        18.2882  -30.6128  -46.1924 C.ar      10 UNK        -0.0894 
     13 C13        17.6955  -29.6007  -46.9480 C.ar      10 UNK        -0.0745 
     14 C14        16.5746  -28.9339  -46.4459 C.ar      10 UNK        -0.0972 
     15 C15        18.2543  -29.2414  -48.3152 C.3       10 UNK         0.0209 
     16 S16        19.4380  -27.8618  -48.2133 S.3       10 UNK        -0.2568 
     17 C17        20.9260  -28.6613  -47.5182 C.3       10 UNK        -0.0983 
     18 CA         21.3949  -27.9847  -46.2079 C.3       3 UNK         0.0876 
     19 N          20.4065  -28.0694  -45.1228 N.am      3 UNK        -0.4424 
     20 C          20.4769  -27.3425  -43.9989 C.2       2 UNK         0.4918 
     21 O          21.3722  -26.5312  -43.7638 O.2       2 UNK        -0.4875 
     22 CA         19.3277  -27.4948  -42.9987 C.3       2 UNK         0.0481 
     23 CB         19.7929  -27.2519  -41.5462 C.3       2 UNK        -0.1831 
     24 N          18.2910  -26.5453  -43.3819 N.am      2 UNK        -0.4498 
     25 C          17.0339  -26.5322  -42.9248 C.2       1 UNK         0.5027 
     26 O          16.6092  -27.2999  -42.0569 O.2       1 UNK        -0.4969 
     27 C          22.7869  -28.4960  -45.7794 C.2       3 UNK         0.5005 
     28 O          23.7877  -27.8490  -46.0933 O.2       3 UNK        -0.5279 
     29 N          22.8384  -29.6030  -45.0222 N.am      4 UNK        -0.4463 
     30 CA         24.0619  -30.1247  -44.4008 C.3       4 UNK         0.0283 
     31 CB         23.9924  -31.6597  -44.3186 C.3       4 UNK        -0.1875 
     32 C          24.2834  -29.4613  -43.0297 C.2       4 UNK         0.4949 
     33 O          24.3060  -30.1411  -42.0008 O.2       4 UNK        -0.5039 
     34 N          24.4154  -28.1277  -43.0453 N.am      5 UNK        -0.4663 
     35 CA         24.4751  -27.2399  -41.8778 C.3       5 UNK         0.0242 
     36 CB         24.6168  -25.7865  -42.3558 C.3       5 UNK        -0.1982 
     37 C          25.5786  -27.5740  -40.8608 C.2       5 UNK         0.5017 
     38 O          25.3758  -27.3543  -39.6671 O.2       5 UNK        -0.5012 
     39 N          26.6943  -28.1468  -41.3348 N.am      6 UNK        -0.4439 
     40 CA         27.8132  -28.6303  -40.5172 C.3       6 UNK         0.0297 
     41 CB         28.9511  -29.0918  -41.4418 C.3       6 UNK        -0.2006 
     42 C          27.4350  -29.7543  -39.5310 C.2       6 UNK         0.4892 
     43 O          28.0963  -29.8923  -38.5015 O.2       6 UNK        -0.5089 
     44 N          26.3802  -30.5158  -39.8505 N.am      7 UNK        -0.4243 
     45 CA         25.7920  -31.5541  -39.0010 C.3       7 UNK         0.0196 
     46 CB         25.7658  -32.8705  -39.7996 C.3       7 UNK        -0.2007 
     47 C          24.3757  -31.1640  -38.5357 C.2       7 UNK         0.5020 
     48 O          23.6410  -32.0309  -38.0591 O.2       7 UNK        -0.5147 
     49 N          23.9830  -29.8940  -38.7418 N.am      8 UNK        -0.4734 
     50 CA         22.6362  -29.3262  -38.5563 C.3       8 UNK         0.0238 
     51 CB         22.2794  -29.2627  -37.0567 C.3       8 UNK        -0.1912 
     52 C          21.5404  -30.0318  -39.3869 C.2       8 UNK         0.5038 
     53 O          20.3576  -29.9109  -39.0658 O.2       8 UNK        -0.5046 
     54 N          21.9582  -30.7638  -40.4282 N.am      9 UNK        -0.4200 
     55 CA         21.1608  -31.6881  -41.2410 C.3       9 UNK         0.0839 
     56 C          20.4473  -32.8206  -40.4398 C.2       9 UNK         0.5513 
     57 N          20.9814  -33.2371  -39.2963 N.am      9 UNK        -0.7519 
     58 O          19.4186  -33.3443  -40.8590 O.2       9 UNK        -0.4960 
     59 C59        20.2660  -30.9355  -42.2624 C.3       10 UNK        -0.0876 
     60 S60        20.2251  -31.7829  -43.8746 S.3       10 UNK        -0.2414 
     61 C61        18.4448  -32.0608  -44.1298 C.3       10 UNK         0.0169 
     62 H62        12.7415  -24.9672  -41.4533 H         1 UNK         0.0903 
     63 H63        13.2438  -23.4033  -40.8080 H         1 UNK         0.0903 
     64 H64        13.6162  -24.8853  -39.9229 H         1 UNK         0.0903 
     65 H65        14.0561  -25.6847  -43.1261 H         1 UNK         0.3096 
     66 H66        16.6644  -24.5644  -43.6187 H         1 UNK         0.1121 
     67 H67        15.5315  -24.9561  -45.5944 H         1 UNK         0.0849 
     68 H68        16.6291  -26.2831  -45.5788 H         1 UNK         0.0849 
     69 H69        14.8937  -28.4761  -43.5272 H         1 UNK         0.0865 
     70 H70        13.9780  -29.2770  -44.7617 H         1 UNK         0.0865 
     71 H71        16.3078  -30.4940  -43.4427 H         1 UNK         0.1346 
     72 H72        19.1309  -31.1608  -46.5907 H         1 UNK         0.1412 
     73 H73        16.0999  -28.1781  -47.0556 H         1 UNK         0.1426 
     74 H74        18.7324  -30.1055  -48.7793 H         1 UNK         0.0716 
     75 H75        17.4386  -28.9542  -48.9804 H         1 UNK         0.0716 
     76 H76        21.7063  -28.5918  -48.2788 H         1 UNK         0.0695 
     77 H77        20.7551  -29.7269  -47.3659 H         1 UNK         0.0695 
     78 H78        21.5242  -26.9222  -46.4286 H         1 UNK         0.0983 
     79 H79        19.6117  -28.6744  -45.2800 H         1 UNK         0.3095 
     80 H80        18.9240  -28.5051  -43.0836 H         1 UNK         0.0454 
     81 H81        19.0242  -27.5333  -40.8266 H         1 UNK         0.0851 
     82 H82        20.0459  -26.2052  -41.3740 H         1 UNK         0.0851 
     83 H83        20.6804  -27.8395  -41.3122 H         1 UNK         0.0851 
     84 H84        18.5651  -25.8811  -44.0940 H         1 UNK         0.2976 
     85 H85        21.9735  -30.0665  -44.7787 H         1 UNK         0.3116 
     86 H86        24.9250  -29.8763  -45.0220 H         1 UNK         0.0646 
     87 H87        24.9075  -32.0681  -43.8878 H         1 UNK         0.0847 
     88 H88        23.1655  -31.9995  -43.6990 H         1 UNK         0.0847 
     89 H89        23.8736  -32.1043  -45.3066 H         1 UNK         0.0847 
     90 H90        24.3650  -27.6740  -43.9503 H         1 UNK         0.3040 
     91 H91        23.5198  -27.3350  -41.3574 H         1 UNK         0.1015 
     92 H92        25.5373  -25.6350  -42.9210 H         1 UNK         0.0786 
     93 H93        24.6340  -25.0960  -41.5112 H         1 UNK         0.0786 
     94 H94        23.7811  -25.4939  -42.9917 H         1 UNK         0.0786 
     95 H95        26.7595  -28.2918  -42.3322 H         1 UNK         0.3172 
     96 H96        28.1745  -27.7870  -39.9249 H         1 UNK         0.0595 
     97 H97        28.6425  -29.9208  -42.0801 H         1 UNK         0.0839 
     98 H98        29.8112  -29.4307  -40.8624 H         1 UNK         0.0839 
     99 H99        29.2964  -28.2815  -42.0841 H         1 UNK         0.0839 
    100 H100       25.8805  -30.3217  -40.7133 H         1 UNK         0.2998 
    101 H101       26.3922  -31.7059  -38.1017 H         1 UNK         0.0822 
    102 H102       25.1311  -32.7913  -40.6837 H         1 UNK         0.0787 
    103 H103       25.3836  -33.6933  -39.1940 H         1 UNK         0.0787 
    104 H104       26.7657  -33.1525  -40.1297 H         1 UNK         0.0787 
    105 H105       24.6693  -29.2440  -39.1095 H         1 UNK         0.3055 
    106 H106       22.6810  -28.3020  -38.9299 H         1 UNK         0.1106 
    107 H107       23.0534  -28.7493  -36.4864 H         1 UNK         0.0828 
    108 H108       21.3479  -28.7184  -36.8969 H         1 UNK         0.0828 
    109 H109       22.1508  -30.2575  -36.6290 H         1 UNK         0.0828 
    110 H110       22.9456  -30.7371  -40.6586 H         1 UNK         0.2931 
    111 H111       21.9236  -32.2249  -41.8036 H         1 UNK         0.0412 
    112 H112       21.8299  -32.8157  -38.9364 H         1 UNK         0.3472 
    113 H113       20.5271  -33.9729  -38.7792 H         1 UNK         0.3472 
    114 H114       20.6893  -29.9523  -42.4575 H         1 UNK         0.0970 
    115 H115       19.2635  -30.7600  -41.8679 H         1 UNK         0.0970 
    116 H116       17.9468  -32.2137  -43.1712 H         1 UNK         0.0612 
    117 H117       18.3185  -32.9888  -44.6889 H         1 UNK         0.0612 
@<TRIPOS>BOND
     1    1    2 1    
     2    1   62 1    
     3    1   63 1    
     4    1   64 1    
     5    2    3 2    
     6    2    4 am   BACKBONE|DICT|INTERRES
     7    4    5 1    
     8    4   65 1    
     9    5    6 1    
    10    5   25 1    
    11    5   66 1    
    12    6    7 1    
    13    6   67 1    
    14    6   68 1    
    15    7    8 1    
    16    8    9 1    
    17    8   69 1    
    18    8   70 1    
    19    9   10 ar   
    20    9   14 ar   
    21   10   11 ar   
    22   10   71 1    
    23   11   12 ar   
    24   11   61 1    
    25   12   13 ar   
    26   12   72 1    
    27   13   14 ar   
    28   13   15 1    
    29   14   73 1    
    30   15   16 1    
    31   15   74 1    
    32   15   75 1    
    33   16   17 1    
    34   17   18 1    
    35   17   76 1    
    36   17   77 1    
    37   18   19 1    
    38   18   27 1    
    39   18   78 1    
    40   19   20 am   BACKBONE|DICT|INTERRES
    41   19   79 1    
    42   20   21 2    
    43   20   22 1    
    44   22   23 1    
    45   22   24 1    
    46   22   80 1    
    47   23   81 1    
    48   23   82 1    
    49   23   83 1    
    50   24   25 am   BACKBONE|DICT|INTERRES
    51   24   84 1    
    52   25   26 2    
    53   27   28 2    
    54   27   29 am   BACKBONE|DICT|INTERRES
    55   29   30 1    
    56   29   85 1    
    57   30   31 1    
    58   30   32 1    
    59   30   86 1    
    60   31   87 1    
    61   31   88 1    
    62   31   89 1    
    63   32   33 2    
    64   32   34 am   BACKBONE|DICT|INTERRES
    65   34   35 1    
    66   34   90 1    
    67   35   36 1    
    68   35   37 1    
    69   35   91 1    
    70   36   92 1    
    71   36   93 1    
    72   36   94 1    
    73   37   38 2    
    74   37   39 am   BACKBONE|DICT|INTERRES
    75   39   40 1    
    76   39   95 1    
    77   40   41 1    
    78   40   42 1    
    79   40   96 1    
    80   41   97 1    
    81   41   98 1    
    82   41   99 1    
    83   42   43 2    
    84   42   44 am   BACKBONE|DICT|INTERRES
    85   44   45 1    
    86   44  100 1    
    87   45   46 1    
    88   45   47 1    
    89   45  101 1    
    90   46  102 1    
    91   46  103 1    
    92   46  104 1    
    93   47   48 2    
    94   47   49 am   BACKBONE|DICT|INTERRES
    95   49   50 1    
    96   49  105 1    
    97   50   51 1    
    98   50   52 1    
    99   50  106 1    
   100   51  107 1    
   101   51  108 1    
   102   51  109 1    
   103   52   53 2    
   104   52   54 am   BACKBONE|DICT|INTERRES
   105   54   55 1    
   106   54  110 1    
   107   55   56 1    
   108   55   59 1    
   109   55  111 1    
   110   56   57 am   BACKBONE|DICT|INTERRES
   111   56   58 2    
   112   57  112 1    
   113   57  113 1    
   114   59   60 1    
   115   59  114 1    
   116   59  115 1    
   117   60   61 1    
   118   61  116 1    
   119   61  117 1    
@<TRIPOS>SUBSTRUCTURE
     1 UNK         1 GROUP             0       ****    0 ROOT    
