@<TRIPOS>MOLECULE
3R8
117   119    1
SMALL
USER_CHARGES


@<TRIPOS>ATOM
      1 CA         15.7978  -25.6527  -46.7362 C.3       0 UNK        -0.2013 
      2 C          16.6385  -24.6338  -47.5033 C.2       0 UNK         0.4866 
      3 O          16.0655  -23.7063  -48.0723 O.2       0 UNK        -0.5176 
      4 N          17.9746  -24.7432  -47.5880 N.am      1 UNK        -0.4884 
      5 CA         18.9074  -25.6875  -46.9530 C.3       1 UNK         0.0853 
      6 C6         18.5176  -27.1842  -47.1254 C.3       10 UNK        -0.0849 
      7 S7         19.9405  -28.3232  -47.2602 S.3       10 UNK        -0.2776 
      8 C8         20.2733  -28.8442  -45.5428 C.3       10 UNK         0.0316 
      9 C9         19.1886  -29.7221  -44.9355 C.ar      10 UNK        -0.0863 
     10 C10        19.3304  -31.1117  -44.9477 C.ar      10 UNK        -0.1009 
     11 C11        18.4028  -31.9256  -44.2913 C.ar      10 UNK        -0.0712 
     12 C12        17.3057  -31.3417  -43.6493 C.ar      10 UNK        -0.0894 
     13 C13        17.1445  -29.9526  -43.6395 C.ar      10 UNK        -0.0745 
     14 C14        18.0907  -29.1511  -44.2836 C.ar      10 UNK        -0.0972 
     15 C15        15.9528  -29.3212  -42.9299 C.3       10 UNK         0.0209 
     16 S16        16.3528  -28.8053  -41.2253 S.3       10 UNK        -0.2568 
     17 C17        17.1408  -27.1795  -41.4842 C.3       10 UNK        -0.0983 
     18 CA         18.6865  -27.2726  -41.4931 C.3       3 UNK         0.0876 
     19 N          19.2852  -26.2667  -42.3718 N.am      3 UNK        -0.4424 
     20 C          20.5702  -26.2350  -42.7407 C.2       2 UNK         0.4918 
     21 O          21.3992  -27.0753  -42.3815 O.2       2 UNK        -0.4875 
     22 CA         20.9665  -25.1159  -43.7263 C.3       2 UNK         0.0481 
     23 CB         22.4907  -24.9139  -43.7999 C.3       2 UNK        -0.1831 
     24 N          20.4712  -25.3836  -45.0815 N.am      2 UNK        -0.4498 
     25 C          19.1967  -25.2916  -45.4866 C.2       1 UNK         0.5027 
     26 O          18.2822  -24.9196  -44.7477 O.2       1 UNK        -0.4969 
     27 C          19.3074  -27.2168  -40.0835 C.2       3 UNK         0.5005 
     28 O          19.3387  -26.1468  -39.4711 O.2       3 UNK        -0.5279 
     29 N          19.8319  -28.3662  -39.6377 N.am      4 UNK        -0.4463 
     30 CA         20.6258  -28.5963  -38.4267 C.3       4 UNK         0.0283 
     31 CB         19.7650  -28.3788  -37.1643 C.3       4 UNK        -0.1875 
     32 C          21.9572  -27.8138  -38.3754 C.2       4 UNK         0.4949 
     33 O          22.4979  -27.6388  -37.2822 O.2       4 UNK        -0.5039 
     34 N          22.4712  -27.3563  -39.5285 N.am      5 UNK        -0.4663 
     35 CA         23.6295  -26.4591  -39.6054 C.3       5 UNK         0.0242 
     36 CB         23.1241  -25.0096  -39.7371 C.3       5 UNK        -0.1982 
     37 C          24.6473  -26.8229  -40.7021 C.2       5 UNK         0.5017 
     38 O          25.6361  -26.1010  -40.8425 O.2       5 UNK        -0.5012 
     39 N          24.4374  -27.9202  -41.4415 N.am      6 UNK        -0.4439 
     40 CA         25.3692  -28.4237  -42.4535 C.3       6 UNK         0.0297 
     41 CB         25.1429  -27.7002  -43.7919 C.3       6 UNK        -0.2006 
     42 C          25.1701  -29.9301  -42.6286 C.2       6 UNK         0.4892 
     43 O          24.0321  -30.3951  -42.5615 O.2       6 UNK        -0.5089 
     44 N          26.2665  -30.6673  -42.8595 N.am      7 UNK        -0.4243 
     45 CA         26.3109  -32.1045  -43.1879 C.3       7 UNK         0.0196 
     46 CB         25.8004  -32.3214  -44.6293 C.3       7 UNK        -0.2007 
     47 C          25.5935  -33.0334  -42.1799 C.2       7 UNK         0.5020 
     48 O          25.1760  -34.1301  -42.5545 O.2       7 UNK        -0.5147 
     49 N          25.4447  -32.5690  -40.9293 N.am      8 UNK        -0.4734 
     50 CA         24.6763  -33.1789  -39.8355 C.3       8 UNK         0.0238 
     51 CB         25.3386  -34.4931  -39.3670 C.3       8 UNK        -0.1912 
     52 C          23.1697  -33.3436  -40.1435 C.2       8 UNK         0.5038 
     53 O          22.5417  -34.2544  -39.5996 O.2       8 UNK        -0.5046 
     54 N          22.6114  -32.4649  -40.9885 N.am      9 UNK        -0.4200 
     55 CA         21.1905  -32.4525  -41.3678 C.3       9 UNK         0.0839 
     56 C          20.6359  -31.0148  -41.5401 C.2       9 UNK         0.5513 
     57 N          21.3975  -30.0712  -42.0799 N.am      9 UNK        -0.7519 
     58 O          19.5218  -30.7277  -41.1158 O.2       9 UNK        -0.4960 
     59 C59        20.9178  -33.3534  -42.6039 C.3       10 UNK        -0.0876 
     60 S60        19.2138  -34.0132  -42.6442 S.3       10 UNK        -0.2414 
     61 C61        18.5963  -33.4341  -44.2589 C.3       10 UNK         0.0169 
     62 H62        14.8012  -25.2525  -46.5511 H         1 UNK         0.0903 
     63 H63        15.6810  -26.5658  -47.3188 H         1 UNK         0.0903 
     64 H64        16.2229  -25.9046  -45.7680 H         1 UNK         0.0903 
     65 H65        18.4445  -24.0203  -48.1163 H         1 UNK         0.3096 
     66 H66        19.8350  -25.5308  -47.5071 H         1 UNK         0.1121 
     67 H67        17.9758  -27.3034  -48.0651 H         1 UNK         0.0849 
     68 H68        17.8229  -27.5221  -46.3616 H         1 UNK         0.0849 
     69 H69        21.2236  -29.3810  -45.5297 H         1 UNK         0.0865 
     70 H70        20.4339  -27.9786  -44.9101 H         1 UNK         0.0865 
     71 H71        20.1855  -31.5577  -45.4368 H         1 UNK         0.1346 
     72 H72        16.5906  -31.9702  -43.1365 H         1 UNK         0.1412 
     73 H73        17.9852  -28.0769  -44.2446 H         1 UNK         0.1426 
     74 H74        15.1314  -30.0381  -42.8864 H         1 UNK         0.0716 
     75 H75        15.5755  -28.4730  -43.5032 H         1 UNK         0.0716 
     76 H76        16.7877  -26.4863  -40.7182 H         1 UNK         0.0695 
     77 H77        16.7754  -26.7736  -42.4289 H         1 UNK         0.0695 
     78 H78        18.9606  -28.2332  -41.9300 H         1 UNK         0.0983 
     79 H79        18.6645  -25.5656  -42.7583 H         1 UNK         0.3095 
     80 H80        20.5237  -24.1843  -43.3666 H         1 UNK         0.0454 
     81 H81        22.9194  -24.7287  -42.8150 H         1 UNK         0.0851 
     82 H82        22.7464  -24.0591  -44.4259 H         1 UNK         0.0851 
     83 H83        22.9908  -25.7903  -44.2112 H         1 UNK         0.0851 
     84 H84        21.1622  -25.7093  -45.7428 H         1 UNK         0.2976 
     85 H85        19.7022  -29.1968  -40.2173 H         1 UNK         0.3116 
     86 H86        20.9047  -29.6506  -38.4548 H         1 UNK         0.0646 
     87 H87        19.5061  -27.3284  -37.0280 H         1 UNK         0.0847 
     88 H88        18.8377  -28.9496  -37.2128 H         1 UNK         0.0847 
     89 H89        20.2938  -28.7014  -36.2667 H         1 UNK         0.0847 
     90 H90        21.9621  -27.5046  -40.3932 H         1 UNK         0.3040 
     91 H91        24.2056  -26.5208  -38.6795 H         1 UNK         0.1015 
     92 H92        23.9449  -24.3052  -39.8777 H         1 UNK         0.0786 
     93 H93        22.5888  -24.7018  -38.8387 H         1 UNK         0.0786 
     94 H94        22.4409  -24.8970  -40.5775 H         1 UNK         0.0786 
     95 H95        23.6196  -28.4931  -41.2823 H         1 UNK         0.3172 
     96 H96        26.3940  -28.2497  -42.1180 H         1 UNK         0.0595 
     97 H97        24.1318  -27.8668  -44.1665 H         1 UNK         0.0839 
     98 H98        25.8360  -28.0591  -44.5540 H         1 UNK         0.0839 
     99 H99        25.2967  -26.6253  -43.6956 H         1 UNK         0.0839 
    100 H100       27.1610  -30.1955  -42.8679 H         1 UNK         0.2998 
    101 H101       27.3630  -32.3930  -43.1612 H         1 UNK         0.0822 
    102 H102       25.9512  -33.3524  -44.9522 H         1 UNK         0.0787 
    103 H103       24.7343  -32.1054  -44.7142 H         1 UNK         0.0787 
    104 H104       26.3289  -31.6838  -45.3382 H         1 UNK         0.0787 
    105 H105       25.8278  -31.6542  -40.7345 H         1 UNK         0.3055 
    106 H106       24.7258  -32.4760  -39.0021 H         1 UNK         0.1106 
    107 H107       26.3953  -34.3478  -39.1428 H         1 UNK         0.0828 
    108 H108       24.8665  -34.8684  -38.4581 H         1 UNK         0.0828 
    109 H109       25.2597  -35.2778  -40.1199 H         1 UNK         0.0828 
    110 H110       23.1888  -31.7446  -41.4106 H         1 UNK         0.2931 
    111 H111       20.6350  -32.8699  -40.5251 H         1 UNK         0.0412 
    112 H112       22.3378  -30.2847  -42.4088 H         1 UNK         0.3472 
    113 H113       21.0477  -29.1344  -42.2132 H         1 UNK         0.3472 
    114 H114       21.5792  -34.2210  -42.5824 H         1 UNK         0.0970 
    115 H115       21.1599  -32.8315  -43.5306 H         1 UNK         0.0970 
    116 H116       19.2808  -33.7567  -45.0450 H         1 UNK         0.0612 
    117 H117       17.6431  -33.9231  -44.4650 H         1 UNK         0.0612 
@<TRIPOS>BOND
     1    1    2 1    
     2    1   62 1    
     3    1   63 1    
     4    1   64 1    
     5    2    3 2    
     6    2    4 am   BACKBONE|DICT|INTERRES
     7    4    5 1    
     8    4   65 1    
     9    5    6 1    
    10    5   25 1    
    11    5   66 1    
    12    6    7 1    
    13    6   67 1    
    14    6   68 1    
    15    7    8 1    
    16    8    9 1    
    17    8   69 1    
    18    8   70 1    
    19    9   10 ar   
    20    9   14 ar   
    21   10   11 ar   
    22   10   71 1    
    23   11   12 ar   
    24   11   61 1    
    25   12   13 ar   
    26   12   72 1    
    27   13   14 ar   
    28   13   15 1    
    29   14   73 1    
    30   15   16 1    
    31   15   74 1    
    32   15   75 1    
    33   16   17 1    
    34   17   18 1    
    35   17   76 1    
    36   17   77 1    
    37   18   19 1    
    38   18   27 1    
    39   18   78 1    
    40   19   20 am   BACKBONE|DICT|INTERRES
    41   19   79 1    
    42   20   21 2    
    43   20   22 1    
    44   22   23 1    
    45   22   24 1    
    46   22   80 1    
    47   23   81 1    
    48   23   82 1    
    49   23   83 1    
    50   24   25 am   BACKBONE|DICT|INTERRES
    51   24   84 1    
    52   25   26 2    
    53   27   28 2    
    54   27   29 am   BACKBONE|DICT|INTERRES
    55   29   30 1    
    56   29   85 1    
    57   30   31 1    
    58   30   32 1    
    59   30   86 1    
    60   31   87 1    
    61   31   88 1    
    62   31   89 1    
    63   32   33 2    
    64   32   34 am   BACKBONE|DICT|INTERRES
    65   34   35 1    
    66   34   90 1    
    67   35   36 1    
    68   35   37 1    
    69   35   91 1    
    70   36   92 1    
    71   36   93 1    
    72   36   94 1    
    73   37   38 2    
    74   37   39 am   BACKBONE|DICT|INTERRES
    75   39   40 1    
    76   39   95 1    
    77   40   41 1    
    78   40   42 1    
    79   40   96 1    
    80   41   97 1    
    81   41   98 1    
    82   41   99 1    
    83   42   43 2    
    84   42   44 am   BACKBONE|DICT|INTERRES
    85   44   45 1    
    86   44  100 1    
    87   45   46 1    
    88   45   47 1    
    89   45  101 1    
    90   46  102 1    
    91   46  103 1    
    92   46  104 1    
    93   47   48 2    
    94   47   49 am   BACKBONE|DICT|INTERRES
    95   49   50 1    
    96   49  105 1    
    97   50   51 1    
    98   50   52 1    
    99   50  106 1    
   100   51  107 1    
   101   51  108 1    
   102   51  109 1    
   103   52   53 2    
   104   52   54 am   BACKBONE|DICT|INTERRES
   105   54   55 1    
   106   54  110 1    
   107   55   56 1    
   108   55   59 1    
   109   55  111 1    
   110   56   57 am   BACKBONE|DICT|INTERRES
   111   56   58 2    
   112   57  112 1    
   113   57  113 1    
   114   59   60 1    
   115   59  114 1    
   116   59  115 1    
   117   60   61 1    
   118   61  116 1    
   119   61  117 1    
@<TRIPOS>SUBSTRUCTURE
     1 UNK         1 GROUP             0       ****    0 ROOT    
