@<TRIPOS>MOLECULE
3R8
117   119    1
SMALL
USER_CHARGES


@<TRIPOS>ATOM
      1 CA         15.9065  -23.3252  -46.3112 C.3       0 UNK        -0.2013 
      2 C          16.4383  -24.6651  -45.8263 C.2       0 UNK         0.4866 
      3 O          17.6315  -24.7864  -45.5464 O.2       0 UNK        -0.5176 
      4 N          15.5630  -25.6725  -45.7132 N.am      1 UNK        -0.4884 
      5 CA         15.8787  -27.0379  -45.2721 C.3       1 UNK         0.0853 
      6 C6         14.8536  -28.0629  -45.8272 C.3       10 UNK        -0.0849 
      7 S7         15.2739  -28.5055  -47.5465 S.3       10 UNK        -0.2776 
      8 C8         16.1504  -30.0918  -47.3162 C.3       10 UNK         0.0316 
      9 C9         17.2995  -29.9910  -46.3180 C.ar      10 UNK        -0.0863 
     10 C10        17.1401  -30.4716  -45.0149 C.ar      10 UNK        -0.1009 
     11 C11        18.1807  -30.3770  -44.0877 C.ar      10 UNK        -0.0712 
     12 C12        19.3988  -29.8106  -44.4732 C.ar      10 UNK        -0.0894 
     13 C13        19.5713  -29.3231  -45.7726 C.ar      10 UNK        -0.0745 
     14 C14        18.5186  -29.4164  -46.6906 C.ar      10 UNK        -0.0972 
     15 C15        20.8972  -28.7096  -46.1960 C.3       10 UNK         0.0209 
     16 S16        21.0102  -26.9562  -45.7190 S.3       10 UNK        -0.2568 
     17 C17        21.8748  -27.0452  -44.1149 C.3       10 UNK        -0.0983 
     18 CA         21.2357  -26.1291  -43.0438 C.3       3 UNK         0.0876 
     19 N          19.8629  -26.5349  -42.7172 N.am      3 UNK        -0.4424 
     20 C          19.0214  -25.8652  -41.9152 C.2       2 UNK         0.4918 
     21 O          19.3280  -24.8541  -41.2824 O.2       2 UNK        -0.4875 
     22 CA         17.5776  -26.3858  -41.8835 C.3       2 UNK         0.0481 
     23 CB         16.6428  -25.5402  -40.9945 C.3       2 UNK        -0.1831 
     24 N          17.0943  -26.4147  -43.2589 N.am      2 UNK        -0.4498 
     25 C          16.0668  -27.1173  -43.7415 C.2       1 UNK         0.5027 
     26 O          15.3066  -27.7910  -43.0436 O.2       1 UNK        -0.4969 
     27 C          22.1630  -26.0248  -41.8161 C.2       3 UNK         0.5005 
     28 O          23.0131  -25.1329  -41.7871 O.2       3 UNK        -0.5279 
     29 N          21.9942  -26.9321  -40.8404 N.am      4 UNK        -0.4463 
     30 CA         22.7111  -27.0472  -39.5607 C.3       4 UNK         0.0283 
     31 CB         22.5196  -25.7932  -38.6855 C.3       4 UNK        -0.1875 
     32 C          24.2015  -27.4131  -39.6921 C.2       4 UNK         0.4949 
     33 O          24.6418  -28.3888  -39.0847 O.2       4 UNK        -0.5039 
     34 N          24.9498  -26.6452  -40.4927 N.am      5 UNK        -0.4663 
     35 CA         26.3769  -26.8391  -40.7664 C.3       5 UNK         0.0242 
     36 CB         26.9190  -25.6115  -41.5150 C.3       5 UNK        -0.1982 
     37 C          26.6730  -28.1255  -41.5548 C.2       5 UNK         0.5017 
     38 O          27.7429  -28.7104  -41.3823 O.2       5 UNK        -0.5012 
     39 N          25.7093  -28.5677  -42.3738 N.am      6 UNK        -0.4439 
     40 CA         25.7448  -29.8096  -43.1490 C.3       6 UNK         0.0297 
     41 CB         24.7915  -29.6712  -44.3517 C.3       6 UNK        -0.2006 
     42 C          25.4153  -31.0370  -42.2748 C.2       6 UNK         0.4892 
     43 O          24.4828  -31.7774  -42.5903 O.2       6 UNK        -0.5089 
     44 N          26.1743  -31.2118  -41.1811 N.am      7 UNK        -0.4243 
     45 CA         26.0728  -32.2819  -40.1778 C.3       7 UNK         0.0196 
     46 CB         26.6012  -33.6078  -40.7648 C.3       7 UNK        -0.2007 
     47 C          24.6537  -32.4161  -39.5897 C.2       7 UNK         0.5020 
     48 O          24.0992  -33.5166  -39.5573 O.2       7 UNK        -0.5147 
     49 N          24.0694  -31.2761  -39.1924 N.am      8 UNK        -0.4734 
     50 CA         22.6710  -31.0607  -38.7986 C.3       8 UNK         0.0238 
     51 CB         22.2476  -31.9347  -37.5998 C.3       8 UNK        -0.1912 
     52 C          21.6989  -31.1905  -39.9832 C.2       8 UNK         0.5038 
     53 O          21.0127  -30.2211  -40.3119 O.2       8 UNK        -0.5046 
     54 N          21.6680  -32.3758  -40.5976 N.am      9 UNK        -0.4200 
     55 CA         20.7994  -32.7560  -41.7133 C.3       9 UNK         0.0839 
     56 C          21.3932  -33.9724  -42.4784 C.2       9 UNK         0.5513 
     57 N          22.6793  -33.9569  -42.8025 N.am      9 UNK        -0.7519 
     58 O          20.7068  -34.9499  -42.7656 O.2       9 UNK        -0.4960 
     59 C59        19.3202  -32.9302  -41.2586 C.3       10 UNK        -0.0876 
     60 S60        18.1371  -32.7052  -42.6258 S.3       10 UNK        -0.2414 
     61 C61        17.9817  -30.8932  -42.6728 C.3       10 UNK         0.0169 
     62 H62        16.0789  -22.5583  -45.5565 H         1 UNK         0.0903 
     63 H63        16.4211  -23.0267  -47.2241 H         1 UNK         0.0903 
     64 H64        14.8376  -23.3614  -46.5208 H         1 UNK         0.0903 
     65 H65        14.5926  -25.5057  -45.9396 H         1 UNK         0.3096 
     66 H66        16.8591  -27.2963  -45.6789 H         1 UNK         0.1121 
     67 H67        14.8179  -28.9794  -45.2374 H         1 UNK         0.0849 
     68 H68        13.8399  -27.6605  -45.7939 H         1 UNK         0.0849 
     69 H69        15.4341  -30.8512  -46.9980 H         1 UNK         0.0865 
     70 H70        16.5347  -30.4272  -48.2806 H         1 UNK         0.0865 
     71 H71        16.2026  -30.9199  -44.7149 H         1 UNK         0.1346 
     72 H72        20.2117  -29.7540  -43.7628 H         1 UNK         0.1412 
     73 H73        18.6449  -29.0380  -47.6961 H         1 UNK         0.1426 
     74 H74        21.7311  -29.2758  -45.7787 H         1 UNK         0.0716 
     75 H75        21.0066  -28.7773  -47.2795 H         1 UNK         0.0716 
     76 H76        21.9013  -28.0757  -43.7592 H         1 UNK         0.0695 
     77 H77        22.9128  -26.7599  -44.2991 H         1 UNK         0.0695 
     78 H78        21.1709  -25.1213  -43.4606 H         1 UNK         0.0983 
     79 H79        19.5052  -27.3264  -43.2314 H         1 UNK         0.3095 
     80 H80        17.6061  -27.4061  -41.4956 H         1 UNK         0.0454 
     81 H81        16.5611  -24.5155  -41.3586 H         1 UNK         0.0851 
     82 H82        15.6387  -25.9618  -40.9543 H         1 UNK         0.0851 
     83 H83        17.0134  -25.4958  -39.9697 H         1 UNK         0.0851 
     84 H84        17.6136  -25.8442  -43.9243 H         1 UNK         0.2976 
     85 H85        21.2890  -27.6425  -40.9898 H         1 UNK         0.3116 
     86 H86        22.2274  -27.8707  -39.0365 H         1 UNK         0.0646 
     87 H87        22.9665  -25.9353  -37.7007 H         1 UNK         0.0847 
     88 H88        21.4624  -25.5754  -38.5333 H         1 UNK         0.0847 
     89 H89        22.9819  -24.9086  -39.1242 H         1 UNK         0.0847 
     90 H90        24.4758  -25.8822  -40.9737 H         1 UNK         0.3040 
     91 H91        26.8959  -26.9178  -39.8084 H         1 UNK         0.1015 
     92 H92        26.7912  -24.7016  -40.9282 H         1 UNK         0.0786 
     93 H93        26.4154  -25.4668  -42.4718 H         1 UNK         0.0786 
     94 H94        27.9856  -25.7171  -41.7189 H         1 UNK         0.0786 
     95 H95        24.8545  -28.0334  -42.4117 H         1 UNK         0.3172 
     96 H96        26.7546  -29.9515  -43.5397 H         1 UNK         0.0595 
     97 H97        23.7530  -29.5768  -44.0345 H         1 UNK         0.0839 
     98 H98        24.8523  -30.5477  -44.9983 H         1 UNK         0.0839 
     99 H99        25.0392  -28.8029  -44.9624 H         1 UNK         0.0839 
    100 H100       26.8962  -30.5166  -41.0177 H         1 UNK         0.2998 
    101 H101       26.7244  -31.9998  -39.3495 H         1 UNK         0.0822 
    102 H102       27.6188  -33.4983  -41.1396 H         1 UNK         0.0787 
    103 H103       26.6181  -34.3924  -40.0073 H         1 UNK         0.0787 
    104 H104       25.9774  -33.9618  -41.5867 H         1 UNK         0.0787 
    105 H105       24.6031  -30.4154  -39.2769 H         1 UNK         0.3055 
    106 H106       22.6154  -30.0275  -38.4594 H         1 UNK         0.1106 
    107 H107       21.2458  -31.6657  -37.2628 H         1 UNK         0.0828 
    108 H108       22.2280  -32.9975  -37.8406 H         1 UNK         0.0828 
    109 H109       22.9207  -31.7965  -36.7538 H         1 UNK         0.0828 
    110 H110       22.3450  -33.0767  -40.3064 H         1 UNK         0.2931 
    111 H111       20.8358  -31.9294  -42.4255 H         1 UNK         0.0412 
    112 H112       23.0707  -34.7481  -43.2873 H         1 UNK         0.3472 
    113 H113       23.2654  -33.1452  -42.6130 H         1 UNK         0.3472 
    114 H114       19.0613  -32.2155  -40.4764 H         1 UNK         0.0970 
    115 H115       19.1655  -33.9132  -40.8105 H         1 UNK         0.0970 
    116 H116       16.9937  -30.6076  -42.3082 H         1 UNK         0.0612 
    117 H117       18.7022  -30.4263  -41.9993 H         1 UNK         0.0612 
@<TRIPOS>BOND
     1    1    2 1    
     2    1   62 1    
     3    1   63 1    
     4    1   64 1    
     5    2    3 2    
     6    2    4 am   BACKBONE|DICT|INTERRES
     7    4    5 1    
     8    4   65 1    
     9    5    6 1    
    10    5   25 1    
    11    5   66 1    
    12    6    7 1    
    13    6   67 1    
    14    6   68 1    
    15    7    8 1    
    16    8    9 1    
    17    8   69 1    
    18    8   70 1    
    19    9   10 ar   
    20    9   14 ar   
    21   10   11 ar   
    22   10   71 1    
    23   11   12 ar   
    24   11   61 1    
    25   12   13 ar   
    26   12   72 1    
    27   13   14 ar   
    28   13   15 1    
    29   14   73 1    
    30   15   16 1    
    31   15   74 1    
    32   15   75 1    
    33   16   17 1    
    34   17   18 1    
    35   17   76 1    
    36   17   77 1    
    37   18   19 1    
    38   18   27 1    
    39   18   78 1    
    40   19   20 am   BACKBONE|DICT|INTERRES
    41   19   79 1    
    42   20   21 2    
    43   20   22 1    
    44   22   23 1    
    45   22   24 1    
    46   22   80 1    
    47   23   81 1    
    48   23   82 1    
    49   23   83 1    
    50   24   25 am   BACKBONE|DICT|INTERRES
    51   24   84 1    
    52   25   26 2    
    53   27   28 2    
    54   27   29 am   BACKBONE|DICT|INTERRES
    55   29   30 1    
    56   29   85 1    
    57   30   31 1    
    58   30   32 1    
    59   30   86 1    
    60   31   87 1    
    61   31   88 1    
    62   31   89 1    
    63   32   33 2    
    64   32   34 am   BACKBONE|DICT|INTERRES
    65   34   35 1    
    66   34   90 1    
    67   35   36 1    
    68   35   37 1    
    69   35   91 1    
    70   36   92 1    
    71   36   93 1    
    72   36   94 1    
    73   37   38 2    
    74   37   39 am   BACKBONE|DICT|INTERRES
    75   39   40 1    
    76   39   95 1    
    77   40   41 1    
    78   40   42 1    
    79   40   96 1    
    80   41   97 1    
    81   41   98 1    
    82   41   99 1    
    83   42   43 2    
    84   42   44 am   BACKBONE|DICT|INTERRES
    85   44   45 1    
    86   44  100 1    
    87   45   46 1    
    88   45   47 1    
    89   45  101 1    
    90   46  102 1    
    91   46  103 1    
    92   46  104 1    
    93   47   48 2    
    94   47   49 am   BACKBONE|DICT|INTERRES
    95   49   50 1    
    96   49  105 1    
    97   50   51 1    
    98   50   52 1    
    99   50  106 1    
   100   51  107 1    
   101   51  108 1    
   102   51  109 1    
   103   52   53 2    
   104   52   54 am   BACKBONE|DICT|INTERRES
   105   54   55 1    
   106   54  110 1    
   107   55   56 1    
   108   55   59 1    
   109   55  111 1    
   110   56   57 am   BACKBONE|DICT|INTERRES
   111   56   58 2    
   112   57  112 1    
   113   57  113 1    
   114   59   60 1    
   115   59  114 1    
   116   59  115 1    
   117   60   61 1    
   118   61  116 1    
   119   61  117 1    
@<TRIPOS>SUBSTRUCTURE
     1 UNK         1 GROUP             0       ****    0 ROOT    
