@<TRIPOS>MOLECULE
3R8
117   119    1
SMALL
USER_CHARGES


@<TRIPOS>ATOM
      1 CA         15.4396  -22.4497  -46.1636 C.3       0 UNK        -0.2013 
      2 C          16.6519  -23.3666  -46.1034 C.2       0 UNK         0.4866 
      3 O          17.7781  -22.9053  -46.2894 O.2       0 UNK        -0.5176 
      4 N          16.4296  -24.6627  -45.8498 N.am      1 UNK        -0.4884 
      5 CA         17.4708  -25.6892  -45.7133 C.3       1 UNK         0.0853 
      6 C6         16.8823  -27.1269  -45.7663 C.3       10 UNK        -0.0849 
      7 S7         15.4818  -27.3933  -44.6188 S.3       10 UNK        -0.2776 
      8 C8         15.1179  -29.1610  -44.8665 C.3       10 UNK         0.0316 
      9 C9         16.0618  -30.0527  -44.0727 C.ar      10 UNK        -0.0863 
     10 C10        16.9936  -30.8654  -44.7261 C.ar      10 UNK        -0.1009 
     11 C11        17.8569  -31.6838  -43.9902 C.ar      10 UNK        -0.0712 
     12 C12        17.7827  -31.6895  -42.5951 C.ar      10 UNK        -0.0894 
     13 C13        16.8677  -30.8685  -41.9314 C.ar      10 UNK        -0.0745 
     14 C14        15.9969  -30.0675  -42.6758 C.ar      10 UNK        -0.0972 
     15 C15        16.8563  -30.8060  -40.4118 C.3       10 UNK         0.0209 
     16 S16        17.4795  -29.2035  -39.8055 S.3       10 UNK        -0.2568 
     17 C17        19.2172  -29.2077  -40.3763 C.3       10 UNK        -0.0983 
     18 CA         19.4219  -28.6029  -41.7960 C.3       3 UNK         0.0876 
     19 N          18.7465  -27.3171  -42.0030 N.am      3 UNK        -0.4424 
     20 C          19.0162  -26.1399  -41.4222 C.2       2 UNK         0.4918 
     21 O          19.8258  -25.9954  -40.5063 O.2       2 UNK        -0.4875 
     22 CA         18.2791  -24.9062  -41.9951 C.3       2 UNK         0.0481 
     23 CB         19.1736  -23.6493  -41.9877 C.3       2 UNK        -0.1831 
     24 N          17.7029  -25.1080  -43.3363 N.am      2 UNK        -0.4498 
     25 C          18.3425  -25.4856  -44.4574 C.2       1 UNK         0.5027 
     26 O          19.5527  -25.7108  -44.5146 O.2       1 UNK        -0.4969 
     27 C          20.9079  -28.6018  -42.2353 C.2       3 UNK         0.5005 
     28 O          21.6453  -29.5125  -41.8527 O.2       3 UNK        -0.5279 
     29 N          21.3118  -27.6096  -43.0482 N.am      4 UNK        -0.4463 
     30 CA         22.6686  -27.3019  -43.5194 C.3       4 UNK         0.0283 
     31 CB         23.2661  -28.4866  -44.3041 C.3       4 UNK        -0.1875 
     32 C          23.6283  -26.8569  -42.3984 C.2       4 UNK         0.4949 
     33 O          23.3847  -27.0918  -41.2140 O.2       4 UNK        -0.5039 
     34 N          24.7520  -26.2493  -42.8035 N.am      5 UNK        -0.4663 
     35 CA         25.8335  -25.8210  -41.9048 C.3       5 UNK         0.0242 
     36 CB         26.8299  -24.9517  -42.6890 C.3       5 UNK        -0.1982 
     37 C          26.5629  -26.9922  -41.2181 C.2       5 UNK         0.5017 
     38 O          27.1127  -26.8103  -40.1317 O.2       5 UNK        -0.5012 
     39 N          26.5393  -28.1701  -41.8573 N.am      6 UNK        -0.4439 
     40 CA         27.0831  -29.4267  -41.3379 C.3       6 UNK         0.0297 
     41 CB         27.2409  -30.4157  -42.5057 C.3       6 UNK        -0.2006 
     42 C          26.2303  -30.0616  -40.2212 C.2       6 UNK         0.4892 
     43 O          26.7600  -30.8997  -39.4907 O.2       6 UNK        -0.5089 
     44 N          24.9506  -29.6617  -40.1255 N.am      7 UNK        -0.4243 
     45 CA         23.8658  -30.2159  -39.3051 C.3       7 UNK         0.0196 
     46 CB         24.2252  -30.2721  -37.8072 C.3       7 UNK        -0.2007 
     47 C          23.3814  -31.5816  -39.8255 C.2       7 UNK         0.5020 
     48 O          24.1875  -32.4423  -40.1838 O.2       7 UNK        -0.5147 
     49 N          22.0512  -31.7434  -39.8794 N.am      8 UNK        -0.4734 
     50 CA         21.3124  -32.8979  -40.4190 C.3       8 UNK         0.0238 
     51 CB         21.4574  -34.1104  -39.4756 C.3       8 UNK        -0.1912 
     52 C          21.6698  -33.2456  -41.8833 C.2       8 UNK         0.5038 
     53 O          21.5488  -34.4062  -42.2794 O.2       8 UNK        -0.5046 
     54 N          22.1228  -32.2423  -42.6482 N.am      9 UNK        -0.4200 
     55 CA         22.7139  -32.3652  -43.9918 C.3       9 UNK         0.0839 
     56 C          24.0258  -33.2079  -44.0495 C.2       9 UNK         0.5513 
     57 N          24.7401  -33.4012  -42.9462 N.am      9 UNK        -0.7519 
     58 O          24.4261  -33.6679  -45.1160 O.2       9 UNK        -0.4960 
     59 C59        21.6822  -32.7496  -45.0896 C.3       10 UNK        -0.0876 
     60 S60        20.3225  -31.5354  -45.1895 S.3       10 UNK        -0.2414 
     61 C61        18.8928  -32.5426  -44.6939 C.3       10 UNK         0.0169 
     62 H62        14.5097  -22.9903  -45.9875 H         1 UNK         0.0903 
     63 H63        15.5242  -21.6664  -45.4108 H         1 UNK         0.0903 
     64 H64        15.3757  -21.9760  -47.1429 H         1 UNK         0.0903 
     65 H65        15.4836  -24.9914  -45.7090 H         1 UNK         0.3096 
     66 H66        18.1438  -25.5810  -46.5674 H         1 UNK         0.1121 
     67 H67        17.6556  -27.8741  -45.5738 H         1 UNK         0.0849 
     68 H68        16.5258  -27.3292  -46.7775 H         1 UNK         0.0849 
     69 H69        14.0944  -29.3565  -44.5432 H         1 UNK         0.0865 
     70 H70        15.1497  -29.3986  -45.9311 H         1 UNK         0.0865 
     71 H71        17.0581  -30.8562  -45.8057 H         1 UNK         0.1346 
     72 H72        18.4609  -32.3092  -42.0265 H         1 UNK         0.1412 
     73 H73        15.2898  -29.4277  -42.1648 H         1 UNK         0.1426 
     74 H74        15.8357  -30.9479  -40.0538 H         1 UNK         0.0716 
     75 H75        17.4497  -31.6128  -39.9787 H         1 UNK         0.0716 
     76 H76        19.5824  -30.2339  -40.3440 H         1 UNK         0.0695 
     77 H77        19.8069  -28.6524  -39.6450 H         1 UNK         0.0695 
     78 H78        18.9507  -29.2708  -42.5134 H         1 UNK         0.0983 
     79 H79        18.0336  -27.3216  -42.7178 H         1 UNK         0.3095 
     80 H80        17.4369  -24.7201  -41.3274 H         1 UNK         0.0454 
     81 H81        18.6424  -22.7817  -42.3788 H         1 UNK         0.0851 
     82 H82        20.0729  -23.7901  -42.5881 H         1 UNK         0.0851 
     83 H83        19.4947  -23.4000  -40.9756 H         1 UNK         0.0851 
     84 H84        16.7024  -24.9783  -43.4047 H         1 UNK         0.2976 
     85 H85        20.6128  -26.9297  -43.3321 H         1 UNK         0.3116 
     86 H86        22.5523  -26.4610  -44.2050 H         1 UNK         0.0646 
     87 H87        22.5416  -28.9178  -44.9954 H         1 UNK         0.0847 
     88 H88        24.1283  -28.1742  -44.8937 H         1 UNK         0.0847 
     89 H89        23.6054  -29.2745  -43.6323 H         1 UNK         0.0847 
     90 H90        24.8868  -26.0759  -43.7901 H         1 UNK         0.3040 
     91 H91        25.3918  -25.2095  -41.1145 H         1 UNK         0.1015 
     92 H92        27.2937  -25.5045  -43.5070 H         1 UNK         0.0786 
     93 H93        27.6321  -24.5964  -42.0403 H         1 UNK         0.0786 
     94 H94        26.3438  -24.0713  -43.1099 H         1 UNK         0.0786 
     95 H95        26.0802  -28.2071  -42.7551 H         1 UNK         0.3172 
     96 H96        28.0732  -29.2260  -40.9229 H         1 UNK         0.0595 
     97 H97        26.2813  -30.6556  -42.9660 H         1 UNK         0.0839 
     98 H98        27.6774  -31.3555  -42.1640 H         1 UNK         0.0839 
     99 H99        27.8980  -30.0190  -43.2798 H         1 UNK         0.0839 
    100 H100       24.6466  -28.9356  -40.7622 H         1 UNK         0.2998 
    101 H101       23.0450  -29.5049  -39.4171 H         1 UNK         0.0822 
    102 H102       23.3484  -30.5244  -37.2097 H         1 UNK         0.0787 
    103 H103       24.9830  -31.0269  -37.5958 H         1 UNK         0.0787 
    104 H104       24.5967  -29.3113  -37.4510 H         1 UNK         0.0787 
    105 H105       21.4803  -30.9562  -39.6054 H         1 UNK         0.3055 
    106 H106       20.2597  -32.6149  -40.4287 H         1 UNK         0.1106 
    107 H107       20.8092  -34.9310  -39.7858 H         1 UNK         0.0828 
    108 H108       22.4794  -34.4907  -39.4627 H         1 UNK         0.0828 
    109 H109       21.1824  -33.8532  -38.4528 H         1 UNK         0.0828 
    110 H110       22.1276  -31.3044  -42.2539 H         1 UNK         0.2931 
    111 H111       23.0528  -31.3612  -44.2363 H         1 UNK         0.0412 
    112 H112       25.5890  -33.9404  -43.0018 H         1 UNK         0.3472 
    113 H113       24.4366  -33.0347  -42.0487 H         1 UNK         0.3472 
    114 H114       21.2971  -33.7565  -44.9238 H         1 UNK         0.0970 
    115 H115       22.1595  -32.7720  -46.0707 H         1 UNK         0.0970 
    116 H116       19.2123  -33.3507  -44.0340 H         1 UNK         0.0612 
    117 H117       18.4579  -33.0146  -45.5760 H         1 UNK         0.0612 
@<TRIPOS>BOND
     1    1    2 1    
     2    1   62 1    
     3    1   63 1    
     4    1   64 1    
     5    2    3 2    
     6    2    4 am   BACKBONE|DICT|INTERRES
     7    4    5 1    
     8    4   65 1    
     9    5    6 1    
    10    5   25 1    
    11    5   66 1    
    12    6    7 1    
    13    6   67 1    
    14    6   68 1    
    15    7    8 1    
    16    8    9 1    
    17    8   69 1    
    18    8   70 1    
    19    9   10 ar   
    20    9   14 ar   
    21   10   11 ar   
    22   10   71 1    
    23   11   12 ar   
    24   11   61 1    
    25   12   13 ar   
    26   12   72 1    
    27   13   14 ar   
    28   13   15 1    
    29   14   73 1    
    30   15   16 1    
    31   15   74 1    
    32   15   75 1    
    33   16   17 1    
    34   17   18 1    
    35   17   76 1    
    36   17   77 1    
    37   18   19 1    
    38   18   27 1    
    39   18   78 1    
    40   19   20 am   BACKBONE|DICT|INTERRES
    41   19   79 1    
    42   20   21 2    
    43   20   22 1    
    44   22   23 1    
    45   22   24 1    
    46   22   80 1    
    47   23   81 1    
    48   23   82 1    
    49   23   83 1    
    50   24   25 am   BACKBONE|DICT|INTERRES
    51   24   84 1    
    52   25   26 2    
    53   27   28 2    
    54   27   29 am   BACKBONE|DICT|INTERRES
    55   29   30 1    
    56   29   85 1    
    57   30   31 1    
    58   30   32 1    
    59   30   86 1    
    60   31   87 1    
    61   31   88 1    
    62   31   89 1    
    63   32   33 2    
    64   32   34 am   BACKBONE|DICT|INTERRES
    65   34   35 1    
    66   34   90 1    
    67   35   36 1    
    68   35   37 1    
    69   35   91 1    
    70   36   92 1    
    71   36   93 1    
    72   36   94 1    
    73   37   38 2    
    74   37   39 am   BACKBONE|DICT|INTERRES
    75   39   40 1    
    76   39   95 1    
    77   40   41 1    
    78   40   42 1    
    79   40   96 1    
    80   41   97 1    
    81   41   98 1    
    82   41   99 1    
    83   42   43 2    
    84   42   44 am   BACKBONE|DICT|INTERRES
    85   44   45 1    
    86   44  100 1    
    87   45   46 1    
    88   45   47 1    
    89   45  101 1    
    90   46  102 1    
    91   46  103 1    
    92   46  104 1    
    93   47   48 2    
    94   47   49 am   BACKBONE|DICT|INTERRES
    95   49   50 1    
    96   49  105 1    
    97   50   51 1    
    98   50   52 1    
    99   50  106 1    
   100   51  107 1    
   101   51  108 1    
   102   51  109 1    
   103   52   53 2    
   104   52   54 am   BACKBONE|DICT|INTERRES
   105   54   55 1    
   106   54  110 1    
   107   55   56 1    
   108   55   59 1    
   109   55  111 1    
   110   56   57 am   BACKBONE|DICT|INTERRES
   111   56   58 2    
   112   57  112 1    
   113   57  113 1    
   114   59   60 1    
   115   59  114 1    
   116   59  115 1    
   117   60   61 1    
   118   61  116 1    
   119   61  117 1    
@<TRIPOS>SUBSTRUCTURE
     1 UNK         1 GROUP             0       ****    0 ROOT    
