@<TRIPOS>MOLECULE
3R8
117   119    1
SMALL
USER_CHARGES


@<TRIPOS>ATOM
      1 CA         15.5876  -22.9538  -42.3955 C.3       0 UNK        -0.2013 
      2 C          16.0416  -23.5091  -43.7373 C.2       0 UNK         0.4866 
      3 O          16.0586  -22.7787  -44.7290 O.2       0 UNK        -0.5176 
      4 N          16.3985  -24.7986  -43.7770 N.am      1 UNK        -0.4884 
      5 CA         16.9082  -25.4976  -44.9634 C.3       1 UNK         0.0853 
      6 C6         16.9245  -27.0371  -44.7727 C.3       10 UNK        -0.0849 
      7 S7         15.3681  -27.7243  -44.1019 S.3       10 UNK        -0.2776 
      8 C8         15.6448  -29.5246  -44.2361 C.3       10 UNK         0.0316 
      9 C9         17.0286  -29.9355  -43.7512 C.ar      10 UNK        -0.0863 
     10 C10        17.3411  -29.9205  -42.3886 C.ar      10 UNK        -0.1009 
     11 C11        18.6317  -30.2289  -41.9443 C.ar      10 UNK        -0.0712 
     12 C12        19.6111  -30.5577  -42.8936 C.ar      10 UNK        -0.0894 
     13 C13        19.3069  -30.5965  -44.2567 C.ar      10 UNK        -0.0745 
     14 C14        18.0101  -30.2946  -44.6770 C.ar      10 UNK        -0.0972 
     15 C15        20.3677  -30.9905  -45.2755 C.3       10 UNK         0.0209 
     16 S16        20.6149  -29.7104  -46.5508 S.3       10 UNK        -0.2568 
     17 C17        22.1631  -28.8843  -46.0324 C.3       10 UNK        -0.0983 
     18 CA         21.9787  -27.5357  -45.2811 C.3       3 UNK         0.0876 
     19 N          20.9976  -26.6751  -45.9467 N.am      3 UNK        -0.4424 
     20 C          21.2326  -25.4680  -46.4719 C.2       2 UNK         0.4918 
     21 O          22.3308  -24.9117  -46.4577 O.2       2 UNK        -0.4875 
     22 CA         20.0320  -24.7484  -47.1219 C.3       2 UNK         0.0481 
     23 CB         20.0531  -24.9537  -48.6450 C.3       2 UNK        -0.1831 
     24 N          18.7162  -25.1472  -46.5989 N.am      2 UNK        -0.4498 
     25 C          18.3273  -25.0051  -45.3234 C.2       1 UNK         0.5027 
     26 O          19.0683  -24.5699  -44.4381 O.2       1 UNK        -0.4969 
     27 C          21.6737  -27.7140  -43.7769 C.2       3 UNK         0.5005 
     28 O          22.2476  -28.6109  -43.1561 O.2       3 UNK        -0.5279 
     29 N          20.7982  -26.8701  -43.2037 N.am      4 UNK        -0.4463 
     30 CA         20.4396  -26.9036  -41.7826 C.3       4 UNK         0.0283 
     31 CB         19.2041  -26.0244  -41.5299 C.3       4 UNK        -0.1875 
     32 C          21.5937  -26.4775  -40.8602 C.2       4 UNK         0.4949 
     33 O          22.4483  -25.6869  -41.2668 O.2       4 UNK        -0.5039 
     34 N          21.5515  -26.9849  -39.6185 N.am      5 UNK        -0.4663 
     35 CA         22.5099  -26.7574  -38.5280 C.3       5 UNK         0.0242 
     36 CB         22.4633  -25.2889  -38.0525 C.3       5 UNK        -0.1982 
     37 C          23.9307  -27.2368  -38.8833 C.2       5 UNK         0.5017 
     38 O          24.9052  -26.5137  -38.6648 O.2       5 UNK        -0.5012 
     39 N          24.0152  -28.4517  -39.4346 N.am      6 UNK        -0.4439 
     40 CA         25.2438  -29.1056  -39.8705 C.3       6 UNK         0.0297 
     41 CB         25.5408  -28.7033  -41.3282 C.3       6 UNK        -0.2006 
     42 C          25.0758  -30.6232  -39.7376 C.2       6 UNK         0.4892 
     43 O          23.9627  -31.1054  -39.5147 O.2       6 UNK        -0.5089 
     44 N          26.1779  -31.3595  -39.9347 N.am      7 UNK        -0.4243 
     45 CA         26.2301  -32.8291  -39.9296 C.3       7 UNK         0.0196 
     46 CB         27.6986  -33.2756  -40.0254 C.3       7 UNK        -0.2007 
     47 C          25.3863  -33.5058  -41.0310 C.2       7 UNK         0.5020 
     48 O          25.1518  -34.7116  -40.9563 O.2       7 UNK        -0.5147 
     49 N          24.9395  -32.7250  -42.0237 N.am      8 UNK        -0.4734 
     50 CA         24.0101  -33.1328  -43.0765 C.3       8 UNK         0.0238 
     51 CB         24.0281  -32.0679  -44.1844 C.3       8 UNK        -0.1912 
     52 C          22.5702  -33.3748  -42.5791 C.2       8 UNK         0.5038 
     53 O          21.8122  -34.0372  -43.2888 O.2       8 UNK        -0.5046 
     54 N          22.2079  -32.8459  -41.3995 N.am      9 UNK        -0.4200 
     55 CA         20.9181  -33.1023  -40.7390 C.3       9 UNK         0.0839 
     56 C          20.7628  -34.5874  -40.3124 C.2       9 UNK         0.5513 
     57 N          19.5828  -35.1655  -40.4921 N.am      9 UNK        -0.7519 
     58 O          21.6829  -35.2005  -39.7759 O.2       9 UNK        -0.4960 
     59 C59        20.6890  -32.1727  -39.5195 C.3       10 UNK        -0.0876 
     60 S60        20.6526  -30.3954  -39.9319 S.3       10 UNK        -0.2414 
     61 C61        18.9106  -30.1590  -40.4390 C.3       10 UNK         0.0169 
     62 H62        16.2333  -22.1294  -42.0938 H         1 UNK         0.0903 
     63 H63        14.5673  -22.5787  -42.4700 H         1 UNK         0.0903 
     64 H64        15.6147  -23.7098  -41.6109 H         1 UNK         0.0903 
     65 H65        16.3490  -25.3560  -42.9370 H         1 UNK         0.3096 
     66 H66        16.2430  -25.2583  -45.7963 H         1 UNK         0.1121 
     67 H67        17.7336  -27.3289  -44.1009 H         1 UNK         0.0849 
     68 H68        17.1311  -27.5307  -45.7243 H         1 UNK         0.0849 
     69 H69        14.8838  -30.0474  -43.6549 H         1 UNK         0.0865 
     70 H70        15.4953  -29.8277  -45.2736 H         1 UNK         0.0865 
     71 H71        16.5798  -29.6402  -41.6732 H         1 UNK         0.1346 
     72 H72        20.6222  -30.7795  -42.5861 H         1 UNK         0.1412 
     73 H73        17.7748  -30.3159  -45.7325 H         1 UNK         0.1426 
     74 H74        20.0515  -31.9127  -45.7646 H         1 UNK         0.0716 
     75 H75        21.3118  -31.2180  -44.7825 H         1 UNK         0.0716 
     76 H76        22.7191  -28.6858  -46.9497 H         1 UNK         0.0695 
     77 H77        22.7946  -29.5768  -45.4755 H         1 UNK         0.0695 
     78 H78        22.9519  -27.0403  -45.2914 H         1 UNK         0.0983 
     79 H79        20.0710  -27.0656  -46.0328 H         1 UNK         0.3095 
     80 H80        20.1507  -23.6813  -46.9228 H         1 UNK         0.0454 
     81 H81        19.9100  -26.0012  -48.9137 H         1 UNK         0.0851 
     82 H82        21.0075  -24.6374  -49.0686 H         1 UNK         0.0851 
     83 H83        19.2754  -24.3696  -49.1371 H         1 UNK         0.0851 
     84 H84        18.0632  -25.5255  -47.2708 H         1 UNK         0.2976 
     85 H85        20.4138  -26.1085  -43.7503 H         1 UNK         0.3116 
     86 H86        20.1801  -27.9327  -41.5421 H         1 UNK         0.0646 
     87 H87        18.3443  -26.3738  -42.0978 H         1 UNK         0.0847 
     88 H88        19.3888  -24.9832  -41.7968 H         1 UNK         0.0847 
     89 H89        18.9167  -26.0422  -40.4779 H         1 UNK         0.0847 
     90 H90        20.8088  -27.6372  -39.4060 H         1 UNK         0.3040 
     91 H91        22.1831  -27.3804  -37.6935 H         1 UNK         0.1015 
     92 H92        22.8249  -24.6016  -38.8179 H         1 UNK         0.0786 
     93 H93        23.0856  -25.1454  -37.1684 H         1 UNK         0.0786 
     94 H94        21.4495  -24.9903  -37.7857 H         1 UNK         0.0786 
     95 H95        23.1814  -29.0193  -39.5360 H         1 UNK         0.3172 
     96 H96        26.0718  -28.8016  -39.2267 H         1 UNK         0.0595 
     97 H97        24.7435  -29.0209  -42.0020 H         1 UNK         0.0839 
     98 H98        26.4709  -29.1457  -41.6860 H         1 UNK         0.0839 
     99 H99        25.6426  -27.6223  -41.4266 H         1 UNK         0.0839 
    100 H100       27.0496  -30.8826  -40.1176 H         1 UNK         0.2998 
    101 H101       25.8296  -33.1688  -38.9720 H         1 UNK         0.0822 
    102 H102       28.2898  -32.8798  -39.1992 H         1 UNK         0.0787 
    103 H103       27.7808  -34.3629  -39.9863 H         1 UNK         0.0787 
    104 H104       28.1596  -32.9478  -40.9581 H         1 UNK         0.0787 
    105 H105       25.1952  -31.7492  -42.0010 H         1 UNK         0.3055 
    106 H106       24.3677  -34.0754  -43.4970 H         1 UNK         0.1106 
    107 H107       23.6650  -31.1058  -43.8200 H         1 UNK         0.0828 
    108 H108       23.3960  -32.3655  -45.0220 H         1 UNK         0.0828 
    109 H109       25.0331  -31.9206  -44.5801 H         1 UNK         0.0828 
    110 H110       22.8830  -32.3128  -40.8632 H         1 UNK         0.2931 
    111 H111       20.1359  -32.8910  -41.4695 H         1 UNK         0.0412 
    112 H112       19.4569  -36.1237  -40.2046 H         1 UNK         0.3472 
    113 H113       18.8191  -34.6681  -40.9240 H         1 UNK         0.3472 
    114 H114       21.4806  -32.3246  -38.7829 H         1 UNK         0.0970 
    115 H115       19.7593  -32.4278  -39.0075 H         1 UNK         0.0970 
    116 H116       18.5983  -29.1769  -40.0811 H         1 UNK         0.0612 
    117 H117       18.2756  -30.8812  -39.9249 H         1 UNK         0.0612 
@<TRIPOS>BOND
     1    1    2 1    
     2    1   62 1    
     3    1   63 1    
     4    1   64 1    
     5    2    3 2    
     6    2    4 am   BACKBONE|DICT|INTERRES
     7    4    5 1    
     8    4   65 1    
     9    5    6 1    
    10    5   25 1    
    11    5   66 1    
    12    6    7 1    
    13    6   67 1    
    14    6   68 1    
    15    7    8 1    
    16    8    9 1    
    17    8   69 1    
    18    8   70 1    
    19    9   10 ar   
    20    9   14 ar   
    21   10   11 ar   
    22   10   71 1    
    23   11   12 ar   
    24   11   61 1    
    25   12   13 ar   
    26   12   72 1    
    27   13   14 ar   
    28   13   15 1    
    29   14   73 1    
    30   15   16 1    
    31   15   74 1    
    32   15   75 1    
    33   16   17 1    
    34   17   18 1    
    35   17   76 1    
    36   17   77 1    
    37   18   19 1    
    38   18   27 1    
    39   18   78 1    
    40   19   20 am   BACKBONE|DICT|INTERRES
    41   19   79 1    
    42   20   21 2    
    43   20   22 1    
    44   22   23 1    
    45   22   24 1    
    46   22   80 1    
    47   23   81 1    
    48   23   82 1    
    49   23   83 1    
    50   24   25 am   BACKBONE|DICT|INTERRES
    51   24   84 1    
    52   25   26 2    
    53   27   28 2    
    54   27   29 am   BACKBONE|DICT|INTERRES
    55   29   30 1    
    56   29   85 1    
    57   30   31 1    
    58   30   32 1    
    59   30   86 1    
    60   31   87 1    
    61   31   88 1    
    62   31   89 1    
    63   32   33 2    
    64   32   34 am   BACKBONE|DICT|INTERRES
    65   34   35 1    
    66   34   90 1    
    67   35   36 1    
    68   35   37 1    
    69   35   91 1    
    70   36   92 1    
    71   36   93 1    
    72   36   94 1    
    73   37   38 2    
    74   37   39 am   BACKBONE|DICT|INTERRES
    75   39   40 1    
    76   39   95 1    
    77   40   41 1    
    78   40   42 1    
    79   40   96 1    
    80   41   97 1    
    81   41   98 1    
    82   41   99 1    
    83   42   43 2    
    84   42   44 am   BACKBONE|DICT|INTERRES
    85   44   45 1    
    86   44  100 1    
    87   45   46 1    
    88   45   47 1    
    89   45  101 1    
    90   46  102 1    
    91   46  103 1    
    92   46  104 1    
    93   47   48 2    
    94   47   49 am   BACKBONE|DICT|INTERRES
    95   49   50 1    
    96   49  105 1    
    97   50   51 1    
    98   50   52 1    
    99   50  106 1    
   100   51  107 1    
   101   51  108 1    
   102   51  109 1    
   103   52   53 2    
   104   52   54 am   BACKBONE|DICT|INTERRES
   105   54   55 1    
   106   54  110 1    
   107   55   56 1    
   108   55   59 1    
   109   55  111 1    
   110   56   57 am   BACKBONE|DICT|INTERRES
   111   56   58 2    
   112   57  112 1    
   113   57  113 1    
   114   59   60 1    
   115   59  114 1    
   116   59  115 1    
   117   60   61 1    
   118   61  116 1    
   119   61  117 1    
@<TRIPOS>SUBSTRUCTURE
     1 UNK         1 GROUP             0       ****    0 ROOT    
