@<TRIPOS>MOLECULE
3R8
117   119    1
SMALL
USER_CHARGES


@<TRIPOS>ATOM
      1 CA         19.5123  -25.2711  -39.4857 C.3       0 UNK        -0.2013 
      2 C          19.1436  -25.7921  -40.8669 C.2       0 UNK         0.4866 
      3 O          19.7693  -26.7409  -41.3420 O.2       0 UNK        -0.5176 
      4 N          18.1283  -25.1782  -41.4928 N.am      1 UNK        -0.4884 
      5 CA         17.6669  -25.4061  -42.8703 C.3       1 UNK         0.0853 
      6 C6         17.3553  -26.8987  -43.1707 C.3       10 UNK        -0.0849 
      7 S7         16.0992  -27.1583  -44.4748 S.3       10 UNK        -0.2776 
      8 C8         15.7934  -28.9529  -44.3407 C.3       10 UNK         0.0316 
      9 C9         17.0916  -29.7454  -44.3769 C.ar      10 UNK        -0.0863 
     10 C10        17.6791  -30.1716  -43.1835 C.ar      10 UNK        -0.1009 
     11 C11        18.9207  -30.8101  -43.1901 C.ar      10 UNK        -0.0712 
     12 C12        19.5639  -31.0539  -44.4063 C.ar      10 UNK        -0.0894 
     13 C13        18.9848  -30.6307  -45.6081 C.ar      10 UNK        -0.0745 
     14 C14        17.7413  -29.9904  -45.5892 C.ar      10 UNK        -0.0972 
     15 C15        19.7268  -30.8137  -46.9238 C.3       10 UNK         0.0209 
     16 S16        20.2948  -29.2219  -47.6106 S.3       10 UNK        -0.2568 
     17 C17        21.4661  -28.6536  -46.3313 C.3       10 UNK        -0.0983 
     18 CA         21.7502  -27.1335  -46.4235 C.3       3 UNK         0.0876 
     19 N          20.5337  -26.3391  -46.2405 N.am      3 UNK        -0.4424 
     20 C          20.3999  -25.0583  -46.6057 C.2       2 UNK         0.4918 
     21 O          21.2857  -24.4091  -47.1638 O.2       2 UNK        -0.4875 
     22 CA         19.0424  -24.3886  -46.3315 C.3       2 UNK         0.0481 
     23 CB         18.1505  -24.4680  -47.5810 C.3       2 UNK        -0.1831 
     24 N          18.3229  -24.9674  -45.1942 N.am      2 UNK        -0.4498 
     25 C          18.6114  -24.7460  -43.9052 C.2       1 UNK         0.5027 
     26 O          19.5342  -24.0147  -43.5352 O.2       1 UNK        -0.4969 
     27 C          22.8272  -26.7326  -45.3961 C.2       3 UNK         0.5005 
     28 O          22.5012  -26.3130  -44.2827 O.2       3 UNK        -0.5279 
     29 N          24.0990  -26.9514  -45.7599 N.am      4 UNK        -0.4463 
     30 CA         25.2763  -26.7324  -44.9067 C.3       4 UNK         0.0283 
     31 CB         26.5420  -26.8032  -45.7779 C.3       4 UNK        -0.1875 
     32 C          25.3867  -27.7025  -43.7104 C.2       4 UNK         0.4949 
     33 O          26.2568  -27.5122  -42.8609 O.2       4 UNK        -0.5039 
     34 N          24.5129  -28.7184  -43.6650 N.am      5 UNK        -0.4663 
     35 CA         24.3859  -29.7142  -42.5997 C.3       5 UNK         0.0242 
     36 CB         23.3291  -30.7463  -43.0215 C.3       5 UNK        -0.1982 
     37 C          24.0399  -29.1255  -41.2193 C.2       5 UNK         0.5017 
     38 O          24.4351  -29.7154  -40.2154 O.2       5 UNK        -0.5012 
     39 N          23.3279  -27.9855  -41.1926 N.am      6 UNK        -0.4439 
     40 CA         22.9889  -27.1822  -40.0083 C.3       6 UNK         0.0297 
     41 CB         24.2404  -26.4304  -39.5092 C.3       6 UNK        -0.2006 
     42 C          22.3075  -28.0042  -38.8946 C.2       6 UNK         0.4892 
     43 O          22.8439  -28.1170  -37.7915 O.2       6 UNK        -0.5089 
     44 N          21.1588  -28.6033  -39.2374 N.am      7 UNK        -0.4243 
     45 CA         20.3216  -29.5034  -38.4259 C.3       7 UNK         0.0196 
     46 CB         19.8699  -28.8390  -37.1079 C.3       7 UNK        -0.2007 
     47 C          20.9058  -30.9086  -38.1659 C.2       7 UNK         0.5020 
     48 O          20.1529  -31.7812  -37.7319 O.2       7 UNK        -0.5147 
     49 N          22.1927  -31.1498  -38.4520 N.am      8 UNK        -0.4734 
     50 CA         22.8329  -32.4649  -38.3433 C.3       8 UNK         0.0238 
     51 CB         24.2915  -32.2859  -37.8826 C.3       8 UNK        -0.1912 
     52 C          22.7157  -33.2037  -39.6868 C.2       8 UNK         0.5038 
     53 O          23.7168  -33.3964  -40.3785 O.2       8 UNK        -0.5046 
     54 N          21.4760  -33.5508  -40.0538 N.am      9 UNK        -0.4200 
     55 CA         21.0941  -34.0916  -41.3705 C.3       9 UNK         0.0839 
     56 C          21.6058  -35.5276  -41.6852 C.2       9 UNK         0.5513 
     57 N          22.1135  -36.2815  -40.7179 N.am      9 UNK        -0.7519 
     58 O          21.5373  -35.9640  -42.8312 O.2       9 UNK        -0.4960 
     59 C59        19.5630  -33.9829  -41.6386 C.3       10 UNK        -0.0876 
     60 S60        18.7491  -32.4841  -40.9795 S.3       10 UNK        -0.2414 
     61 C61        19.5933  -31.1442  -41.8706 C.3       10 UNK         0.0169 
     62 H62        19.5252  -26.0879  -38.7668 H         1 UNK         0.0903 
     63 H63        20.5040  -24.8205  -39.5079 H         1 UNK         0.0903 
     64 H64        18.8068  -24.5206  -39.1296 H         1 UNK         0.0903 
     65 H65        17.6860  -24.3951  -41.0313 H         1 UNK         0.3096 
     66 H66        16.7289  -24.8524  -42.9401 H         1 UNK         0.1121 
     67 H67        16.9784  -27.3814  -42.2675 H         1 UNK         0.0849 
     68 H68        18.2711  -27.4311  -43.4348 H         1 UNK         0.0849 
     69 H69        15.1434  -29.2689  -45.1579 H         1 UNK         0.0865 
     70 H70        15.2456  -29.1566  -43.4191 H         1 UNK         0.0865 
     71 H71        17.1936  -29.9641  -42.2396 H         1 UNK         0.1346 
     72 H72        20.5329  -31.5334  -44.4153 H         1 UNK         0.1412 
     73 H73        17.3038  -29.6403  -46.5144 H         1 UNK         0.1426 
     74 H74        19.0655  -31.2954  -47.6453 H         1 UNK         0.0716 
     75 H75        20.5843  -31.4773  -46.8010 H         1 UNK         0.0716 
     76 H76        22.3843  -29.2319  -46.4506 H         1 UNK         0.0695 
     77 H77        21.0753  -28.8962  -45.3422 H         1 UNK         0.0695 
     78 H78        22.1420  -26.9183  -47.4206 H         1 UNK         0.0983 
     79 H79        19.7670  -26.7948  -45.7704 H         1 UNK         0.3095 
     80 H80        19.2313  -23.3342  -46.1185 H         1 UNK         0.0454 
     81 H81        17.9122  -25.4997  -47.8433 H         1 UNK         0.0851 
     82 H82        18.6457  -24.0192  -48.4432 H         1 UNK         0.0851 
     83 H83        17.2122  -23.9328  -47.4346 H         1 UNK         0.0851 
     84 H84        17.5424  -25.5777  -45.4050 H         1 UNK         0.2976 
     85 H85        24.2835  -27.3133  -46.6855 H         1 UNK         0.3116 
     86 H86        25.2049  -25.7247  -44.4918 H         1 UNK         0.0646 
     87 H87        26.6694  -27.7891  -46.2266 H         1 UNK         0.0847 
     88 H88        27.4362  -26.5978  -45.1875 H         1 UNK         0.0847 
     89 H89        26.5146  -26.0672  -46.5816 H         1 UNK         0.0847 
     90 H90        23.8521  -28.7881  -44.4229 H         1 UNK         0.3040 
     91 H91        25.3483  -30.2212  -42.5015 H         1 UNK         0.1015 
     92 H92        22.3631  -30.2749  -43.2035 H         1 UNK         0.0786 
     93 H93        23.1889  -31.5000  -42.2467 H         1 UNK         0.0786 
     94 H94        23.6248  -31.2711  -43.9301 H         1 UNK         0.0786 
     95 H95        23.0335  -27.5986  -42.0809 H         1 UNK         0.3172 
     96 H96        22.2683  -26.4331  -40.3366 H         1 UNK         0.0595 
     97 H97        23.9945  -25.7718  -38.6753 H         1 UNK         0.0839 
     98 H98        24.6708  -25.8113  -40.2964 H         1 UNK         0.0839 
     99 H99        25.0144  -27.1175  -39.1650 H         1 UNK         0.0839 
    100 H100       20.8059  -28.4062  -40.1674 H         1 UNK         0.2998 
    101 H101       19.4189  -29.6672  -39.0153 H         1 UNK         0.0822 
    102 H102       19.1506  -29.4694  -36.5833 H         1 UNK         0.0787 
    103 H103       20.7027  -28.6719  -36.4249 H         1 UNK         0.0787 
    104 H104       19.3822  -27.8821  -37.2865 H         1 UNK         0.0787 
    105 H105       22.7658  -30.4009  -38.8242 H         1 UNK         0.3055 
    106 H106       22.3261  -33.0705  -37.5882 H         1 UNK         0.1106 
    107 H107       24.7811  -33.2527  -37.7594 H         1 UNK         0.0828 
    108 H108       24.8807  -31.7142  -38.5994 H         1 UNK         0.0828 
    109 H109       24.3431  -31.7714  -36.9230 H         1 UNK         0.0828 
    110 H110       20.7098  -33.3258  -39.4322 H         1 UNK         0.2931 
    111 H111       21.5887  -33.4562  -42.1067 H         1 UNK         0.0412 
    112 H112       22.1785  -35.9285  -39.7767 H         1 UNK         0.3472 
    113 H113       22.4435  -37.2091  -40.9343 H         1 UNK         0.3472 
    114 H114       19.3647  -34.0403  -42.7107 H         1 UNK         0.0970 
    115 H115       19.0436  -34.8348  -41.1951 H         1 UNK         0.0970 
    116 H116       20.6454  -31.3843  -42.0086 H         1 UNK         0.0612 
    117 H117       19.5753  -30.2499  -41.2493 H         1 UNK         0.0612 
@<TRIPOS>BOND
     1    1    2 1    
     2    1   62 1    
     3    1   63 1    
     4    1   64 1    
     5    2    3 2    
     6    2    4 am   BACKBONE|DICT|INTERRES
     7    4    5 1    
     8    4   65 1    
     9    5    6 1    
    10    5   25 1    
    11    5   66 1    
    12    6    7 1    
    13    6   67 1    
    14    6   68 1    
    15    7    8 1    
    16    8    9 1    
    17    8   69 1    
    18    8   70 1    
    19    9   10 ar   
    20    9   14 ar   
    21   10   11 ar   
    22   10   71 1    
    23   11   12 ar   
    24   11   61 1    
    25   12   13 ar   
    26   12   72 1    
    27   13   14 ar   
    28   13   15 1    
    29   14   73 1    
    30   15   16 1    
    31   15   74 1    
    32   15   75 1    
    33   16   17 1    
    34   17   18 1    
    35   17   76 1    
    36   17   77 1    
    37   18   19 1    
    38   18   27 1    
    39   18   78 1    
    40   19   20 am   BACKBONE|DICT|INTERRES
    41   19   79 1    
    42   20   21 2    
    43   20   22 1    
    44   22   23 1    
    45   22   24 1    
    46   22   80 1    
    47   23   81 1    
    48   23   82 1    
    49   23   83 1    
    50   24   25 am   BACKBONE|DICT|INTERRES
    51   24   84 1    
    52   25   26 2    
    53   27   28 2    
    54   27   29 am   BACKBONE|DICT|INTERRES
    55   29   30 1    
    56   29   85 1    
    57   30   31 1    
    58   30   32 1    
    59   30   86 1    
    60   31   87 1    
    61   31   88 1    
    62   31   89 1    
    63   32   33 2    
    64   32   34 am   BACKBONE|DICT|INTERRES
    65   34   35 1    
    66   34   90 1    
    67   35   36 1    
    68   35   37 1    
    69   35   91 1    
    70   36   92 1    
    71   36   93 1    
    72   36   94 1    
    73   37   38 2    
    74   37   39 am   BACKBONE|DICT|INTERRES
    75   39   40 1    
    76   39   95 1    
    77   40   41 1    
    78   40   42 1    
    79   40   96 1    
    80   41   97 1    
    81   41   98 1    
    82   41   99 1    
    83   42   43 2    
    84   42   44 am   BACKBONE|DICT|INTERRES
    85   44   45 1    
    86   44  100 1    
    87   45   46 1    
    88   45   47 1    
    89   45  101 1    
    90   46  102 1    
    91   46  103 1    
    92   46  104 1    
    93   47   48 2    
    94   47   49 am   BACKBONE|DICT|INTERRES
    95   49   50 1    
    96   49  105 1    
    97   50   51 1    
    98   50   52 1    
    99   50  106 1    
   100   51  107 1    
   101   51  108 1    
   102   51  109 1    
   103   52   53 2    
   104   52   54 am   BACKBONE|DICT|INTERRES
   105   54   55 1    
   106   54  110 1    
   107   55   56 1    
   108   55   59 1    
   109   55  111 1    
   110   56   57 am   BACKBONE|DICT|INTERRES
   111   56   58 2    
   112   57  112 1    
   113   57  113 1    
   114   59   60 1    
   115   59  114 1    
   116   59  115 1    
   117   60   61 1    
   118   61  116 1    
   119   61  117 1    
@<TRIPOS>SUBSTRUCTURE
     1 UNK         1 GROUP             0       ****    0 ROOT    
