@<TRIPOS>MOLECULE
3R8
117   119    1
SMALL
USER_CHARGES


@<TRIPOS>ATOM
      1 CA         20.7008  -28.7149  -42.5925 C.3       0 UNK        -0.2013 
      2 C          20.0767  -27.3351  -42.5125 C.2       0 UNK         0.4866 
      3 O          20.7338  -26.3911  -42.0788 O.2       0 UNK        -0.5176 
      4 N          18.8104  -27.2117  -42.9330 N.am      1 UNK        -0.4884 
      5 CA         18.0419  -25.9569  -42.9120 C.3       1 UNK         0.0853 
      6 C6         16.5430  -26.1811  -43.2241 C.3       10 UNK        -0.0849 
      7 S7         15.7681  -27.3351  -42.0407 S.3       10 UNK        -0.2776 
      8 C8         15.2299  -28.7002  -43.1212 C.3       10 UNK         0.0316 
      9 C9         16.3938  -29.4958  -43.7000 C.ar      10 UNK        -0.0863 
     10 C10        17.1501  -30.3380  -42.8771 C.ar      10 UNK        -0.1009 
     11 C11        18.1767  -31.1205  -43.4153 C.ar      10 UNK        -0.0712 
     12 C12        18.4452  -31.0557  -44.7853 C.ar      10 UNK        -0.0894 
     13 C13        17.6994  -30.2172  -45.6179 C.ar      10 UNK        -0.0745 
     14 C14        16.6787  -29.4348  -45.0687 C.ar      10 UNK        -0.0972 
     15 C15        17.9609  -30.1986  -47.1183 C.3       10 UNK         0.0209 
     16 S16        18.9196  -28.7444  -47.6427 S.3       10 UNK        -0.2568 
     17 C17        20.5829  -29.1428  -47.0019 C.3       10 UNK        -0.0983 
     18 CA         21.5357  -27.9187  -47.0157 C.3       3 UNK         0.0876 
     19 N          20.9412  -26.7861  -46.2971 N.am      3 UNK        -0.4424 
     20 C          20.8049  -25.5454  -46.7840 C.2       2 UNK         0.4918 
     21 O          21.3415  -25.1557  -47.8217 O.2       2 UNK        -0.4875 
     22 CA         19.8796  -24.5928  -46.0011 C.3       2 UNK         0.0481 
     23 CB         18.9741  -23.7654  -46.9330 C.3       2 UNK        -0.1831 
     24 N          19.0572  -25.3373  -45.0442 N.am      2 UNK        -0.4498 
     25 C          18.6521  -24.8939  -43.8486 C.2       1 UNK         0.5027 
     26 O          18.7828  -23.7321  -43.4603 O.2       1 UNK        -0.4969 
     27 C          22.9136  -28.3101  -46.4423 C.2       3 UNK         0.5005 
     28 O          23.6234  -29.0971  -47.0707 O.2       3 UNK        -0.5279 
     29 N          23.2684  -27.7791  -45.2661 N.am      4 UNK        -0.4463 
     30 CA         24.4990  -28.0387  -44.5254 C.3       4 UNK         0.0283 
     31 CB         24.4467  -29.4336  -43.8667 C.3       4 UNK        -0.1875 
     32 C          24.6609  -26.9271  -43.4810 C.2       4 UNK         0.4949 
     33 O          23.7609  -26.0976  -43.3239 O.2       4 UNK        -0.5039 
     34 N          25.7914  -26.9312  -42.7658 N.am      5 UNK        -0.4663 
     35 CA         26.1314  -25.9655  -41.7147 C.3       5 UNK         0.0242 
     36 CB         27.6607  -25.9590  -41.5274 C.3       5 UNK        -0.1982 
     37 C          25.3733  -26.2341  -40.3969 C.2       5 UNK         0.5017 
     38 O          26.0008  -26.5010  -39.3707 O.2       5 UNK        -0.5012 
     39 N          24.0346  -26.1760  -40.4595 N.am      6 UNK        -0.4439 
     40 CA         23.0728  -26.3632  -39.3627 C.3       6 UNK         0.0297 
     41 CB         23.2142  -25.2394  -38.3134 C.3       6 UNK        -0.2006 
     42 C          23.0916  -27.7707  -38.7280 C.2       6 UNK         0.4892 
     43 O          22.6811  -27.9239  -37.5758 O.2       6 UNK        -0.5089 
     44 N          23.5567  -28.7756  -39.4825 N.am      7 UNK        -0.4243 
     45 CA         23.5803  -30.1806  -39.0756 C.3       7 UNK         0.0196 
     46 CB         24.5127  -30.9592  -40.0182 C.3       7 UNK        -0.2007 
     47 C          22.1695  -30.7857  -39.1055 C.2       7 UNK         0.5020 
     48 O          21.4049  -30.5002  -40.0280 O.2       7 UNK        -0.5147 
     49 N          21.8611  -31.6643  -38.1448 N.am      8 UNK        -0.4734 
     50 CA         20.5768  -32.3695  -38.0292 C.3       8 UNK         0.0238 
     51 CB         20.3644  -32.7767  -36.5585 C.3       8 UNK        -0.1912 
     52 C          20.4644  -33.5660  -38.9998 C.2       8 UNK         0.5038 
     53 O          20.0940  -34.6650  -38.5815 O.2       8 UNK        -0.5046 
     54 N          20.8013  -33.3266  -40.2733 N.am      9 UNK        -0.4200 
     55 CA         20.8786  -34.3021  -41.3713 C.3       9 UNK         0.0839 
     56 C          21.9503  -35.4099  -41.1138 C.2       9 UNK         0.5513 
     57 N          21.8765  -36.5520  -41.7856 N.am      9 UNK        -0.7519 
     58 O          22.8958  -35.2227  -40.3499 O.2       9 UNK        -0.4960 
     59 C59        19.4775  -34.8518  -41.7878 C.3       10 UNK        -0.0876 
     60 S60        18.1903  -33.6647  -42.3437 S.3       10 UNK        -0.2414 
     61 C61        18.9984  -32.0424  -42.5271 C.3       10 UNK         0.0169 
     62 H62        20.0771  -29.4356  -42.0687 H         1 UNK         0.0903 
     63 H63        20.8195  -29.0364  -43.6258 H         1 UNK         0.0903 
     64 H64        21.6792  -28.7168  -42.1142 H         1 UNK         0.0903 
     65 H65        18.2972  -28.0327  -43.2287 H         1 UNK         0.3096 
     66 H66        18.1145  -25.5550  -41.8985 H         1 UNK         0.1121 
     67 H67        15.9986  -25.2363  -43.1672 H         1 UNK         0.0849 
     68 H68        16.4075  -26.5459  -44.2438 H         1 UNK         0.0849 
     69 H69        14.5971  -29.3738  -42.5414 H         1 UNK         0.0865 
     70 H70        14.5944  -28.3027  -43.9144 H         1 UNK         0.0865 
     71 H71        16.9288  -30.3961  -41.8198 H         1 UNK         0.1346 
     72 H72        19.2283  -31.6715  -45.2065 H         1 UNK         0.1412 
     73 H73        16.0903  -28.7986  -45.7163 H         1 UNK         0.1426 
     74 H74        17.0075  -30.1969  -47.6486 H         1 UNK         0.0716 
     75 H75        18.4792  -31.1057  -47.4335 H         1 UNK         0.0716 
     76 H76        20.9915  -29.9545  -47.6069 H         1 UNK         0.0695 
     77 H77        20.4846  -29.5339  -45.9890 H         1 UNK         0.0695 
     78 H78        21.7052  -27.6429  -48.0591 H         1 UNK         0.0983 
     79 H79        20.5053  -27.0037  -45.4161 H         1 UNK         0.3095 
     80 H80        20.5344  -23.9111  -45.4545 H         1 UNK         0.0454 
     81 H81        19.5645  -23.1678  -47.6287 H         1 UNK         0.0851 
     82 H82        18.3485  -23.0740  -46.3685 H         1 UNK         0.0851 
     83 H83        18.3182  -24.4048  -47.5249 H         1 UNK         0.0851 
     84 H84        18.8306  -26.2880  -45.2998 H         1 UNK         0.2976 
     85 H85        22.6934  -27.0606  -44.8418 H         1 UNK         0.3116 
     86 H86        25.3458  -27.9853  -45.2127 H         1 UNK         0.0646 
     87 H87        25.3628  -29.6506  -43.3167 H         1 UNK         0.0847 
     88 H88        24.3332  -30.2220  -44.6106 H         1 UNK         0.0847 
     89 H89        23.6176  -29.5200  -43.1656 H         1 UNK         0.0847 
     90 H90        26.4721  -27.6571  -42.9405 H         1 UNK         0.3040 
     91 H91        25.8381  -24.9677  -42.0498 H         1 UNK         0.1015 
     92 H92        27.9599  -25.2248  -40.7779 H         1 UNK         0.0786 
     93 H93        28.1731  -25.6983  -42.4537 H         1 UNK         0.0786 
     94 H94        28.0329  -26.9305  -41.1993 H         1 UNK         0.0786 
     95 H95        23.6281  -25.9966  -41.3759 H         1 UNK         0.3172 
     96 H96        22.0854  -26.2598  -39.8125 H         1 UNK         0.0595 
     97 H97        24.1528  -25.3142  -37.7636 H         1 UNK         0.0839 
     98 H98        22.4063  -25.2816  -37.5818 H         1 UNK         0.0839 
     99 H99        23.1740  -24.2545  -38.7784 H         1 UNK         0.0839 
    100 H100       23.8507  -28.5664  -40.4237 H         1 UNK         0.2998 
    101 H101       23.9760  -30.2410  -38.0593 H         1 UNK         0.0822 
    102 H102       25.5241  -30.5524  -40.0024 H         1 UNK         0.0787 
    103 H103       24.5804  -32.0071  -39.7220 H         1 UNK         0.0787 
    104 H104       24.1568  -30.9367  -41.0490 H         1 UNK         0.0787 
    105 H105       22.5597  -31.8901  -37.4505 H         1 UNK         0.3055 
    106 H106       19.7747  -31.6775  -38.2973 H         1 UNK         0.1106 
    107 H107       21.1198  -33.4885  -36.2234 H         1 UNK         0.0828 
    108 H108       20.4006  -31.9108  -35.8971 H         1 UNK         0.0828 
    109 H109       19.3894  -33.2454  -36.4182 H         1 UNK         0.0828 
    110 H110       21.1028  -32.3831  -40.4921 H         1 UNK         0.2931 
    111 H111       21.2889  -33.7554  -42.2188 H         1 UNK         0.0412 
    112 H112       21.1354  -36.7308  -42.4442 H         1 UNK         0.3472 
    113 H113       22.5851  -37.2526  -41.6309 H         1 UNK         0.3472 
    114 H114       19.5866  -35.5510  -42.6172 H         1 UNK         0.0970 
    115 H115       19.0541  -35.4387  -40.9712 H         1 UNK         0.0970 
    116 H116       19.1284  -31.5905  -41.5432 H         1 UNK         0.0612 
    117 H117       19.9908  -32.1539  -42.9618 H         1 UNK         0.0612 
@<TRIPOS>BOND
     1    1    2 1    
     2    1   62 1    
     3    1   63 1    
     4    1   64 1    
     5    2    3 2    
     6    2    4 am   BACKBONE|DICT|INTERRES
     7    4    5 1    
     8    4   65 1    
     9    5    6 1    
    10    5   25 1    
    11    5   66 1    
    12    6    7 1    
    13    6   67 1    
    14    6   68 1    
    15    7    8 1    
    16    8    9 1    
    17    8   69 1    
    18    8   70 1    
    19    9   10 ar   
    20    9   14 ar   
    21   10   11 ar   
    22   10   71 1    
    23   11   12 ar   
    24   11   61 1    
    25   12   13 ar   
    26   12   72 1    
    27   13   14 ar   
    28   13   15 1    
    29   14   73 1    
    30   15   16 1    
    31   15   74 1    
    32   15   75 1    
    33   16   17 1    
    34   17   18 1    
    35   17   76 1    
    36   17   77 1    
    37   18   19 1    
    38   18   27 1    
    39   18   78 1    
    40   19   20 am   BACKBONE|DICT|INTERRES
    41   19   79 1    
    42   20   21 2    
    43   20   22 1    
    44   22   23 1    
    45   22   24 1    
    46   22   80 1    
    47   23   81 1    
    48   23   82 1    
    49   23   83 1    
    50   24   25 am   BACKBONE|DICT|INTERRES
    51   24   84 1    
    52   25   26 2    
    53   27   28 2    
    54   27   29 am   BACKBONE|DICT|INTERRES
    55   29   30 1    
    56   29   85 1    
    57   30   31 1    
    58   30   32 1    
    59   30   86 1    
    60   31   87 1    
    61   31   88 1    
    62   31   89 1    
    63   32   33 2    
    64   32   34 am   BACKBONE|DICT|INTERRES
    65   34   35 1    
    66   34   90 1    
    67   35   36 1    
    68   35   37 1    
    69   35   91 1    
    70   36   92 1    
    71   36   93 1    
    72   36   94 1    
    73   37   38 2    
    74   37   39 am   BACKBONE|DICT|INTERRES
    75   39   40 1    
    76   39   95 1    
    77   40   41 1    
    78   40   42 1    
    79   40   96 1    
    80   41   97 1    
    81   41   98 1    
    82   41   99 1    
    83   42   43 2    
    84   42   44 am   BACKBONE|DICT|INTERRES
    85   44   45 1    
    86   44  100 1    
    87   45   46 1    
    88   45   47 1    
    89   45  101 1    
    90   46  102 1    
    91   46  103 1    
    92   46  104 1    
    93   47   48 2    
    94   47   49 am   BACKBONE|DICT|INTERRES
    95   49   50 1    
    96   49  105 1    
    97   50   51 1    
    98   50   52 1    
    99   50  106 1    
   100   51  107 1    
   101   51  108 1    
   102   51  109 1    
   103   52   53 2    
   104   52   54 am   BACKBONE|DICT|INTERRES
   105   54   55 1    
   106   54  110 1    
   107   55   56 1    
   108   55   59 1    
   109   55  111 1    
   110   56   57 am   BACKBONE|DICT|INTERRES
   111   56   58 2    
   112   57  112 1    
   113   57  113 1    
   114   59   60 1    
   115   59  114 1    
   116   59  115 1    
   117   60   61 1    
   118   61  116 1    
   119   61  117 1    
@<TRIPOS>SUBSTRUCTURE
     1 UNK         1 GROUP             0       ****    0 ROOT    
