@<TRIPOS>MOLECULE
3R8
117   119    1
SMALL
USER_CHARGES


@<TRIPOS>ATOM
      1 CA         19.6606  -28.7613  -41.5291 C.3       0 UNK        -0.2013 
      2 C          19.0121  -27.7227  -42.4288 C.2       0 UNK         0.4866 
      3 O          19.6339  -27.2914  -43.3985 O.2       0 UNK        -0.5176 
      4 N          17.7786  -27.3076  -42.1063 N.am      1 UNK        -0.4884 
      5 CA         16.9374  -26.3706  -42.8699 C.3       1 UNK         0.0853 
      6 C6         16.3386  -27.0140  -44.1551 C.3       10 UNK        -0.0849 
      7 S7         15.4031  -28.5447  -43.8243 S.3       10 UNK        -0.2776 
      8 C8         15.7185  -29.4949  -45.3478 C.3       10 UNK         0.0316 
      9 C9         17.1642  -29.9632  -45.4494 C.ar      10 UNK        -0.0863 
     10 C10        17.6146  -31.0137  -44.6466 C.ar      10 UNK        -0.1009 
     11 C11        18.9336  -31.4682  -44.7398 C.ar      10 UNK        -0.0712 
     12 C12        19.8061  -30.8571  -45.6478 C.ar      10 UNK        -0.0894 
     13 C13        19.3645  -29.8173  -46.4741 C.ar      10 UNK        -0.0745 
     14 C14        18.0405  -29.3767  -46.3685 C.ar      10 UNK        -0.0972 
     15 C15        20.2934  -29.2387  -47.5391 C.3       10 UNK         0.0209 
     16 S16        20.3757  -27.4171  -47.5374 S.3       10 UNK        -0.2568 
     17 C17        21.5028  -27.1137  -46.1397 C.3       10 UNK        -0.0983 
     18 CA         21.5205  -25.6249  -45.7074 C.3       3 UNK         0.0876 
     19 N          20.1899  -25.1057  -45.3708 N.am      3 UNK        -0.4424 
     20 C          19.8792  -23.8028  -45.2807 C.2       2 UNK         0.4918 
     21 O          20.6795  -22.8973  -45.5176 O.2       2 UNK        -0.4875 
     22 CA         18.4387  -23.4261  -44.8798 C.3       2 UNK         0.0481 
     23 CB         17.6994  -22.7974  -46.0728 C.3       2 UNK        -0.1831 
     24 N          17.6645  -24.5699  -44.3963 N.am      2 UNK        -0.4498 
     25 C          17.6729  -25.0326  -43.1377 C.2       1 UNK         0.5027 
     26 O          18.2495  -24.4627  -42.2081 O.2       1 UNK        -0.4969 
     27 C          22.4952  -25.4076  -44.5363 C.2       3 UNK         0.5005 
     28 O          23.6314  -24.9877  -44.7605 O.2       3 UNK        -0.5279 
     29 N          22.0174  -25.6799  -43.3115 N.am      4 UNK        -0.4463 
     30 CA         22.6210  -25.4375  -41.9915 C.3       4 UNK         0.0283 
     31 CB         22.8494  -23.9321  -41.7596 C.3       4 UNK        -0.1875 
     32 C          23.8986  -26.2386  -41.6779 C.2       4 UNK         0.4949 
     33 O          24.0705  -26.6589  -40.5341 O.2       4 UNK        -0.5039 
     34 N          24.7609  -26.4534  -42.6798 N.am      5 UNK        -0.4663 
     35 CA         25.9968  -27.2394  -42.5958 C.3       5 UNK         0.0242 
     36 CB         26.7991  -27.0596  -43.8940 C.3       5 UNK        -0.1982 
     37 C          25.7471  -28.7314  -42.3172 C.2       5 UNK         0.5017 
     38 O          26.5851  -29.3826  -41.6917 O.2       5 UNK        -0.5012 
     39 N          24.5812  -29.2343  -42.7443 N.am      6 UNK        -0.4439 
     40 CA         24.0484  -30.5541  -42.4104 C.3       6 UNK         0.0297 
     41 CB         23.0175  -30.9566  -43.4828 C.3       6 UNK        -0.2006 
     42 C          23.4473  -30.5348  -40.9921 C.2       6 UNK         0.4892 
     43 O          22.2313  -30.6503  -40.8406 O.2       6 UNK        -0.5089 
     44 N          24.3080  -30.3399  -39.9835 N.am      7 UNK        -0.4243 
     45 CA         23.9644  -30.1857  -38.5675 C.3       7 UNK         0.0196 
     46 CB         25.2503  -29.9298  -37.7629 C.3       7 UNK        -0.2007 
     47 C          23.1883  -31.3967  -38.0218 C.2       7 UNK         0.5020 
     48 O          23.7839  -32.4526  -37.8038 O.2       7 UNK        -0.5147 
     49 N          21.8687  -31.2180  -37.8623 N.am      8 UNK        -0.4734 
     50 CA         20.8614  -32.2266  -37.4990 C.3       8 UNK         0.0238 
     51 CB         21.1197  -32.7867  -36.0833 C.3       8 UNK        -0.1912 
     52 C          20.6744  -33.3432  -38.5508 C.2       8 UNK         0.5038 
     53 O          20.0855  -34.3766  -38.2268 O.2       8 UNK        -0.5046 
     54 N          21.1430  -33.1097  -39.7857 N.am      9 UNK        -0.4200 
     55 CA         21.0925  -34.0237  -40.9376 C.3       9 UNK         0.0839 
     56 C          21.7907  -35.3957  -40.6750 C.2       9 UNK         0.5513 
     57 N          21.4020  -36.4673  -41.3549 N.am      9 UNK        -0.7519 
     58 O          22.7392  -35.4895  -39.8989 O.2       9 UNK        -0.4960 
     59 C59        19.6617  -34.1191  -41.5427 C.3       10 UNK        -0.0876 
     60 S60        19.0630  -32.5004  -42.1409 S.3       10 UNK        -0.2414 
     61 C61        19.3922  -32.6714  -43.9246 C.3       10 UNK         0.0169 
     62 H62        20.5260  -28.3359  -41.0218 H         1 UNK         0.0903 
     63 H63        18.9716  -29.1429  -40.7763 H         1 UNK         0.0903 
     64 H64        20.0027  -29.6044  -42.1290 H         1 UNK         0.0903 
     65 H65        17.3422  -27.6839  -41.2766 H         1 UNK         0.3096 
     66 H66        16.1034  -26.1119  -42.2153 H         1 UNK         0.1121 
     67 H67        15.6499  -26.3268  -44.6501 H         1 UNK         0.0849 
     68 H68        17.1355  -27.2299  -44.8674 H         1 UNK         0.0849 
     69 H69        15.0593  -30.3641  -45.3625 H         1 UNK         0.0865 
     70 H70        15.4419  -28.8919  -46.2142 H         1 UNK         0.0865 
     71 H71        16.9322  -31.4861  -43.9531 H         1 UNK         0.1346 
     72 H72        20.8204  -31.2202  -45.7411 H         1 UNK         0.1412 
     73 H73        17.6908  -28.5834  -47.0149 H         1 UNK         0.1426 
     74 H74        19.9344  -29.5646  -48.5161 H         1 UNK         0.0716 
     75 H75        21.3036  -29.6385  -47.4374 H         1 UNK         0.0716 
     76 H76        21.2157  -27.7652  -45.3137 H         1 UNK         0.0695 
     77 H77        22.5028  -27.4307  -46.4417 H         1 UNK         0.0695 
     78 H78        21.8982  -25.0411  -46.5501 H         1 UNK         0.0983 
     79 H79        19.5061  -25.8004  -45.1025 H         1 UNK         0.3095 
     80 H80        18.5034  -22.6757  -44.0892 H         1 UNK         0.0454 
     81 H81        18.2250  -21.9134  -46.4366 H         1 UNK         0.0851 
     82 H82        17.6151  -23.4920  -46.9095 H         1 UNK         0.0851 
     83 H83        16.6940  -22.4807  -45.7952 H         1 UNK         0.0851 
     84 H84        17.1566  -25.0893  -45.0975 H         1 UNK         0.2976 
     85 H85        21.0937  -26.1104  -43.2839 H         1 UNK         0.3116 
     86 H86        21.8697  -25.7665  -41.2715 H         1 UNK         0.0646 
     87 H87        23.2058  -23.7436  -40.7461 H         1 UNK         0.0847 
     88 H88        21.9258  -23.3676  -41.8886 H         1 UNK         0.0847 
     89 H89        23.5916  -23.5220  -42.4452 H         1 UNK         0.0847 
     90 H90        24.5455  -26.0100  -43.5714 H         1 UNK         0.3040 
     91 H91        26.5875  -26.8476  -41.7647 H         1 UNK         0.1015 
     92 H92        27.0523  -26.0124  -44.0614 H         1 UNK         0.0786 
     93 H93        26.2443  -27.4134  -44.7640 H         1 UNK         0.0786 
     94 H94        27.7365  -27.6164  -43.8547 H         1 UNK         0.0786 
     95 H95        23.9512  -28.6004  -43.2132 H         1 UNK         0.3172 
     96 H96        24.8579  -31.2870  -42.4248 H         1 UNK         0.0595 
     97 H97        22.1711  -30.2685  -43.5138 H         1 UNK         0.0839 
     98 H98        22.6195  -31.9512  -43.2826 H         1 UNK         0.0839 
     99 H99        23.4655  -30.9825  -44.4761 H         1 UNK         0.0839 
    100 H100       25.2850  -30.2262  -40.2269 H         1 UNK         0.2998 
    101 H101       23.3358  -29.2967  -38.4805 H         1 UNK         0.0822 
    102 H102       25.7503  -29.0195  -38.0949 H         1 UNK         0.0787 
    103 H103       25.0287  -29.8093  -36.7016 H         1 UNK         0.0787 
    104 H104       25.9577  -30.7548  -37.8573 H         1 UNK         0.0787 
    105 H105       21.4908  -30.3163  -38.1215 H         1 UNK         0.3055 
    106 H106       19.9073  -31.6978  -37.4693 H         1 UNK         0.1106 
    107 H107       22.0142  -33.4092  -36.0500 H         1 UNK         0.0828 
    108 H108       21.2398  -31.9856  -35.3541 H         1 UNK         0.0828 
    109 H109       20.2854  -33.4040  -35.7479 H         1 UNK         0.0828 
    110 H110       21.5806  -32.2120  -39.9729 H         1 UNK         0.2931 
    111 H111       21.7253  -33.5530  -41.6899 H         1 UNK         0.0412 
    112 H112       21.8770  -37.3423  -41.1944 H         1 UNK         0.3472 
    113 H113       20.6455  -36.4265  -42.0186 H         1 UNK         0.3472 
    114 H114       18.9588  -34.5006  -40.8004 H         1 UNK         0.0970 
    115 H115       19.6266  -34.8210  -42.3760 H         1 UNK         0.0970 
    116 H116       18.8755  -33.5555  -44.3004 H         1 UNK         0.0612 
    117 H117       20.4588  -32.8496  -44.0667 H         1 UNK         0.0612 
@<TRIPOS>BOND
     1    1    2 1    
     2    1   62 1    
     3    1   63 1    
     4    1   64 1    
     5    2    3 2    
     6    2    4 am   BACKBONE|DICT|INTERRES
     7    4    5 1    
     8    4   65 1    
     9    5    6 1    
    10    5   25 1    
    11    5   66 1    
    12    6    7 1    
    13    6   67 1    
    14    6   68 1    
    15    7    8 1    
    16    8    9 1    
    17    8   69 1    
    18    8   70 1    
    19    9   10 ar   
    20    9   14 ar   
    21   10   11 ar   
    22   10   71 1    
    23   11   12 ar   
    24   11   61 1    
    25   12   13 ar   
    26   12   72 1    
    27   13   14 ar   
    28   13   15 1    
    29   14   73 1    
    30   15   16 1    
    31   15   74 1    
    32   15   75 1    
    33   16   17 1    
    34   17   18 1    
    35   17   76 1    
    36   17   77 1    
    37   18   19 1    
    38   18   27 1    
    39   18   78 1    
    40   19   20 am   BACKBONE|DICT|INTERRES
    41   19   79 1    
    42   20   21 2    
    43   20   22 1    
    44   22   23 1    
    45   22   24 1    
    46   22   80 1    
    47   23   81 1    
    48   23   82 1    
    49   23   83 1    
    50   24   25 am   BACKBONE|DICT|INTERRES
    51   24   84 1    
    52   25   26 2    
    53   27   28 2    
    54   27   29 am   BACKBONE|DICT|INTERRES
    55   29   30 1    
    56   29   85 1    
    57   30   31 1    
    58   30   32 1    
    59   30   86 1    
    60   31   87 1    
    61   31   88 1    
    62   31   89 1    
    63   32   33 2    
    64   32   34 am   BACKBONE|DICT|INTERRES
    65   34   35 1    
    66   34   90 1    
    67   35   36 1    
    68   35   37 1    
    69   35   91 1    
    70   36   92 1    
    71   36   93 1    
    72   36   94 1    
    73   37   38 2    
    74   37   39 am   BACKBONE|DICT|INTERRES
    75   39   40 1    
    76   39   95 1    
    77   40   41 1    
    78   40   42 1    
    79   40   96 1    
    80   41   97 1    
    81   41   98 1    
    82   41   99 1    
    83   42   43 2    
    84   42   44 am   BACKBONE|DICT|INTERRES
    85   44   45 1    
    86   44  100 1    
    87   45   46 1    
    88   45   47 1    
    89   45  101 1    
    90   46  102 1    
    91   46  103 1    
    92   46  104 1    
    93   47   48 2    
    94   47   49 am   BACKBONE|DICT|INTERRES
    95   49   50 1    
    96   49  105 1    
    97   50   51 1    
    98   50   52 1    
    99   50  106 1    
   100   51  107 1    
   101   51  108 1    
   102   51  109 1    
   103   52   53 2    
   104   52   54 am   BACKBONE|DICT|INTERRES
   105   54   55 1    
   106   54  110 1    
   107   55   56 1    
   108   55   59 1    
   109   55  111 1    
   110   56   57 am   BACKBONE|DICT|INTERRES
   111   56   58 2    
   112   57  112 1    
   113   57  113 1    
   114   59   60 1    
   115   59  114 1    
   116   59  115 1    
   117   60   61 1    
   118   61  116 1    
   119   61  117 1    
@<TRIPOS>SUBSTRUCTURE
     1 UNK         1 GROUP             0       ****    0 ROOT    
