@<TRIPOS>MOLECULE
3R8
117   119    1
SMALL
USER_CHARGES


@<TRIPOS>ATOM
      1 CA         18.2121  -27.5266  -39.7857 C.3       0 UNK        -0.2013 
      2 C          17.6857  -26.6204  -40.8868 C.2       0 UNK         0.4866 
      3 O          17.6567  -25.4011  -40.7189 O.2       0 UNK        -0.5176 
      4 N          17.2631  -27.2083  -42.0115 N.am      1 UNK        -0.4884 
      5 CA         16.7791  -26.4941  -43.1948 C.3       1 UNK         0.0853 
      6 C6         15.7448  -27.3613  -43.9839 C.3       10 UNK        -0.0849 
      7 S7         15.6783  -27.1853  -45.8090 S.3       10 UNK        -0.2776 
      8 C8         15.9217  -28.9027  -46.3818 C.3       10 UNK         0.0316 
      9 C9         17.2918  -29.4691  -46.0237 C.ar      10 UNK        -0.0863 
     10 C10        17.4254  -30.3724  -44.9642 C.ar      10 UNK        -0.1009 
     11 C11        18.6714  -30.9187  -44.6476 C.ar      10 UNK        -0.0712 
     12 C12        19.7878  -30.5620  -45.4083 C.ar      10 UNK        -0.0894 
     13 C13        19.6819  -29.6456  -46.4595 C.ar      10 UNK        -0.0745 
     14 C14        18.4217  -29.1156  -46.7701 C.ar      10 UNK        -0.0972 
     15 C15        20.9255  -29.2875  -47.2758 C.3       10 UNK         0.0209 
     16 S16        21.0149  -27.5236  -47.7419 S.3       10 UNK        -0.2568 
     17 C17        22.5446  -26.9057  -46.9358 C.3       10 UNK        -0.0983 
     18 CA         22.3303  -26.1133  -45.6115 C.3       3 UNK         0.0876 
     19 N          21.0726  -25.3625  -45.6288 N.am      3 UNK        -0.4424 
     20 C          20.6207  -24.4911  -44.7193 C.2       2 UNK         0.4918 
     21 O          21.2717  -24.1001  -43.7503 O.2       2 UNK        -0.4875 
     22 CA         19.1787  -23.9797  -44.9269 C.3       2 UNK         0.0481 
     23 CB         18.7341  -23.9905  -46.4073 C.3       2 UNK        -0.1831 
     24 N          18.1823  -24.6868  -44.1093 N.am      2 UNK        -0.4498 
     25 C          18.0018  -26.0142  -44.0039 C.2       1 UNK         0.5027 
     26 O          18.7435  -26.8546  -44.5110 O.2       1 UNK        -0.4969 
     27 C          22.4811  -27.0278  -44.3787 C.2       3 UNK         0.5005 
     28 O          23.6058  -27.2376  -43.9163 O.2       3 UNK        -0.5279 
     29 N          21.3594  -27.5700  -43.8808 N.am      4 UNK        -0.4463 
     30 CA         21.1992  -28.3723  -42.6618 C.3       4 UNK         0.0283 
     31 CB         21.3920  -27.4795  -41.4212 C.3       4 UNK        -0.1875 
     32 C          22.0611  -29.6500  -42.5900 C.2       4 UNK         0.4949 
     33 O          22.2192  -30.2141  -41.5064 O.2       4 UNK        -0.5039 
     34 N          22.6345  -30.0619  -43.7303 N.am      5 UNK        -0.4663 
     35 CA         23.6378  -31.1193  -43.8930 C.3       5 UNK         0.0242 
     36 CB         23.0088  -32.5096  -43.6562 C.3       5 UNK        -0.1982 
     37 C          24.9029  -30.8470  -43.0519 C.2       5 UNK         0.5017 
     38 O          25.4549  -31.7704  -42.4541 O.2       5 UNK        -0.5012 
     39 N          25.3113  -29.5664  -43.0092 N.am      6 UNK        -0.4439 
     40 CA         26.3763  -29.0008  -42.1714 C.3       6 UNK         0.0297 
     41 CB         27.7557  -29.6031  -42.5167 C.3       6 UNK        -0.2006 
     42 C          26.0284  -29.0786  -40.6714 C.2       6 UNK         0.4892 
     43 O          26.8681  -29.4695  -39.8588 O.2       6 UNK        -0.5089 
     44 N          24.7829  -28.6940  -40.3511 N.am      7 UNK        -0.4243 
     45 CA         24.1553  -28.6902  -39.0230 C.3       7 UNK         0.0196 
     46 CB         24.8460  -27.6741  -38.0880 C.3       7 UNK        -0.2007 
     47 C          24.0345  -30.0989  -38.4096 C.2       7 UNK         0.5020 
     48 O          24.2624  -30.2708  -37.2106 O.2       7 UNK        -0.5147 
     49 N          23.6737  -31.0804  -39.2450 N.am      8 UNK        -0.4734 
     50 CA         23.4412  -32.4673  -38.8443 C.3       8 UNK         0.0238 
     51 CB         24.0827  -33.4195  -39.8643 C.3       8 UNK        -0.1912 
     52 C          21.9447  -32.7682  -38.6811 C.2       8 UNK         0.5038 
     53 O          21.5997  -33.5227  -37.7699 O.2       8 UNK        -0.5046 
     54 N          21.0864  -32.1868  -39.5349 N.am      9 UNK        -0.4200 
     55 CA         19.6223  -32.2679  -39.3982 C.3       9 UNK         0.0839 
     56 C          19.0444  -31.0884  -38.5651 C.2       9 UNK         0.5513 
     57 N          17.7548  -31.1208  -38.2563 N.am      9 UNK        -0.7519 
     58 O          19.7437  -30.1491  -38.1894 O.2       9 UNK        -0.4960 
     59 C59        18.9063  -32.5063  -40.7588 C.3       10 UNK        -0.0876 
     60 S60        18.8362  -31.0745  -41.8876 S.3       10 UNK        -0.2414 
     61 C61        18.8035  -31.9129  -43.5020 C.3       10 UNK         0.0169 
     62 H62        17.4562  -27.6596  -39.0126 H         1 UNK         0.0903 
     63 H63        18.4847  -28.5088  -40.1704 H         1 UNK         0.0903 
     64 H64        19.0971  -27.0909  -39.3231 H         1 UNK         0.0903 
     65 H65        17.3606  -28.2086  -42.1165 H         1 UNK         0.3096 
     66 H66        16.2416  -25.6029  -42.8623 H         1 UNK         0.1121 
     67 H67        15.9035  -28.4153  -43.7601 H         1 UNK         0.0849 
     68 H68        14.7450  -27.1538  -43.5997 H         1 UNK         0.0849 
     69 H69        15.1282  -29.5312  -45.9743 H         1 UNK         0.0865 
     70 H70        15.7963  -28.9295  -47.4652 H         1 UNK         0.0865 
     71 H71        16.5584  -30.6588  -44.3848 H         1 UNK         0.1346 
     72 H72        20.7411  -31.0152  -45.1868 H         1 UNK         0.1412 
     73 H73        18.3160  -28.4204  -47.5911 H         1 UNK         0.1426 
     74 H74        20.9172  -29.8832  -48.1893 H         1 UNK         0.0716 
     75 H75        21.8306  -29.5701  -46.7378 H         1 UNK         0.0716 
     76 H76        23.0069  -26.2325  -47.6592 H         1 UNK         0.0695 
     77 H77        23.2655  -27.7175  -46.8192 H         1 UNK         0.0695 
     78 H78        23.1320  -25.3763  -45.5290 H         1 UNK         0.0983 
     79 H79        20.4335  -25.6497  -46.3572 H         1 UNK         0.3095 
     80 H80        19.1728  -22.9413  -44.5923 H         1 UNK         0.0454 
     81 H81        19.4654  -23.4918  -47.0450 H         1 UNK         0.0851 
     82 H82        17.7899  -23.4607  -46.5330 H         1 UNK         0.0851 
     83 H83        18.5905  -25.0017  -46.7909 H         1 UNK         0.0851 
     84 H84        17.5559  -24.0865  -43.5910 H         1 UNK         0.2976 
     85 H85        20.4778  -27.3383  -44.3417 H         1 UNK         0.3116 
     86 H86        20.1610  -28.7006  -42.6726 H         1 UNK         0.0646 
     87 H87        22.4174  -27.1209  -41.3346 H         1 UNK         0.0847 
     88 H88        20.7415  -26.6059  -41.4619 H         1 UNK         0.0847 
     89 H89        21.1490  -28.0210  -40.5064 H         1 UNK         0.0847 
     90 H90        22.4556  -29.4941  -44.5454 H         1 UNK         0.3040 
     91 H91        23.9683  -31.0854  -44.9324 H         1 UNK         0.1015 
     92 H92        23.7550  -33.3024  -43.7215 H         1 UNK         0.0786 
     93 H93        22.2491  -32.7283  -44.4057 H         1 UNK         0.0786 
     94 H94        22.5330  -32.5830  -42.6796 H         1 UNK         0.0786 
     95 H95        24.7539  -28.8789  -43.5102 H         1 UNK         0.3172 
     96 H96        26.4171  -27.9384  -42.4168 H         1 UNK         0.0595 
     97 H97        27.8263  -30.6537  -42.2338 H         1 UNK         0.0839 
     98 H98        28.5516  -29.0750  -41.9901 H         1 UNK         0.0839 
     99 H99        27.9673  -29.5269  -43.5831 H         1 UNK         0.0839 
    100 H100       24.1771  -28.4301  -41.1146 H         1 UNK         0.2998 
    101 H101       23.1308  -28.3480  -39.1691 H         1 UNK         0.0822 
    102 H102       24.3002  -27.5741  -37.1490 H         1 UNK         0.0787 
    103 H103       24.8908  -26.6841  -38.5418 H         1 UNK         0.0787 
    104 H104       25.8638  -27.9769  -37.8403 H         1 UNK         0.0787 
    105 H105       23.4292  -30.8304  -40.2002 H         1 UNK         0.3055 
    106 H106       23.9160  -32.6575  -37.8789 H         1 UNK         0.1106 
    107 H107       25.1541  -33.2382  -39.9540 H         1 UNK         0.0828 
    108 H108       23.9525  -34.4598  -39.5636 H         1 UNK         0.0828 
    109 H109       23.6449  -33.3093  -40.8544 H         1 UNK         0.0828 
    110 H110       21.4331  -31.5273  -40.2243 H         1 UNK         0.2931 
    111 H111       19.3956  -33.1558  -38.8051 H         1 UNK         0.0412 
    112 H112       17.3649  -30.3688  -37.7104 H         1 UNK         0.3472 
    113 H113       17.1649  -31.8835  -38.5493 H         1 UNK         0.3472 
    114 H114       19.3884  -33.3402  -41.2713 H         1 UNK         0.0970 
    115 H115       17.8803  -32.8337  -40.5841 H         1 UNK         0.0970 
    116 H116       19.7123  -32.5061  -43.6150 H         1 UNK         0.0612 
    117 H117       17.9682  -32.6142  -43.5278 H         1 UNK         0.0612 
@<TRIPOS>BOND
     1    1    2 1    
     2    1   62 1    
     3    1   63 1    
     4    1   64 1    
     5    2    3 2    
     6    2    4 am   BACKBONE|DICT|INTERRES
     7    4    5 1    
     8    4   65 1    
     9    5    6 1    
    10    5   25 1    
    11    5   66 1    
    12    6    7 1    
    13    6   67 1    
    14    6   68 1    
    15    7    8 1    
    16    8    9 1    
    17    8   69 1    
    18    8   70 1    
    19    9   10 ar   
    20    9   14 ar   
    21   10   11 ar   
    22   10   71 1    
    23   11   12 ar   
    24   11   61 1    
    25   12   13 ar   
    26   12   72 1    
    27   13   14 ar   
    28   13   15 1    
    29   14   73 1    
    30   15   16 1    
    31   15   74 1    
    32   15   75 1    
    33   16   17 1    
    34   17   18 1    
    35   17   76 1    
    36   17   77 1    
    37   18   19 1    
    38   18   27 1    
    39   18   78 1    
    40   19   20 am   BACKBONE|DICT|INTERRES
    41   19   79 1    
    42   20   21 2    
    43   20   22 1    
    44   22   23 1    
    45   22   24 1    
    46   22   80 1    
    47   23   81 1    
    48   23   82 1    
    49   23   83 1    
    50   24   25 am   BACKBONE|DICT|INTERRES
    51   24   84 1    
    52   25   26 2    
    53   27   28 2    
    54   27   29 am   BACKBONE|DICT|INTERRES
    55   29   30 1    
    56   29   85 1    
    57   30   31 1    
    58   30   32 1    
    59   30   86 1    
    60   31   87 1    
    61   31   88 1    
    62   31   89 1    
    63   32   33 2    
    64   32   34 am   BACKBONE|DICT|INTERRES
    65   34   35 1    
    66   34   90 1    
    67   35   36 1    
    68   35   37 1    
    69   35   91 1    
    70   36   92 1    
    71   36   93 1    
    72   36   94 1    
    73   37   38 2    
    74   37   39 am   BACKBONE|DICT|INTERRES
    75   39   40 1    
    76   39   95 1    
    77   40   41 1    
    78   40   42 1    
    79   40   96 1    
    80   41   97 1    
    81   41   98 1    
    82   41   99 1    
    83   42   43 2    
    84   42   44 am   BACKBONE|DICT|INTERRES
    85   44   45 1    
    86   44  100 1    
    87   45   46 1    
    88   45   47 1    
    89   45  101 1    
    90   46  102 1    
    91   46  103 1    
    92   46  104 1    
    93   47   48 2    
    94   47   49 am   BACKBONE|DICT|INTERRES
    95   49   50 1    
    96   49  105 1    
    97   50   51 1    
    98   50   52 1    
    99   50  106 1    
   100   51  107 1    
   101   51  108 1    
   102   51  109 1    
   103   52   53 2    
   104   52   54 am   BACKBONE|DICT|INTERRES
   105   54   55 1    
   106   54  110 1    
   107   55   56 1    
   108   55   59 1    
   109   55  111 1    
   110   56   57 am   BACKBONE|DICT|INTERRES
   111   56   58 2    
   112   57  112 1    
   113   57  113 1    
   114   59   60 1    
   115   59  114 1    
   116   59  115 1    
   117   60   61 1    
   118   61  116 1    
   119   61  117 1    
@<TRIPOS>SUBSTRUCTURE
     1 UNK         1 GROUP             0       ****    0 ROOT    
