@<TRIPOS>MOLECULE
3R8
117   119    1
SMALL
USER_CHARGES


@<TRIPOS>ATOM
      1 CA         22.0241  -25.2703  -40.3840 C.3       0 UNK        -0.2013 
      2 C          20.5451  -25.0820  -40.6784 C.2       0 UNK         0.4866 
      3 O          20.0809  -23.9458  -40.7752 O.2       0 UNK        -0.5176 
      4 N          19.8015  -26.1881  -40.8036 N.am      1 UNK        -0.4884 
      5 CA         18.3590  -26.2252  -41.0815 C.3       1 UNK         0.0853 
      6 C6         17.7937  -27.6635  -40.9605 C.3       10 UNK        -0.0849 
      7 S7         18.6647  -28.8626  -42.0289 S.3       10 UNK        -0.2776 
      8 C8         17.3329  -29.4731  -43.1097 C.3       10 UNK         0.0316 
      9 C9         17.9059  -30.3083  -44.2466 C.ar      10 UNK        -0.0863 
     10 C10        18.7665  -31.3729  -43.9645 C.ar      10 UNK        -0.1009 
     11 C11        19.3544  -32.1110  -44.9928 C.ar      10 UNK        -0.0712 
     12 C12        19.0572  -31.7927  -46.3199 C.ar      10 UNK        -0.0894 
     13 C13        18.1958  -30.7307  -46.6192 C.ar      10 UNK        -0.0745 
     14 C14        17.6082  -30.0040  -45.5787 C.ar      10 UNK        -0.0972 
     15 C15        17.9424  -30.3430  -48.0711 C.3       10 UNK         0.0209 
     16 S16        18.6390  -28.7088  -48.5063 S.3       10 UNK        -0.2568 
     17 C17        20.3634  -28.8138  -47.8980 C.3       10 UNK        -0.0983 
     18 CA         20.8217  -27.5833  -47.0657 C.3       3 UNK         0.0876 
     19 N          19.7810  -27.0434  -46.1798 N.am      3 UNK        -0.4424 
     20 C          19.7919  -25.8011  -45.6738 C.2       2 UNK         0.4918 
     21 O          20.7076  -24.9967  -45.8446 O.2       2 UNK        -0.4875 
     22 CA         18.5738  -25.3788  -44.8452 C.3       2 UNK         0.0481 
     23 CB         17.2438  -25.8739  -45.4590 C.3       2 UNK        -0.1831 
     24 N          18.7573  -25.8508  -43.4754 N.am      2 UNK        -0.4498 
     25 C          17.9668  -25.5798  -42.4288 C.2       1 UNK         0.5027 
     26 O          16.9661  -24.8629  -42.4855 O.2       1 UNK        -0.4969 
     27 C          22.1115  -27.9135  -46.2877 C.2       3 UNK         0.5005 
     28 O          23.2075  -27.7494  -46.8268 O.2       3 UNK        -0.5279 
     29 N          21.9535  -28.3737  -45.0370 N.am      4 UNK        -0.4463 
     30 CA         23.0398  -28.6210  -44.0904 C.3       4 UNK         0.0283 
     31 CB         22.4903  -29.4025  -42.8847 C.3       4 UNK        -0.1875 
     32 C          23.6694  -27.2962  -43.6318 C.2       4 UNK         0.4949 
     33 O          22.9377  -26.3532  -43.3266 O.2       4 UNK        -0.5039 
     34 N          25.0070  -27.2552  -43.5740 N.am      5 UNK        -0.4663 
     35 CA         25.7777  -26.0794  -43.1496 C.3       5 UNK         0.0242 
     36 CB         27.2459  -26.2557  -43.5704 C.3       5 UNK        -0.1982 
     37 C          25.6804  -25.8014  -41.6392 C.2       5 UNK         0.5017 
     38 O          25.7892  -24.6463  -41.2268 O.2       5 UNK        -0.5012 
     39 N          25.4685  -26.8595  -40.8516 N.am      6 UNK        -0.4439 
     40 CA         25.2254  -26.8343  -39.4163 C.3       6 UNK         0.0297 
     41 CB         26.5587  -26.8505  -38.6490 C.3       6 UNK        -0.2006 
     42 C          24.3755  -28.0636  -39.0846 C.2       6 UNK         0.4892 
     43 O          24.5635  -29.1078  -39.7155 O.2       6 UNK        -0.5089 
     44 N          23.4705  -27.9122  -38.1079 N.am      7 UNK        -0.4243 
     45 CA         22.5024  -28.9159  -37.6485 C.3       7 UNK         0.0196 
     46 CB         23.2250  -30.0488  -36.8816 C.3       7 UNK        -0.2007 
     47 C          21.5837  -29.4043  -38.7905 C.2       7 UNK         0.5020 
     48 O          21.1046  -28.5783  -39.5704 O.2       7 UNK        -0.5147 
     49 N          21.3456  -30.7175  -38.8605 N.am      8 UNK        -0.4734 
     50 CA         20.5594  -31.3996  -39.8827 C.3       8 UNK         0.0238 
     51 CB         19.0684  -31.3679  -39.4986 C.3       8 UNK        -0.1912 
     52 C          21.0603  -32.8456  -39.9922 C.2       8 UNK         0.5038 
     53 O          21.6698  -33.3518  -39.0449 O.2       8 UNK        -0.5046 
     54 N          20.7756  -33.4885  -41.1293 N.am      9 UNK        -0.4200 
     55 CA         20.9973  -34.9233  -41.3617 C.3       9 UNK         0.0839 
     56 C          20.0109  -35.8213  -40.5620 C.2       9 UNK         0.5513 
     57 N          20.3813  -37.0692  -40.3084 N.am      9 UNK        -0.7519 
     58 O          18.9118  -35.4120  -40.1922 O.2       9 UNK        -0.4960 
     59 C59        21.0087  -35.2684  -42.8782 C.3       10 UNK        -0.0876 
     60 S60        19.5785  -34.6081  -43.8084 S.3       10 UNK        -0.2414 
     61 C61        20.3595  -33.2012  -44.6588 C.3       10 UNK         0.0169 
     62 H62        22.2426  -24.9921  -39.3539 H         1 UNK         0.0903 
     63 H63        22.3319  -26.3042  -40.5378 H         1 UNK         0.0903 
     64 H64        22.6235  -24.6442  -41.0448 H         1 UNK         0.0903 
     65 H65        20.2338  -27.0961  -40.6468 H         1 UNK         0.3096 
     66 H66        17.8806  -25.6215  -40.3070 H         1 UNK         0.1121 
     67 H67        16.7215  -27.6804  -41.1654 H         1 UNK         0.0849 
     68 H68        17.8989  -28.0056  -39.9298 H         1 UNK         0.0849 
     69 H69        16.6385  -30.0794  -42.5265 H         1 UNK         0.0865 
     70 H70        16.7663  -28.6258  -43.4981 H         1 UNK         0.0865 
     71 H71        19.0016  -31.6071  -42.9365 H         1 UNK         0.1346 
     72 H72        19.5242  -32.3492  -47.1211 H         1 UNK         0.1412 
     73 H73        16.9396  -29.1885  -45.8148 H         1 UNK         0.1426 
     74 H74        16.8677  -30.3304  -48.2575 H         1 UNK         0.0716 
     75 H75        18.3602  -31.0900  -48.7479 H         1 UNK         0.0716 
     76 H76        21.0142  -28.9274  -48.7667 H         1 UNK         0.0695 
     77 H77        20.4957  -29.7315  -47.3271 H         1 UNK         0.0695 
     78 H78        21.0747  -26.7930  -47.7766 H         1 UNK         0.0983 
     79 H79        18.9814  -27.6383  -46.0228 H         1 UNK         0.3095 
     80 H80        18.5562  -24.2873  -44.8277 H         1 UNK         0.0454 
     81 H81        17.0924  -26.9404  -45.3055 H         1 UNK         0.0851 
     82 H82        17.2094  -25.6848  -46.5331 H         1 UNK         0.0851 
     83 H83        16.3889  -25.3571  -45.0240 H         1 UNK         0.0851 
     84 H84        19.5786  -26.4163  -43.3055 H         1 UNK         0.2976 
     85 H85        21.0144  -28.4610  -44.6785 H         1 UNK         0.3116 
     86 H86        23.7964  -29.2313  -44.5883 H         1 UNK         0.0646 
     87 H87        22.0222  -30.3373  -43.1933 H         1 UNK         0.0847 
     88 H88        21.7496  -28.8233  -42.3314 H         1 UNK         0.0847 
     89 H89        23.2875  -29.6545  -42.1843 H         1 UNK         0.0847 
     90 H90        25.5353  -28.0705  -43.8521 H         1 UNK         0.3040 
     91 H91        25.3760  -25.2045  -43.6664 H         1 UNK         0.1015 
     92 H92        27.8387  -25.3836  -43.2903 H         1 UNK         0.0786 
     93 H93        27.3381  -26.3738  -44.6502 H         1 UNK         0.0786 
     94 H94        27.7020  -27.1253  -43.0955 H         1 UNK         0.0786 
     95 H95        25.3551  -27.7738  -41.2719 H         1 UNK         0.3172 
     96 H96        24.6669  -25.9323  -39.1581 H         1 UNK         0.0595 
     97 H97        27.1470  -27.7386  -38.8837 H         1 UNK         0.0839 
     98 H98        26.3897  -26.8453  -37.5715 H         1 UNK         0.0839 
     99 H99        27.1643  -25.9756  -38.8864 H         1 UNK         0.0839 
    100 H100       23.3912  -27.0058  -37.6688 H         1 UNK         0.2998 
    101 H101       21.8477  -28.4053  -36.9408 H         1 UNK         0.0822 
    102 H102       23.8636  -29.6435  -36.0965 H         1 UNK         0.0787 
    103 H103       22.5142  -30.7171  -36.3941 H         1 UNK         0.0787 
    104 H104       23.8546  -30.6508  -37.5383 H         1 UNK         0.0787 
    105 H105       21.8176  -31.3449  -38.2204 H         1 UNK         0.3055 
    106 H106       20.7080  -30.8992  -40.8422 H         1 UNK         0.1106 
    107 H107       18.8806  -31.9081  -38.5699 H         1 UNK         0.0828 
    108 H108       18.4528  -31.8254  -40.2740 H         1 UNK         0.0828 
    109 H109       18.7128  -30.3465  -39.3661 H         1 UNK         0.0828 
    110 H110       20.2240  -33.0258  -41.8345 H         1 UNK         0.2931 
    111 H111       21.9951  -35.1509  -40.9804 H         1 UNK         0.0412 
    112 H112       19.7534  -37.6725  -39.7998 H         1 UNK         0.3472 
    113 H113       21.2792  -37.4193  -40.6059 H         1 UNK         0.3472 
    114 H114       21.9309  -34.8935  -43.3246 H         1 UNK         0.0970 
    115 H115       21.0470  -36.3488  -43.0295 H         1 UNK         0.0970 
    116 H116       20.8603  -33.5640  -45.5578 H         1 UNK         0.0612 
    117 H117       21.1363  -32.7670  -44.0277 H         1 UNK         0.0612 
@<TRIPOS>BOND
     1    1    2 1    
     2    1   62 1    
     3    1   63 1    
     4    1   64 1    
     5    2    3 2    
     6    2    4 am   BACKBONE|DICT|INTERRES
     7    4    5 1    
     8    4   65 1    
     9    5    6 1    
    10    5   25 1    
    11    5   66 1    
    12    6    7 1    
    13    6   67 1    
    14    6   68 1    
    15    7    8 1    
    16    8    9 1    
    17    8   69 1    
    18    8   70 1    
    19    9   10 ar   
    20    9   14 ar   
    21   10   11 ar   
    22   10   71 1    
    23   11   12 ar   
    24   11   61 1    
    25   12   13 ar   
    26   12   72 1    
    27   13   14 ar   
    28   13   15 1    
    29   14   73 1    
    30   15   16 1    
    31   15   74 1    
    32   15   75 1    
    33   16   17 1    
    34   17   18 1    
    35   17   76 1    
    36   17   77 1    
    37   18   19 1    
    38   18   27 1    
    39   18   78 1    
    40   19   20 am   BACKBONE|DICT|INTERRES
    41   19   79 1    
    42   20   21 2    
    43   20   22 1    
    44   22   23 1    
    45   22   24 1    
    46   22   80 1    
    47   23   81 1    
    48   23   82 1    
    49   23   83 1    
    50   24   25 am   BACKBONE|DICT|INTERRES
    51   24   84 1    
    52   25   26 2    
    53   27   28 2    
    54   27   29 am   BACKBONE|DICT|INTERRES
    55   29   30 1    
    56   29   85 1    
    57   30   31 1    
    58   30   32 1    
    59   30   86 1    
    60   31   87 1    
    61   31   88 1    
    62   31   89 1    
    63   32   33 2    
    64   32   34 am   BACKBONE|DICT|INTERRES
    65   34   35 1    
    66   34   90 1    
    67   35   36 1    
    68   35   37 1    
    69   35   91 1    
    70   36   92 1    
    71   36   93 1    
    72   36   94 1    
    73   37   38 2    
    74   37   39 am   BACKBONE|DICT|INTERRES
    75   39   40 1    
    76   39   95 1    
    77   40   41 1    
    78   40   42 1    
    79   40   96 1    
    80   41   97 1    
    81   41   98 1    
    82   41   99 1    
    83   42   43 2    
    84   42   44 am   BACKBONE|DICT|INTERRES
    85   44   45 1    
    86   44  100 1    
    87   45   46 1    
    88   45   47 1    
    89   45  101 1    
    90   46  102 1    
    91   46  103 1    
    92   46  104 1    
    93   47   48 2    
    94   47   49 am   BACKBONE|DICT|INTERRES
    95   49   50 1    
    96   49  105 1    
    97   50   51 1    
    98   50   52 1    
    99   50  106 1    
   100   51  107 1    
   101   51  108 1    
   102   51  109 1    
   103   52   53 2    
   104   52   54 am   BACKBONE|DICT|INTERRES
   105   54   55 1    
   106   54  110 1    
   107   55   56 1    
   108   55   59 1    
   109   55  111 1    
   110   56   57 am   BACKBONE|DICT|INTERRES
   111   56   58 2    
   112   57  112 1    
   113   57  113 1    
   114   59   60 1    
   115   59  114 1    
   116   59  115 1    
   117   60   61 1    
   118   61  116 1    
   119   61  117 1    
@<TRIPOS>SUBSTRUCTURE
     1 UNK         1 GROUP             0       ****    0 ROOT    
