@<TRIPOS>MOLECULE
3R8
117   119    1
SMALL
USER_CHARGES


@<TRIPOS>ATOM
      1 CA         11.4707  -27.8602  -44.0058 C.3       0 UNK        -0.2013 
      2 C          12.7323  -27.0994  -43.6258 C.2       0 UNK         0.4866 
      3 O          12.8474  -26.6307  -42.4925 O.2       0 UNK        -0.5176 
      4 N          13.6722  -26.9620  -44.5686 N.am      1 UNK        -0.4884 
      5 CA         14.9778  -26.3244  -44.3712 C.3       1 UNK         0.0853 
      6 C6         15.6346  -25.8839  -45.7151 C.3       10 UNK        -0.0849 
      7 S7         15.4508  -26.9864  -47.1674 S.3       10 UNK        -0.2776 
      8 C8         16.1040  -28.6090  -46.6338 C.3       10 UNK         0.0316 
      9 C9         17.5849  -28.6608  -46.2496 C.ar      10 UNK        -0.0863 
     10 C10        18.0140  -29.6987  -45.4165 C.ar      10 UNK        -0.1009 
     11 C11        19.3611  -29.8383  -45.0737 C.ar      10 UNK        -0.0712 
     12 C12        20.2935  -28.9239  -45.5687 C.ar      10 UNK        -0.0894 
     13 C13        19.8838  -27.8752  -46.3987 C.ar      10 UNK        -0.0745 
     14 C14        18.5313  -27.7505  -46.7380 C.ar      10 UNK        -0.0972 
     15 C15        20.9042  -26.9001  -46.9686 C.3       10 UNK         0.0209 
     16 S16        21.1410  -25.4441  -45.9009 S.3       10 UNK        -0.2568 
     17 C17        22.3068  -26.0725  -44.6450 C.3       10 UNK        -0.0983 
     18 CA         21.7920  -25.8959  -43.1934 C.3       3 UNK         0.0876 
     19 N          20.5824  -26.6728  -42.9218 N.am      3 UNK        -0.4424 
     20 C          19.3672  -26.1427  -42.7609 C.2       2 UNK         0.4918 
     21 O          19.1273  -24.9323  -42.8149 O.2       2 UNK        -0.4875 
     22 CA         18.2146  -27.1145  -42.4894 C.3       2 UNK         0.0481 
     23 CB         18.0293  -27.3723  -40.9845 C.3       2 UNK        -0.1831 
     24 N          17.0178  -26.5165  -43.0635 N.am      2 UNK        -0.4498 
     25 C          15.9391  -27.1683  -43.5055 C.2       1 UNK         0.5027 
     26 O          15.7188  -28.3637  -43.2926 O.2       1 UNK        -0.4969 
     27 C          22.8715  -26.3371  -42.1970 C.2       3 UNK         0.5005 
     28 O          23.0162  -27.5367  -41.9514 O.2       3 UNK        -0.5279 
     29 N          23.6541  -25.3722  -41.6928 N.am      4 UNK        -0.4463 
     30 CA         24.7745  -25.5910  -40.7672 C.3       4 UNK         0.0283 
     31 CB         25.2311  -24.2360  -40.2014 C.3       4 UNK        -0.1875 
     32 C          25.9677  -26.3455  -41.3869 C.2       4 UNK         0.4949 
     33 O          26.8218  -26.8334  -40.6472 O.2       4 UNK        -0.5039 
     34 N          26.0081  -26.4308  -42.7241 N.am      5 UNK        -0.4663 
     35 CA         26.9690  -27.2300  -43.4863 C.3       5 UNK         0.0242 
     36 CB         26.9295  -26.7865  -44.9580 C.3       5 UNK        -0.1982 
     37 C          26.7217  -28.7469  -43.3754 C.2       5 UNK         0.5017 
     38 O          27.6542  -29.5180  -43.6059 O.2       5 UNK        -0.5012 
     39 N          25.4890  -29.1513  -43.0359 N.am      6 UNK        -0.4439 
     40 CA         25.1196  -30.5404  -42.7716 C.3       6 UNK         0.0297 
     41 CB         23.6430  -30.7458  -43.1532 C.3       6 UNK        -0.2006 
     42 C          25.3412  -30.8661  -41.2875 C.2       6 UNK         0.4892 
     43 O          25.2926  -29.9679  -40.4431 O.2       6 UNK        -0.5089 
     44 N          25.5196  -32.1572  -40.9798 N.am      7 UNK        -0.4243 
     45 CA         25.6427  -32.6899  -39.6176 C.3       7 UNK         0.0196 
     46 CB         26.3313  -34.0662  -39.6796 C.3       7 UNK        -0.2007 
     47 C          24.2692  -32.7470  -38.9208 C.2       7 UNK         0.5020 
     48 O          23.7411  -33.8335  -38.6776 O.2       7 UNK        -0.5147 
     49 N          23.6782  -31.5637  -38.6960 N.am      8 UNK        -0.4734 
     50 CA         22.3231  -31.3138  -38.1774 C.3       8 UNK         0.0238 
     51 CB         22.2259  -31.7356  -36.6959 C.3       8 UNK        -0.1912 
     52 C          21.2059  -31.9398  -39.0413 C.2       8 UNK         0.5038 
     53 O          20.1149  -32.2016  -38.5318 O.2       8 UNK        -0.5046 
     54 N          21.5145  -32.1876  -40.3226 N.am      9 UNK        -0.4200 
     55 CA         20.7055  -32.9412  -41.2935 C.3       9 UNK         0.0839 
     56 C          20.4935  -34.4421  -40.9206 C.2       9 UNK         0.5513 
     57 N          21.3148  -35.0345  -40.0601 N.am      9 UNK        -0.7519 
     58 O          19.5934  -35.0949  -41.4428 O.2       9 UNK        -0.4960 
     59 C59        19.3900  -32.2125  -41.6862 C.3       10 UNK        -0.0876 
     60 S60        19.6915  -30.5709  -42.4271 S.3       10 UNK        -0.2414 
     61 C61        19.8005  -30.9973  -44.1930 C.3       10 UNK         0.0169 
     62 H62        11.3508  -28.7314  -43.3624 H         1 UNK         0.0903 
     63 H63        10.5959  -27.2223  -43.8827 H         1 UNK         0.0903 
     64 H64        11.4971  -28.2037  -45.0398 H         1 UNK         0.0903 
     65 H65        13.5327  -27.3711  -45.4820 H         1 UNK         0.3096 
     66 H66        14.7955  -25.4143  -43.7940 H         1 UNK         0.1121 
     67 H67        15.1824  -24.9358  -46.0104 H         1 UNK         0.0849 
     68 H68        16.6941  -25.6502  -45.5946 H         1 UNK         0.0849 
     69 H69        15.4863  -28.9852  -45.8184 H         1 UNK         0.0865 
     70 H70        15.9559  -29.3089  -47.4571 H         1 UNK         0.0865 
     71 H71        17.2944  -30.4105  -45.0347 H         1 UNK         0.1346 
     72 H72        21.3379  -29.0378  -45.3154 H         1 UNK         0.1412 
     73 H73        18.2251  -26.9507  -47.3975 H         1 UNK         0.1426 
     74 H74        20.5719  -26.5569  -47.9496 H         1 UNK         0.0716 
     75 H75        21.8602  -27.3985  -47.1367 H         1 UNK         0.0716 
     76 H76        22.5428  -27.1185  -44.8442 H         1 UNK         0.0695 
     77 H77        23.2418  -25.5264  -44.7841 H         1 UNK         0.0695 
     78 H78        21.6000  -24.8339  -43.0244 H         1 UNK         0.0983 
     79 H79        20.7229  -27.6671  -42.8028 H         1 UNK         0.3095 
     80 H80        18.4195  -28.0521  -43.0052 H         1 UNK         0.0454 
     81 H81        18.9284  -27.8127  -40.5519 H         1 UNK         0.0851 
     82 H82        17.8185  -26.4509  -40.4405 H         1 UNK         0.0851 
     83 H83        17.2100  -28.0672  -40.8003 H         1 UNK         0.0851 
     84 H84        17.1359  -25.5330  -43.2778 H         1 UNK         0.2976 
     85 H85        23.4772  -24.4130  -41.9582 H         1 UNK         0.3116 
     86 H86        24.4077  -26.2010  -39.9388 H         1 UNK         0.0646 
     87 H87        26.0395  -24.3662  -39.4804 H         1 UNK         0.0847 
     88 H88        24.4190  -23.7265  -39.6826 H         1 UNK         0.0847 
     89 H89        25.5997  -23.5735  -40.9856 H         1 UNK         0.0847 
     90 H90        25.2822  -25.9681  -43.2498 H         1 UNK         0.3040 
     91 H91        27.9688  -27.0333  -43.0924 H         1 UNK         0.1015 
     92 H92        25.9483  -26.9527  -45.4048 H         1 UNK         0.0786 
     93 H93        27.6562  -27.3425  -45.5524 H         1 UNK         0.0786 
     94 H94        27.1722  -25.7286  -45.0611 H         1 UNK         0.0786 
     95 H95        24.8054  -28.4548  -42.7607 H         1 UNK         0.3172 
     96 H96        25.7325  -31.2090  -43.3800 H         1 UNK         0.0595 
     97 H97        23.3540  -31.7921  -43.0527 H         1 UNK         0.0839 
     98 H98        22.9730  -30.1595  -42.5227 H         1 UNK         0.0839 
     99 H99        23.4580  -30.4607  -44.1890 H         1 UNK         0.0839 
    100 H100       25.5219  -32.8375  -41.7269 H         1 UNK         0.2998 
    101 H101       26.2807  -32.0242  -39.0317 H         1 UNK         0.0822 
    102 H102       26.4508  -34.4874  -38.6804 H         1 UNK         0.0787 
    103 H103       25.7561  -34.7821  -40.2683 H         1 UNK         0.0787 
    104 H104       27.3261  -33.9924  -40.1193 H         1 UNK         0.0787 
    105 H105       24.1861  -30.7419  -39.0168 H         1 UNK         0.3055 
    106 H106       22.1680  -30.2347  -38.2275 H         1 UNK         0.1106 
    107 H107       22.3029  -32.8169  -36.5776 H         1 UNK         0.0828 
    108 H108       23.0138  -31.2757  -36.0996 H         1 UNK         0.0828 
    109 H109       21.2737  -31.4288  -36.2614 H         1 UNK         0.0828 
    110 H110       22.4403  -31.9351  -40.6301 H         1 UNK         0.2931 
    111 H111       21.3176  -32.9848  -42.1947 H         1 UNK         0.0412 
    112 H112       21.1725  -36.0071  -39.8382 H         1 UNK         0.3472 
    113 H113       22.0747  -34.5262  -39.6204 H         1 UNK         0.3472 
    114 H114       18.7509  -32.0826  -40.8120 H         1 UNK         0.0970 
    115 H115       18.8035  -32.8107  -42.3850 H         1 UNK         0.0970 
    116 H116       19.1783  -31.8657  -44.4131 H         1 UNK         0.0612 
    117 H117       20.8251  -31.2898  -44.4269 H         1 UNK         0.0612 
@<TRIPOS>BOND
     1    1    2 1    
     2    1   62 1    
     3    1   63 1    
     4    1   64 1    
     5    2    3 2    
     6    2    4 am   BACKBONE|DICT|INTERRES
     7    4    5 1    
     8    4   65 1    
     9    5    6 1    
    10    5   25 1    
    11    5   66 1    
    12    6    7 1    
    13    6   67 1    
    14    6   68 1    
    15    7    8 1    
    16    8    9 1    
    17    8   69 1    
    18    8   70 1    
    19    9   10 ar   
    20    9   14 ar   
    21   10   11 ar   
    22   10   71 1    
    23   11   12 ar   
    24   11   61 1    
    25   12   13 ar   
    26   12   72 1    
    27   13   14 ar   
    28   13   15 1    
    29   14   73 1    
    30   15   16 1    
    31   15   74 1    
    32   15   75 1    
    33   16   17 1    
    34   17   18 1    
    35   17   76 1    
    36   17   77 1    
    37   18   19 1    
    38   18   27 1    
    39   18   78 1    
    40   19   20 am   BACKBONE|DICT|INTERRES
    41   19   79 1    
    42   20   21 2    
    43   20   22 1    
    44   22   23 1    
    45   22   24 1    
    46   22   80 1    
    47   23   81 1    
    48   23   82 1    
    49   23   83 1    
    50   24   25 am   BACKBONE|DICT|INTERRES
    51   24   84 1    
    52   25   26 2    
    53   27   28 2    
    54   27   29 am   BACKBONE|DICT|INTERRES
    55   29   30 1    
    56   29   85 1    
    57   30   31 1    
    58   30   32 1    
    59   30   86 1    
    60   31   87 1    
    61   31   88 1    
    62   31   89 1    
    63   32   33 2    
    64   32   34 am   BACKBONE|DICT|INTERRES
    65   34   35 1    
    66   34   90 1    
    67   35   36 1    
    68   35   37 1    
    69   35   91 1    
    70   36   92 1    
    71   36   93 1    
    72   36   94 1    
    73   37   38 2    
    74   37   39 am   BACKBONE|DICT|INTERRES
    75   39   40 1    
    76   39   95 1    
    77   40   41 1    
    78   40   42 1    
    79   40   96 1    
    80   41   97 1    
    81   41   98 1    
    82   41   99 1    
    83   42   43 2    
    84   42   44 am   BACKBONE|DICT|INTERRES
    85   44   45 1    
    86   44  100 1    
    87   45   46 1    
    88   45   47 1    
    89   45  101 1    
    90   46  102 1    
    91   46  103 1    
    92   46  104 1    
    93   47   48 2    
    94   47   49 am   BACKBONE|DICT|INTERRES
    95   49   50 1    
    96   49  105 1    
    97   50   51 1    
    98   50   52 1    
    99   50  106 1    
   100   51  107 1    
   101   51  108 1    
   102   51  109 1    
   103   52   53 2    
   104   52   54 am   BACKBONE|DICT|INTERRES
   105   54   55 1    
   106   54  110 1    
   107   55   56 1    
   108   55   59 1    
   109   55  111 1    
   110   56   57 am   BACKBONE|DICT|INTERRES
   111   56   58 2    
   112   57  112 1    
   113   57  113 1    
   114   59   60 1    
   115   59  114 1    
   116   59  115 1    
   117   60   61 1    
   118   61  116 1    
   119   61  117 1    
@<TRIPOS>SUBSTRUCTURE
     1 UNK         1 GROUP             0       ****    0 ROOT    
