@<TRIPOS>MOLECULE
3R8
117   119    1
SMALL
USER_CHARGES


@<TRIPOS>ATOM
      1 CA         15.1060  -22.9568  -46.3559 C.3       0 UNK        -0.2013 
      2 C          15.5380  -24.4060  -46.1906 C.2       0 UNK         0.4866 
      3 O          16.3282  -24.9016  -46.9922 O.2       0 UNK        -0.5176 
      4 N          15.0195  -25.0851  -45.1631 N.am      1 UNK        -0.4884 
      5 CA         15.3246  -26.4665  -44.7958 C.3       1 UNK         0.0853 
      6 C6         14.7000  -27.4790  -45.7957 C.3       10 UNK        -0.0849 
      7 S7         15.0852  -29.2308  -45.4455 S.3       10 UNK        -0.2776 
      8 C8         16.3600  -29.6037  -46.6904 C.3       10 UNK         0.0316 
      9 C9         17.7322  -29.1230  -46.2454 C.ar      10 UNK        -0.0863 
     10 C10        18.5689  -29.9723  -45.5155 C.ar      10 UNK        -0.1009 
     11 C11        19.8345  -29.5418  -45.1084 C.ar      10 UNK        -0.0712 
     12 C12        20.2633  -28.2543  -45.4423 C.ar      10 UNK        -0.0894 
     13 C13        19.4283  -27.3873  -46.1549 C.ar      10 UNK        -0.0745 
     14 C14        18.1691  -27.8344  -46.5648 C.ar      10 UNK        -0.0972 
     15 C15        19.8850  -25.9750  -46.4996 C.3       10 UNK         0.0209 
     16 S16        19.4917  -24.7725  -45.1835 S.3       10 UNK        -0.2568 
     17 C17        20.7536  -25.1756  -43.9271 C.3       10 UNK        -0.0983 
     18 CA         20.1902  -25.6800  -42.5680 C.3       3 UNK         0.0876 
     19 N          19.1184  -26.6693  -42.7048 N.am      3 UNK        -0.4424 
     20 C          17.8497  -26.4734  -42.3351 C.2       2 UNK         0.4918 
     21 O          17.4212  -25.4086  -41.8835 O.2       2 UNK        -0.4875 
     22 CA         16.9054  -27.6834  -42.4609 C.3       2 UNK         0.0481 
     23 CB         17.1477  -28.6617  -41.2996 C.3       2 UNK        -0.1831 
     24 N          15.4969  -27.2771  -42.4199 N.am      2 UNK        -0.4498 
     25 C          14.7788  -26.6495  -43.3629 C.2       1 UNK         0.5027 
     26 O          13.6523  -26.2147  -43.1137 O.2       1 UNK        -0.4969 
     27 C          21.3211  -26.3377  -41.7627 C.2       3 UNK         0.5005 
     28 O          21.5040  -27.5541  -41.8562 O.2       3 UNK        -0.5279 
     29 N          22.1269  -25.5333  -41.0575 N.am      4 UNK        -0.4463 
     30 CA         23.3304  -25.9746  -40.3381 C.3       4 UNK         0.0283 
     31 CB         23.6591  -24.9506  -39.2353 C.3       4 UNK        -0.1875 
     32 C          24.5221  -26.2255  -41.2902 C.2       4 UNK         0.4949 
     33 O          25.6155  -25.7037  -41.0676 O.2       4 UNK        -0.5039 
     34 N          24.2779  -26.9966  -42.3565 N.am      5 UNK        -0.4663 
     35 CA         25.2397  -27.3094  -43.4151 C.3       5 UNK         0.0242 
     36 CB         24.4724  -27.7569  -44.6704 C.3       5 UNK        -0.1982 
     37 C          26.2612  -28.3786  -42.9973 C.2       5 UNK         0.5017 
     38 O          27.4039  -28.3328  -43.4543 O.2       5 UNK        -0.5012 
     39 N          25.8340  -29.3145  -42.1431 N.am      6 UNK        -0.4439 
     40 CA         26.6185  -30.4195  -41.6040 C.3       6 UNK         0.0297 
     41 CB         26.8495  -31.4946  -42.6850 C.3       6 UNK        -0.2006 
     42 C          25.8475  -31.0121  -40.4222 C.2       6 UNK         0.4892 
     43 O          24.6218  -30.8773  -40.3688 O.2       6 UNK        -0.5089 
     44 N          26.5652  -31.7064  -39.5286 N.am      7 UNK        -0.4243 
     45 CA         26.0034  -32.4073  -38.3657 C.3       7 UNK         0.0196 
     46 CB         27.1472  -32.9661  -37.5044 C.3       7 UNK        -0.2007 
     47 C          25.0130  -33.5266  -38.7372 C.2       7 UNK         0.5020 
     48 O          24.0888  -33.7981  -37.9708 O.2       7 UNK        -0.5147 
     49 N          25.1891  -34.1177  -39.9282 N.am      8 UNK        -0.4734 
     50 CA         24.2883  -35.1070  -40.5296 C.3       8 UNK         0.0238 
     51 CB         24.9382  -35.6625  -41.8076 C.3       8 UNK        -0.1912 
     52 C          22.8761  -34.5691  -40.8351 C.2       8 UNK         0.5038 
     53 O          21.9490  -35.3706  -40.9576 O.2       8 UNK        -0.5046 
     54 N          22.7317  -33.2401  -40.9391 N.am      9 UNK        -0.4200 
     55 CA         21.4422  -32.5446  -41.0474 C.3       9 UNK         0.0839 
     56 C          20.6496  -32.4804  -39.7042 C.2       9 UNK         0.5513 
     57 N          21.2396  -32.8079  -38.5588 N.am      9 UNK        -0.7519 
     58 O          19.4674  -32.1492  -39.6982 O.2       9 UNK        -0.4960 
     59 C59        21.6321  -31.1434  -41.6888 C.3       10 UNK        -0.0876 
     60 S60        20.1514  -30.5522  -42.5758 S.3       10 UNK        -0.2414 
     61 C61        20.7332  -30.4590  -44.2944 C.3       10 UNK         0.0169 
     62 H62        14.6311  -22.8154  -47.3264 H         1 UNK         0.0903 
     63 H63        14.3998  -22.6501  -45.5844 H         1 UNK         0.0903 
     64 H64        15.9738  -22.3000  -46.3019 H         1 UNK         0.0903 
     65 H65        14.3642  -24.6387  -44.5320 H         1 UNK         0.3096 
     66 H66        16.4088  -26.5696  -44.8094 H         1 UNK         0.1121 
     67 H67        13.6136  -27.3720  -45.8060 H         1 UNK         0.0849 
     68 H68        15.0193  -27.2474  -46.8121 H         1 UNK         0.0849 
     69 H69        16.3843  -30.6828  -46.8502 H         1 UNK         0.0865 
     70 H70        16.0912  -29.1672  -47.6536 H         1 UNK         0.0865 
     71 H71        18.2331  -30.9666  -45.2537 H         1 UNK         0.1346 
     72 H72        21.2462  -27.9290  -45.1351 H         1 UNK         0.1412 
     73 H73        17.5247  -27.1736  -47.1276 H         1 UNK         0.1426 
     74 H74        20.9559  -25.9610  -46.7075 H         1 UNK         0.0716 
     75 H75        19.3972  -25.6469  -47.4190 H         1 UNK         0.0716 
     76 H76        21.4595  -25.8869  -44.3549 H         1 UNK         0.0695 
     77 H77        21.3397  -24.2704  -43.7594 H         1 UNK         0.0695 
     78 H78        19.8327  -24.8187  -41.9996 H         1 UNK         0.0983 
     79 H79        19.4259  -27.5891  -42.9946 H         1 UNK         0.3095 
     80 H80        17.1147  -28.2021  -43.3977 H         1 UNK         0.0454 
     81 H81        16.5728  -29.5789  -41.4286 H         1 UNK         0.0851 
     82 H82        18.1965  -28.9483  -41.2297 H         1 UNK         0.0851 
     83 H83        16.8749  -28.2251  -40.3381 H         1 UNK         0.0851 
     84 H84        15.0669  -27.3586  -41.5110 H         1 UNK         0.2976 
     85 H85        21.9525  -24.5380  -41.0664 H         1 UNK         0.3116 
     86 H86        23.1137  -26.9259  -39.8470 H         1 UNK         0.0646 
     87 H87        24.5145  -25.2759  -38.6416 H         1 UNK         0.0847 
     88 H88        22.8225  -24.8242  -38.5479 H         1 UNK         0.0847 
     89 H89        23.9042  -23.9726  -39.6512 H         1 UNK         0.0847 
     90 H90        23.3439  -27.3906  -42.4350 H         1 UNK         0.3040 
     91 H91        25.7956  -26.4008  -43.6583 H         1 UNK         0.1015 
     92 H92        23.8000  -26.9750  -45.0239 H         1 UNK         0.0786 
     93 H93        23.8787  -28.6526  -44.4838 H         1 UNK         0.0786 
     94 H94        25.1592  -27.9851  -45.4867 H         1 UNK         0.0786 
     95 H95        24.8885  -29.2670  -41.7821 H         1 UNK         0.3172 
     96 H96        27.5759  -30.0353  -41.2461 H         1 UNK         0.0595 
     97 H97        25.9069  -31.8880  -43.0684 H         1 UNK         0.0839 
     98 H98        27.4192  -32.3365  -42.2901 H         1 UNK         0.0839 
     99 H99        27.4129  -31.0996  -43.5303 H         1 UNK         0.0839 
    100 H100       27.5658  -31.7703  -39.6541 H         1 UNK         0.2998 
    101 H101       25.4532  -31.6735  -37.7724 H         1 UNK         0.0822 
    102 H102       27.8073  -32.1714  -37.1560 H         1 UNK         0.0787 
    103 H103       26.7578  -33.4717  -36.6195 H         1 UNK         0.0787 
    104 H104       27.7511  -33.6896  -38.0536 H         1 UNK         0.0787 
    105 H105       25.9823  -33.8316  -40.4830 H         1 UNK         0.3055 
    106 H106       24.1701  -35.9261  -39.8166 H         1 UNK         0.1106 
    107 H107       24.3070  -36.4246  -42.2673 H         1 UNK         0.0828 
    108 H108       25.0991  -34.8814  -42.5518 H         1 UNK         0.0828 
    109 H109       25.9002  -36.1290  -41.5948 H         1 UNK         0.0828 
    110 H110       23.5374  -32.6457  -40.7846 H         1 UNK         0.2931 
    111 H111       20.8305  -33.1363  -41.7316 H         1 UNK         0.0412 
    112 H112       20.7047  -32.7678  -37.7058 H         1 UNK         0.3472 
    113 H113       22.2071  -33.1066  -38.5290 H         1 UNK         0.3472 
    114 H114       22.4664  -31.1645  -42.3912 H         1 UNK         0.0970 
    115 H115       21.9108  -30.4014  -40.9377 H         1 UNK         0.0970 
    116 H116       21.7601  -30.0915  -44.3168 H         1 UNK         0.0612 
    117 H117       20.7467  -31.4591  -44.7297 H         1 UNK         0.0612 
@<TRIPOS>BOND
     1    1    2 1    
     2    1   62 1    
     3    1   63 1    
     4    1   64 1    
     5    2    3 2    
     6    2    4 am   BACKBONE|DICT|INTERRES
     7    4    5 1    
     8    4   65 1    
     9    5    6 1    
    10    5   25 1    
    11    5   66 1    
    12    6    7 1    
    13    6   67 1    
    14    6   68 1    
    15    7    8 1    
    16    8    9 1    
    17    8   69 1    
    18    8   70 1    
    19    9   10 ar   
    20    9   14 ar   
    21   10   11 ar   
    22   10   71 1    
    23   11   12 ar   
    24   11   61 1    
    25   12   13 ar   
    26   12   72 1    
    27   13   14 ar   
    28   13   15 1    
    29   14   73 1    
    30   15   16 1    
    31   15   74 1    
    32   15   75 1    
    33   16   17 1    
    34   17   18 1    
    35   17   76 1    
    36   17   77 1    
    37   18   19 1    
    38   18   27 1    
    39   18   78 1    
    40   19   20 am   BACKBONE|DICT|INTERRES
    41   19   79 1    
    42   20   21 2    
    43   20   22 1    
    44   22   23 1    
    45   22   24 1    
    46   22   80 1    
    47   23   81 1    
    48   23   82 1    
    49   23   83 1    
    50   24   25 am   BACKBONE|DICT|INTERRES
    51   24   84 1    
    52   25   26 2    
    53   27   28 2    
    54   27   29 am   BACKBONE|DICT|INTERRES
    55   29   30 1    
    56   29   85 1    
    57   30   31 1    
    58   30   32 1    
    59   30   86 1    
    60   31   87 1    
    61   31   88 1    
    62   31   89 1    
    63   32   33 2    
    64   32   34 am   BACKBONE|DICT|INTERRES
    65   34   35 1    
    66   34   90 1    
    67   35   36 1    
    68   35   37 1    
    69   35   91 1    
    70   36   92 1    
    71   36   93 1    
    72   36   94 1    
    73   37   38 2    
    74   37   39 am   BACKBONE|DICT|INTERRES
    75   39   40 1    
    76   39   95 1    
    77   40   41 1    
    78   40   42 1    
    79   40   96 1    
    80   41   97 1    
    81   41   98 1    
    82   41   99 1    
    83   42   43 2    
    84   42   44 am   BACKBONE|DICT|INTERRES
    85   44   45 1    
    86   44  100 1    
    87   45   46 1    
    88   45   47 1    
    89   45  101 1    
    90   46  102 1    
    91   46  103 1    
    92   46  104 1    
    93   47   48 2    
    94   47   49 am   BACKBONE|DICT|INTERRES
    95   49   50 1    
    96   49  105 1    
    97   50   51 1    
    98   50   52 1    
    99   50  106 1    
   100   51  107 1    
   101   51  108 1    
   102   51  109 1    
   103   52   53 2    
   104   52   54 am   BACKBONE|DICT|INTERRES
   105   54   55 1    
   106   54  110 1    
   107   55   56 1    
   108   55   59 1    
   109   55  111 1    
   110   56   57 am   BACKBONE|DICT|INTERRES
   111   56   58 2    
   112   57  112 1    
   113   57  113 1    
   114   59   60 1    
   115   59  114 1    
   116   59  115 1    
   117   60   61 1    
   118   61  116 1    
   119   61  117 1    
@<TRIPOS>SUBSTRUCTURE
     1 UNK         1 GROUP             0       ****    0 ROOT    
