@<TRIPOS>MOLECULE
3R8
117   119    1
SMALL
USER_CHARGES


@<TRIPOS>ATOM
      1 CA         15.0949  -23.3407  -45.5500 C.3       0 UNK        -0.2013 
      2 C          15.2551  -24.7641  -45.0357 C.2       0 UNK         0.4866 
      3 O          14.3345  -25.2867  -44.4064 O.2       0 UNK        -0.5176 
      4 N          16.4139  -25.3814  -45.3087 N.am      1 UNK        -0.4884 
      5 CA         16.8277  -26.7353  -44.9029 C.3       1 UNK         0.0853 
      6 C6         15.8947  -27.8576  -45.4464 C.3       10 UNK        -0.0849 
      7 S7         16.1012  -28.0353  -47.2518 S.3       10 UNK        -0.2776 
      8 C8         17.0734  -29.5755  -47.3891 C.3       10 UNK         0.0316 
      9 C9         18.2905  -29.5964  -46.4706 C.ar      10 UNK        -0.0863 
     10 C10        18.3404  -30.4903  -45.3976 C.ar      10 UNK        -0.1009 
     11 C11        19.4455  -30.5156  -44.5434 C.ar      10 UNK        -0.0712 
     12 C12        20.5125  -29.6401  -44.7673 C.ar      10 UNK        -0.0894 
     13 C13        20.4658  -28.7289  -45.8267 C.ar      10 UNK        -0.0745 
     14 C14        19.3601  -28.7218  -46.6837 C.ar      10 UNK        -0.0972 
     15 C15        21.6056  -27.7486  -46.0525 C.3       10 UNK         0.0209 
     16 S16        21.3578  -26.2081  -45.1098 S.3       10 UNK        -0.2568 
     17 C17        22.2995  -26.5177  -43.5763 C.3       10 UNK        -0.0983 
     18 CA         21.4493  -26.3338  -42.2965 C.3       3 UNK         0.0876 
     19 N          20.3452  -27.2961  -42.2481 N.am      3 UNK        -0.4424 
     20 C          19.3856  -27.3648  -41.3153 C.2       2 UNK         0.4918 
     21 O          19.3684  -26.6956  -40.2815 O.2       2 UNK        -0.4875 
     22 CA         18.2181  -28.3116  -41.6545 C.3       2 UNK         0.0481 
     23 CB         17.1150  -28.3370  -40.5761 C.3       2 UNK        -0.1831 
     24 N          17.6632  -28.0134  -42.9845 N.am      2 UNK        -0.4498 
     25 C          17.1172  -26.8524  -43.3886 C.2       1 UNK         0.5027 
     26 O          16.9136  -25.8961  -42.6363 O.2       1 UNK        -0.4969 
     27 C          22.3619  -26.3444  -41.0532 C.2       3 UNK         0.5005 
     28 O          22.8719  -25.2868  -40.6792 O.2       3 UNK        -0.5279 
     29 N          22.5856  -27.5284  -40.4635 N.am      4 UNK        -0.4463 
     30 CA         23.4487  -27.8348  -39.3121 C.3       4 UNK         0.0283 
     31 CB         23.0636  -27.0289  -38.0565 C.3       4 UNK        -0.1875 
     32 C          24.9460  -27.7138  -39.6386 C.2       4 UNK         0.4949 
     33 O          25.6833  -28.6831  -39.4618 O.2       4 UNK        -0.5039 
     34 N          25.3582  -26.5542  -40.1666 N.am      5 UNK        -0.4663 
     35 CA         26.7056  -26.2855  -40.6815 C.3       5 UNK         0.0242 
     36 CB         26.8576  -24.7758  -40.9254 C.3       5 UNK        -0.1982 
     37 C          27.0283  -27.0742  -41.9648 C.2       5 UNK         0.5017 
     38 O          28.2001  -27.3376  -42.2342 O.2       5 UNK        -0.5012 
     39 N          25.9823  -27.4539  -42.7089 N.am      6 UNK        -0.4439 
     40 CA         26.0259  -28.3404  -43.8701 C.3       6 UNK         0.0297 
     41 CB         25.6824  -27.5441  -45.1437 C.3       6 UNK        -0.2006 
     42 C          25.0863  -29.5319  -43.6185 C.2       6 UNK         0.4892 
     43 O          24.2336  -29.8303  -44.4543 O.2       6 UNK        -0.5089 
     44 N          25.2761  -30.1676  -42.4519 N.am      7 UNK        -0.4243 
     45 CA         24.5341  -31.2919  -41.8686 C.3       7 UNK         0.0196 
     46 CB         24.3944  -32.4740  -42.8496 C.3       7 UNK        -0.2007 
     47 C          23.1667  -30.8865  -41.2961 C.2       7 UNK         0.5020 
     48 O          22.4801  -30.0169  -41.8358 O.2       7 UNK        -0.5147 
     49 N          22.7900  -31.5428  -40.1928 N.am      8 UNK        -0.4734 
     50 CA         21.4745  -31.4102  -39.5556 C.3       8 UNK         0.0238 
     51 CB         21.6389  -31.5537  -38.0335 C.3       8 UNK        -0.1912 
     52 C          20.4596  -32.4391  -40.0885 C.2       8 UNK         0.5038 
     53 O          19.2654  -32.2834  -39.8320 O.2       8 UNK        -0.5046 
     54 N          20.9477  -33.4489  -40.8250 N.am      9 UNK        -0.4200 
     55 CA         20.1917  -34.5722  -41.4027 C.3       9 UNK         0.0839 
     56 C          19.5894  -35.5228  -40.3209 C.2       9 UNK         0.5513 
     57 N          18.6925  -36.4273  -40.6924 N.am      9 UNK        -0.7519 
     58 O          19.9638  -35.4905  -39.1498 O.2       9 UNK        -0.4960 
     59 C59        19.1629  -34.1213  -42.4823 C.3       10 UNK        -0.0876 
     60 S60        19.9072  -33.1567  -43.8457 S.3       10 UNK        -0.2414 
     61 C61        19.4544  -31.4652  -43.3587 C.3       10 UNK         0.0169 
     62 H62        14.2341  -23.2771  -46.2153 H         1 UNK         0.0903 
     63 H63        14.9327  -22.6575  -44.7168 H         1 UNK         0.0903 
     64 H64        15.9730  -23.0022  -46.0997 H         1 UNK         0.0903 
     65 H65        17.1201  -24.8666  -45.8161 H         1 UNK         0.3096 
     66 H66        17.8087  -26.8660  -45.3611 H         1 UNK         0.1121 
     67 H67        16.0849  -28.8218  -44.9752 H         1 UNK         0.0849 
     68 H68        14.8472  -27.6459  -45.2321 H         1 UNK         0.0849 
     69 H69        16.4180  -30.4226  -47.1801 H         1 UNK         0.0865 
     70 H70        17.4016  -29.6961  -48.4224 H         1 UNK         0.0865 
     71 H71        17.5174  -31.1704  -45.2222 H         1 UNK         0.1346 
     72 H72        21.3770  -29.6627  -44.1170 H         1 UNK         0.1412 
     73 H73        19.3206  -28.0214  -47.5073 H         1 UNK         0.1426 
     74 H74        22.5620  -28.2078  -45.8017 H         1 UNK         0.0716 
     75 H75        21.6682  -27.4971  -47.1123 H         1 UNK         0.0716 
     76 H76        22.7280  -27.5211  -43.5988 H         1 UNK         0.0695 
     77 H77        23.1429  -25.8240  -43.5798 H         1 UNK         0.0695 
     78 H78        20.9941  -25.3415  -42.3310 H         1 UNK         0.0983 
     79 H79        20.2522  -27.8774  -43.0678 H         1 UNK         0.3095 
     80 H80        18.6417  -29.3140  -41.7044 H         1 UNK         0.0454 
     81 H81        16.6663  -27.3550  -40.4246 H         1 UNK         0.0851 
     82 H82        16.3189  -29.0326  -40.8403 H         1 UNK         0.0851 
     83 H83        17.5201  -28.6584  -39.6159 H         1 UNK         0.0851 
     84 H84        17.8152  -28.7292  -43.6828 H         1 UNK         0.2976 
     85 H85        22.2106  -28.3494  -40.9346 H         1 UNK         0.3116 
     86 H86        23.2640  -28.8835  -39.0791 H         1 UNK         0.0646 
     87 H87        23.6373  -27.3643  -37.1917 H         1 UNK         0.0847 
     88 H88        22.0083  -27.1562  -37.8149 H         1 UNK         0.0847 
     89 H89        23.2533  -25.9618  -38.1728 H         1 UNK         0.0847 
     90 H90        24.6555  -25.8280  -40.2895 H         1 UNK         0.3040 
     91 H91        27.4280  -26.5895  -39.9205 H         1 UNK         0.1015 
     92 H92        26.7064  -24.2088  -40.0066 H         1 UNK         0.0786 
     93 H93        26.1436  -24.4121  -41.6657 H         1 UNK         0.0786 
     94 H94        27.8576  -24.5374  -41.2909 H         1 UNK         0.0786 
     95 H95        25.0632  -27.2066  -42.3731 H         1 UNK         0.3172 
     96 H96        27.0276  -28.7570  -43.9945 H         1 UNK         0.0595 
     97 H97        24.6861  -27.1068  -45.0972 H         1 UNK         0.0839 
     98 H98        25.7164  -28.1847  -46.0259 H         1 UNK         0.0839 
     99 H99        26.3940  -26.7345  -45.3054 H         1 UNK         0.0839 
    100 H100       25.9879  -29.7849  -41.8437 H         1 UNK         0.2998 
    101 H101       25.1524  -31.6279  -41.0343 H         1 UNK         0.0822 
    102 H102       25.3532  -32.7369  -43.2965 H         1 UNK         0.0787 
    103 H103       24.0209  -33.3626  -42.3400 H         1 UNK         0.0787 
    104 H104       23.6954  -32.2530  -43.6573 H         1 UNK         0.0787 
    105 H105       23.4233  -32.2159  -39.7828 H         1 UNK         0.3055 
    106 H106       21.0626  -30.4189  -39.7591 H         1 UNK         0.1106 
    107 H107       20.6825  -31.4257  -37.5243 H         1 UNK         0.0828 
    108 H108       22.0240  -32.5364  -37.7583 H         1 UNK         0.0828 
    109 H109       22.3189  -30.8013  -37.6337 H         1 UNK         0.0828 
    110 H110       21.9445  -33.4843  -40.9670 H         1 UNK         0.2931 
    111 H111       20.9443  -35.1778  -41.9089 H         1 UNK         0.0412 
    112 H112       18.3184  -37.0549  -39.9972 H         1 UNK         0.3472 
    113 H113       18.3891  -36.5072  -41.6500 H         1 UNK         0.3472 
    114 H114       18.3437  -33.5654  -42.0243 H         1 UNK         0.0970 
    115 H115       18.6988  -34.9903  -42.9498 H         1 UNK         0.0970 
    116 H116       20.1526  -31.1131  -42.6006 H         1 UNK         0.0612 
    117 H117       18.4664  -31.4622  -42.8966 H         1 UNK         0.0612 
@<TRIPOS>BOND
     1    1    2 1    
     2    1   62 1    
     3    1   63 1    
     4    1   64 1    
     5    2    3 2    
     6    2    4 am   BACKBONE|DICT|INTERRES
     7    4    5 1    
     8    4   65 1    
     9    5    6 1    
    10    5   25 1    
    11    5   66 1    
    12    6    7 1    
    13    6   67 1    
    14    6   68 1    
    15    7    8 1    
    16    8    9 1    
    17    8   69 1    
    18    8   70 1    
    19    9   10 ar   
    20    9   14 ar   
    21   10   11 ar   
    22   10   71 1    
    23   11   12 ar   
    24   11   61 1    
    25   12   13 ar   
    26   12   72 1    
    27   13   14 ar   
    28   13   15 1    
    29   14   73 1    
    30   15   16 1    
    31   15   74 1    
    32   15   75 1    
    33   16   17 1    
    34   17   18 1    
    35   17   76 1    
    36   17   77 1    
    37   18   19 1    
    38   18   27 1    
    39   18   78 1    
    40   19   20 am   BACKBONE|DICT|INTERRES
    41   19   79 1    
    42   20   21 2    
    43   20   22 1    
    44   22   23 1    
    45   22   24 1    
    46   22   80 1    
    47   23   81 1    
    48   23   82 1    
    49   23   83 1    
    50   24   25 am   BACKBONE|DICT|INTERRES
    51   24   84 1    
    52   25   26 2    
    53   27   28 2    
    54   27   29 am   BACKBONE|DICT|INTERRES
    55   29   30 1    
    56   29   85 1    
    57   30   31 1    
    58   30   32 1    
    59   30   86 1    
    60   31   87 1    
    61   31   88 1    
    62   31   89 1    
    63   32   33 2    
    64   32   34 am   BACKBONE|DICT|INTERRES
    65   34   35 1    
    66   34   90 1    
    67   35   36 1    
    68   35   37 1    
    69   35   91 1    
    70   36   92 1    
    71   36   93 1    
    72   36   94 1    
    73   37   38 2    
    74   37   39 am   BACKBONE|DICT|INTERRES
    75   39   40 1    
    76   39   95 1    
    77   40   41 1    
    78   40   42 1    
    79   40   96 1    
    80   41   97 1    
    81   41   98 1    
    82   41   99 1    
    83   42   43 2    
    84   42   44 am   BACKBONE|DICT|INTERRES
    85   44   45 1    
    86   44  100 1    
    87   45   46 1    
    88   45   47 1    
    89   45  101 1    
    90   46  102 1    
    91   46  103 1    
    92   46  104 1    
    93   47   48 2    
    94   47   49 am   BACKBONE|DICT|INTERRES
    95   49   50 1    
    96   49  105 1    
    97   50   51 1    
    98   50   52 1    
    99   50  106 1    
   100   51  107 1    
   101   51  108 1    
   102   51  109 1    
   103   52   53 2    
   104   52   54 am   BACKBONE|DICT|INTERRES
   105   54   55 1    
   106   54  110 1    
   107   55   56 1    
   108   55   59 1    
   109   55  111 1    
   110   56   57 am   BACKBONE|DICT|INTERRES
   111   56   58 2    
   112   57  112 1    
   113   57  113 1    
   114   59   60 1    
   115   59  114 1    
   116   59  115 1    
   117   60   61 1    
   118   61  116 1    
   119   61  117 1    
@<TRIPOS>SUBSTRUCTURE
     1 UNK         1 GROUP             0       ****    0 ROOT    
