@<TRIPOS>MOLECULE
3R8
117   119    1
SMALL
USER_CHARGES


@<TRIPOS>ATOM
      1 CA         18.2336  -27.4922  -41.5229 C.3       0 UNK        -0.2013 
      2 C          17.6752  -26.7006  -42.6914 C.2       0 UNK         0.4866 
      3 O          17.3287  -25.5286  -42.5363 O.2       0 UNK        -0.5176 
      4 N          17.5838  -27.3339  -43.8666 N.am      1 UNK        -0.4884 
      5 CA         17.0313  -26.7640  -45.1020 C.3       1 UNK         0.0853 
      6 C6         16.5224  -27.8616  -46.0763 C.3       10 UNK        -0.0849 
      7 S7         15.3742  -29.0452  -45.2841 S.3       10 UNK        -0.2776 
      8 C8         16.2998  -30.6160  -45.3792 C.3       10 UNK         0.0316 
      9 C9         17.5841  -30.5879  -44.5602 C.ar      10 UNK        -0.0863 
     10 C10        17.5545  -30.8349  -43.1846 C.ar      10 UNK        -0.1009 
     11 C11        18.7376  -30.8307  -42.4347 C.ar      10 UNK        -0.0712 
     12 C12        19.9434  -30.5092  -43.0661 C.ar      10 UNK        -0.0894 
     13 C13        19.9889  -30.2585  -44.4389 C.ar      10 UNK        -0.0745 
     14 C14        18.8079  -30.3300  -45.1834 C.ar      10 UNK        -0.0972 
     15 C15        21.3150  -29.9305  -45.1157 C.3       10 UNK         0.0209 
     16 S16        21.1945  -28.4337  -46.1464 S.3       10 UNK        -0.2568 
     17 C17        22.6336  -27.4384  -45.6233 C.3       10 UNK        -0.0983 
     18 CA         22.2872  -26.2620  -44.6680 C.3       3 UNK         0.0876 
     19 N          21.1070  -25.5154  -45.1268 N.am      3 UNK        -0.4424 
     20 C          20.8043  -24.2380  -44.8676 C.2       2 UNK         0.4918 
     21 O          21.5354  -23.4941  -44.2147 O.2       2 UNK        -0.4875 
     22 CA         19.4267  -23.7245  -45.3244 C.3       2 UNK         0.0481 
     23 CB         19.4635  -23.1988  -46.7724 C.3       2 UNK        -0.1831 
     24 N          18.3500  -24.6996  -45.0933 N.am      2 UNK        -0.4498 
     25 C          18.0720  -25.8305  -45.7576 C.2       1 UNK         0.5027 
     26 O          18.6574  -26.1781  -46.7832 O.2       1 UNK        -0.4969 
     27 C          22.2134  -26.6642  -43.1715 C.2       3 UNK         0.5005 
     28 O          22.7001  -27.7289  -42.7808 O.2       3 UNK        -0.5279 
     29 N          21.6564  -25.7791  -42.3327 N.am      4 UNK        -0.4463 
     30 CA         21.5590  -25.9167  -40.8760 C.3       4 UNK         0.0283 
     31 CB         20.6769  -24.7858  -40.3234 C.3       4 UNK        -0.1875 
     32 C          22.9257  -25.9233  -40.1683 C.2       4 UNK         0.4949 
     33 O          23.0388  -26.4927  -39.0842 O.2       4 UNK        -0.5039 
     34 N          23.9399  -25.3144  -40.8001 N.am      5 UNK        -0.4663 
     35 CA         25.3358  -25.3491  -40.3581 C.3       5 UNK         0.0242 
     36 CB         26.1338  -24.2760  -41.1162 C.3       5 UNK        -0.1982 
     37 C          25.9867  -26.7330  -40.5374 C.2       5 UNK         0.5017 
     38 O          26.8817  -27.0759  -39.7642 O.2       5 UNK        -0.5012 
     39 N          25.5306  -27.4983  -41.5409 N.am      6 UNK        -0.4439 
     40 CA         25.9446  -28.8827  -41.7727 C.3       6 UNK         0.0297 
     41 CB         25.7934  -29.2383  -43.2614 C.3       6 UNK        -0.2006 
     42 C          25.1346  -29.8493  -40.8973 C.2       6 UNK         0.4892 
     43 O          25.7200  -30.7645  -40.3183 O.2       6 UNK        -0.5089 
     44 N          23.8125  -29.6166  -40.8169 N.am      7 UNK        -0.4243 
     45 CA         22.8273  -30.3726  -40.0300 C.3       7 UNK         0.0196 
     46 CB         23.0617  -30.1702  -38.5184 C.3       7 UNK        -0.2007 
     47 C          22.7525  -31.8613  -40.4276 C.2       7 UNK         0.5020 
     48 O          22.5865  -32.7271  -39.5673 O.2       7 UNK        -0.5147 
     49 N          22.8689  -32.1251  -41.7378 N.am      8 UNK        -0.4734 
     50 CA         22.9566  -33.4540  -42.3571 C.3       8 UNK         0.0238 
     51 CB         23.0881  -33.2832  -43.8795 C.3       8 UNK        -0.1912 
     52 C          21.8048  -34.4230  -42.0300 C.2       8 UNK         0.5038 
     53 O          22.0242  -35.6349  -42.0497 O.2       8 UNK        -0.5046 
     54 N          20.6148  -33.8842  -41.7344 N.am      9 UNK        -0.4200 
     55 CA         19.4429  -34.6475  -41.2847 C.3       9 UNK         0.0839 
     56 C          19.5252  -35.1856  -39.8243 C.2       9 UNK         0.5513 
     57 N          20.4957  -34.7797  -39.0126 N.am      9 UNK        -0.7519 
     58 O          18.6978  -36.0025  -39.4277 O.2       9 UNK        -0.4960 
     59 C59        18.1202  -33.8965  -41.5966 C.3       10 UNK        -0.0876 
     60 S60        17.6578  -32.5393  -40.4555 S.3       10 UNK        -0.2414 
     61 C61        18.7385  -31.1511  -40.9417 C.3       10 UNK         0.0169 
     62 H62        19.1742  -27.9697  -41.7946 H         1 UNK         0.0903 
     63 H63        18.4139  -26.8463  -40.6646 H         1 UNK         0.0903 
     64 H64        17.5204  -28.2585  -41.2224 H         1 UNK         0.0903 
     65 H65        17.8795  -28.3000  -43.9371 H         1 UNK         0.3096 
     66 H66        16.1690  -26.1470  -44.8376 H         1 UNK         0.1121 
     67 H67        15.9958  -27.3968  -46.9117 H         1 UNK         0.0849 
     68 H68        17.3533  -28.4055  -46.5250 H         1 UNK         0.0849 
     69 H69        15.6591  -31.4234  -45.0212 H         1 UNK         0.0865 
     70 H70        16.5154  -30.8458  -46.4239 H         1 UNK         0.0865 
     71 H71        16.6107  -31.0487  -42.7017 H         1 UNK         0.1346 
     72 H72        20.8535  -30.4531  -42.4894 H         1 UNK         0.1412 
     73 H73        18.8433  -30.1592  -46.2507 H         1 UNK         0.1426 
     74 H74        22.1042  -29.8104  -44.3732 H         1 UNK         0.0716 
     75 H75        21.6104  -30.7690  -45.7472 H         1 UNK         0.0716 
     76 H76        23.4192  -28.0797  -45.2224 H         1 UNK         0.0695 
     77 H77        23.0593  -27.0218  -46.5373 H         1 UNK         0.0695 
     78 H78        23.1347  -25.5748  -44.7178 H         1 UNK         0.0983 
     79 H79        20.4434  -26.0540  -45.6736 H         1 UNK         0.3095 
     80 H80        19.1825  -22.8767  -44.6825 H         1 UNK         0.0454 
     81 H81        19.7865  -23.9607  -47.4820 H         1 UNK         0.0851 
     82 H82        18.4856  -22.8366  -47.0889 H         1 UNK         0.0851 
     83 H83        20.1618  -22.3656  -46.8608 H         1 UNK         0.0851 
     84 H84        17.8659  -24.5908  -44.2055 H         1 UNK         0.2976 
     85 H85        21.3464  -24.8994  -42.7300 H         1 UNK         0.3116 
     86 H86        21.0773  -26.8723  -40.6610 H         1 UNK         0.0646 
     87 H87        20.5237  -24.9012  -39.2495 H         1 UNK         0.0847 
     88 H88        19.6927  -24.7776  -40.7916 H         1 UNK         0.0847 
     89 H89        21.1292  -23.8063  -40.4841 H         1 UNK         0.0847 
     90 H90        23.7450  -24.8361  -41.6675 H         1 UNK         0.3040 
     91 H91        25.3634  -25.1099  -39.2923 H         1 UNK         0.1015 
     92 H92        25.7267  -23.2800  -40.9402 H         1 UNK         0.0786 
     93 H93        26.1339  -24.4548  -42.1923 H         1 UNK         0.0786 
     94 H94        27.1744  -24.2607  -40.7887 H         1 UNK         0.0786 
     95 H95        24.7556  -27.1578  -42.0936 H         1 UNK         0.3172 
     96 H96        26.9999  -28.9889  -41.5113 H         1 UNK         0.0595 
     97 H97        26.1624  -30.2461  -43.4568 H         1 UNK         0.0839 
     98 H98        26.3642  -28.5573  -43.8928 H         1 UNK         0.0839 
     99 H99        24.7544  -29.2077  -43.5878 H         1 UNK         0.0839 
    100 H100       23.4333  -28.8617  -41.3835 H         1 UNK         0.2998 
    101 H101       21.8543  -29.9407  -40.2675 H         1 UNK         0.0822 
    102 H102       23.0970  -29.1118  -38.2609 H         1 UNK         0.0787 
    103 H103       22.2571  -30.6179  -37.9338 H         1 UNK         0.0787 
    104 H104       23.9958  -30.6262  -38.1887 H         1 UNK         0.0787 
    105 H105       23.0362  -31.3416  -42.3513 H         1 UNK         0.3055 
    106 H106       23.8721  -33.9179  -41.9833 H         1 UNK         0.1106 
    107 H107       23.2088  -34.2494  -44.3717 H         1 UNK         0.0828 
    108 H108       22.2045  -32.8095  -44.3088 H         1 UNK         0.0828 
    109 H109       23.9574  -32.6797  -44.1417 H         1 UNK         0.0828 
    110 H110       20.5225  -32.8814  -41.7386 H         1 UNK         0.2931 
    111 H111       19.4184  -35.5452  -41.9061 H         1 UNK         0.0412 
    112 H112       20.5351  -35.1443  -38.0743 H         1 UNK         0.3472 
    113 H113       21.1887  -34.1033  -39.3175 H         1 UNK         0.3472 
    114 H114       17.2982  -34.6141  -41.5695 H         1 UNK         0.0970 
    115 H115       18.1305  -33.5299  -42.6235 H         1 UNK         0.0970 
    116 H116       19.7471  -31.3776  -40.5970 H         1 UNK         0.0612 
    117 H117       18.4252  -30.2662  -40.3887 H         1 UNK         0.0612 
@<TRIPOS>BOND
     1    1    2 1    
     2    1   62 1    
     3    1   63 1    
     4    1   64 1    
     5    2    3 2    
     6    2    4 am   BACKBONE|DICT|INTERRES
     7    4    5 1    
     8    4   65 1    
     9    5    6 1    
    10    5   25 1    
    11    5   66 1    
    12    6    7 1    
    13    6   67 1    
    14    6   68 1    
    15    7    8 1    
    16    8    9 1    
    17    8   69 1    
    18    8   70 1    
    19    9   10 ar   
    20    9   14 ar   
    21   10   11 ar   
    22   10   71 1    
    23   11   12 ar   
    24   11   61 1    
    25   12   13 ar   
    26   12   72 1    
    27   13   14 ar   
    28   13   15 1    
    29   14   73 1    
    30   15   16 1    
    31   15   74 1    
    32   15   75 1    
    33   16   17 1    
    34   17   18 1    
    35   17   76 1    
    36   17   77 1    
    37   18   19 1    
    38   18   27 1    
    39   18   78 1    
    40   19   20 am   BACKBONE|DICT|INTERRES
    41   19   79 1    
    42   20   21 2    
    43   20   22 1    
    44   22   23 1    
    45   22   24 1    
    46   22   80 1    
    47   23   81 1    
    48   23   82 1    
    49   23   83 1    
    50   24   25 am   BACKBONE|DICT|INTERRES
    51   24   84 1    
    52   25   26 2    
    53   27   28 2    
    54   27   29 am   BACKBONE|DICT|INTERRES
    55   29   30 1    
    56   29   85 1    
    57   30   31 1    
    58   30   32 1    
    59   30   86 1    
    60   31   87 1    
    61   31   88 1    
    62   31   89 1    
    63   32   33 2    
    64   32   34 am   BACKBONE|DICT|INTERRES
    65   34   35 1    
    66   34   90 1    
    67   35   36 1    
    68   35   37 1    
    69   35   91 1    
    70   36   92 1    
    71   36   93 1    
    72   36   94 1    
    73   37   38 2    
    74   37   39 am   BACKBONE|DICT|INTERRES
    75   39   40 1    
    76   39   95 1    
    77   40   41 1    
    78   40   42 1    
    79   40   96 1    
    80   41   97 1    
    81   41   98 1    
    82   41   99 1    
    83   42   43 2    
    84   42   44 am   BACKBONE|DICT|INTERRES
    85   44   45 1    
    86   44  100 1    
    87   45   46 1    
    88   45   47 1    
    89   45  101 1    
    90   46  102 1    
    91   46  103 1    
    92   46  104 1    
    93   47   48 2    
    94   47   49 am   BACKBONE|DICT|INTERRES
    95   49   50 1    
    96   49  105 1    
    97   50   51 1    
    98   50   52 1    
    99   50  106 1    
   100   51  107 1    
   101   51  108 1    
   102   51  109 1    
   103   52   53 2    
   104   52   54 am   BACKBONE|DICT|INTERRES
   105   54   55 1    
   106   54  110 1    
   107   55   56 1    
   108   55   59 1    
   109   55  111 1    
   110   56   57 am   BACKBONE|DICT|INTERRES
   111   56   58 2    
   112   57  112 1    
   113   57  113 1    
   114   59   60 1    
   115   59  114 1    
   116   59  115 1    
   117   60   61 1    
   118   61  116 1    
   119   61  117 1    
@<TRIPOS>SUBSTRUCTURE
     1 UNK         1 GROUP             0       ****    0 ROOT    
