@<TRIPOS>MOLECULE
3R8
117   119    1
SMALL
USER_CHARGES


@<TRIPOS>ATOM
      1 CA         15.5885  -23.0321  -40.5245 C.3       0 UNK        -0.2013 
      2 C          16.3643  -23.2630  -41.8129 C.2       0 UNK         0.4866 
      3 O          17.1263  -22.3909  -42.2305 O.2       0 UNK        -0.5176 
      4 N          16.1617  -24.4237  -42.4473 N.am      1 UNK        -0.4884 
      5 CA         16.8519  -24.8680  -43.6607 C.3       1 UNK         0.0853 
      6 C6         15.9458  -25.7511  -44.5652 C.3       10 UNK        -0.0849 
      7 S7         15.0129  -27.0468  -43.6747 S.3       10 UNK        -0.2776 
      8 C8         14.8768  -28.3439  -44.9449 C.3       10 UNK         0.0316 
      9 C9         16.0508  -29.3156  -44.9317 C.ar      10 UNK        -0.0863 
     10 C10        16.3544  -30.0291  -43.7680 C.ar      10 UNK        -0.1009 
     11 C11        17.3497  -31.0096  -43.7698 C.ar      10 UNK        -0.0712 
     12 C12        18.0474  -31.2764  -44.9517 C.ar      10 UNK        -0.0894 
     13 C13        17.7549  -30.5706  -46.1240 C.ar      10 UNK        -0.0745 
     14 C14        16.7668  -29.5798  -46.1040 C.ar      10 UNK        -0.0972 
     15 C15        18.4400  -30.9484  -47.4311 C.3       10 UNK         0.0209 
     16 S16        20.1878  -30.4484  -47.4869 S.3       10 UNK        -0.2568 
     17 C17        20.0674  -28.6465  -47.7753 C.3       10 UNK        -0.0983 
     18 CA         20.7545  -27.7985  -46.6757 C.3       3 UNK         0.0876 
     19 N          20.1469  -28.0492  -45.3621 N.am      3 UNK        -0.4424 
     20 C          20.4548  -27.4625  -44.1990 C.2       2 UNK         0.4918 
     21 O          21.4230  -26.7222  -44.0236 O.2       2 UNK        -0.4875 
     22 CA         19.4380  -27.7013  -43.0698 C.3       2 UNK         0.0481 
     23 CB         20.0425  -27.5375  -41.6622 C.3       2 UNK        -0.1831 
     24 N          18.2546  -26.8502  -43.2478 N.am      2 UNK        -0.4498 
     25 C          18.2068  -25.5084  -43.2946 C.2       1 UNK         0.5027 
     26 O          19.1712  -24.7740  -43.0771 O.2       1 UNK        -0.4969 
     27 C          22.2948  -27.9168  -46.7581 C.2       3 UNK         0.5005 
     28 O          22.8966  -27.2661  -47.6153 O.2       3 UNK        -0.5279 
     29 N          22.9053  -28.7270  -45.8879 N.am      4 UNK        -0.4463 
     30 CA         24.3475  -28.9048  -45.7644 C.3       4 UNK         0.0283 
     31 CB         24.7925  -30.1097  -46.6107 C.3       4 UNK        -0.1875 
     32 C          24.6828  -29.1202  -44.2870 C.2       4 UNK         0.4949 
     33 O          23.8222  -29.5777  -43.5324 O.2       4 UNK        -0.5039 
     34 N          25.9222  -28.7802  -43.9046 N.am      5 UNK        -0.4663 
     35 CA         26.5834  -28.9679  -42.5983 C.3       5 UNK         0.0242 
     36 CB         26.7788  -30.4679  -42.3117 C.3       5 UNK        -0.1982 
     37 C          25.9488  -28.2659  -41.3784 C.2       5 UNK         0.5017 
     38 O          26.6541  -28.0436  -40.3930 O.2       5 UNK        -0.5012 
     39 N          24.6535  -27.9378  -41.4488 N.am      6 UNK        -0.4439 
     40 CA         23.7853  -27.3300  -40.4361 C.3       6 UNK         0.0297 
     41 CB         24.3059  -25.9584  -39.9625 C.3       6 UNK        -0.2006 
     42 C          23.4867  -28.2708  -39.2582 C.2       6 UNK         0.4892 
     43 O          22.3183  -28.5744  -39.0155 O.2       6 UNK        -0.5089 
     44 N          24.5397  -28.7230  -38.5640 N.am      7 UNK        -0.4243 
     45 CA         24.5016  -29.6241  -37.4105 C.3       7 UNK         0.0196 
     46 CB         25.9309  -29.8106  -36.8736 C.3       7 UNK        -0.2007 
     47 C          23.8564  -30.9733  -37.7663 C.2       7 UNK         0.5020 
     48 O          24.4880  -31.7931  -38.4359 O.2       7 UNK        -0.5147 
     49 N          22.5877  -31.1427  -37.3639 N.am      8 UNK        -0.4734 
     50 CA         21.7055  -32.2860  -37.6494 C.3       8 UNK         0.0238 
     51 CB         22.1825  -33.5347  -36.8771 C.3       8 UNK        -0.1912 
     52 C          21.5123  -32.5657  -39.1566 C.2       8 UNK         0.5038 
     53 O          21.2383  -33.7075  -39.5311 O.2       8 UNK        -0.5046 
     54 N          21.6821  -31.5267  -39.9881 N.am      9 UNK        -0.4200 
     55 CA         21.7310  -31.5892  -41.4596 C.3       9 UNK         0.0839 
     56 C          22.9369  -32.4086  -42.0214 C.2       9 UNK         0.5513 
     57 N          23.9824  -32.6753  -41.2454 N.am      9 UNK        -0.7519 
     58 O          22.9306  -32.8121  -43.1819 O.2       9 UNK        -0.4960 
     59 C59        20.3829  -32.0171  -42.1101 C.3       10 UNK        -0.0876 
     60 S60        18.9378  -31.0898  -41.4950 S.3       10 UNK        -0.2414 
     61 C61        17.6146  -31.8174  -42.5072 C.3       10 UNK         0.0169 
     62 H62        14.9647  -22.1433  -40.6160 H         1 UNK         0.0903 
     63 H63        14.9426  -23.8753  -40.2797 H         1 UNK         0.0903 
     64 H64        16.2775  -22.8810  -39.6939 H         1 UNK         0.0903 
     65 H65        15.5220  -25.1020  -42.0557 H         1 UNK         0.3096 
     66 H66        17.1026  -23.9843  -44.2528 H         1 UNK         0.1121 
     67 H67        15.2094  -25.1121  -45.0553 H         1 UNK         0.0849 
     68 H68        16.5251  -26.1944  -45.3782 H         1 UNK         0.0849 
     69 H69        13.9639  -28.9116  -44.7591 H         1 UNK         0.0865 
     70 H70        14.7492  -27.8854  -45.9270 H         1 UNK         0.0865 
     71 H71        15.7901  -29.8425  -42.8641 H         1 UNK         0.1346 
     72 H72        18.7962  -32.0563  -44.9709 H         1 UNK         0.1412 
     73 H73        16.5171  -29.0542  -47.0159 H         1 UNK         0.1426 
     74 H74        18.3879  -32.0311  -47.5541 H         1 UNK         0.0716 
     75 H75        17.9137  -30.5253  -48.2883 H         1 UNK         0.0716 
     76 H76        19.0173  -28.3605  -47.8494 H         1 UNK         0.0695 
     77 H77        20.4943  -28.4260  -48.7557 H         1 UNK         0.0695 
     78 H78        20.5383  -26.7513  -46.8976 H         1 UNK         0.0983 
     79 H79        19.3461  -28.6652  -45.3817 H         1 UNK         0.3095 
     80 H80        19.0913  -28.7299  -43.1603 H         1 UNK         0.0454 
     81 H81        19.2979  -27.7223  -40.8883 H         1 UNK         0.0851 
     82 H82        20.4542  -26.5409  -41.5013 H         1 UNK         0.0851 
     83 H83        20.8471  -28.2564  -41.5086 H         1 UNK         0.0851 
     84 H84        17.3883  -27.3429  -43.4290 H         1 UNK         0.2976 
     85 H85        22.3596  -29.1845  -45.1685 H         1 UNK         0.3116 
     86 H86        24.8637  -28.0051  -46.1066 H         1 UNK         0.0646 
     87 H87        24.3035  -31.0296  -46.2866 H         1 UNK         0.0847 
     88 H88        24.5594  -29.9610  -47.6652 H         1 UNK         0.0847 
     89 H89        25.8690  -30.2675  -46.5354 H         1 UNK         0.0847 
     90 H90        26.5176  -28.3687  -44.6112 H         1 UNK         0.3040 
     91 H91        27.5753  -28.5249  -42.7042 H         1 UNK         0.1015 
     92 H92        25.8249  -30.9872  -42.2381 H         1 UNK         0.0786 
     93 H93        27.3085  -30.6261  -41.3710 H         1 UNK         0.0786 
     94 H94        27.3616  -30.9494  -43.0969 H         1 UNK         0.0786 
     95 H95        24.1700  -28.2935  -42.2709 H         1 UNK         0.3172 
     96 H96        22.8394  -27.1476  -40.9451 H         1 UNK         0.0595 
     97 H97        25.2514  -26.0340  -39.4252 H         1 UNK         0.0839 
     98 H98        23.5902  -25.4865  -39.2881 H         1 UNK         0.0839 
     99 H99        24.4526  -25.2806  -40.8034 H         1 UNK         0.0839 
    100 H100       25.4580  -28.4618  -38.9108 H         1 UNK         0.2998 
    101 H101       23.9081  -29.1438  -36.6298 H         1 UNK         0.0822 
    102 H102       25.9413  -30.4863  -36.0173 H         1 UNK         0.0787 
    103 H103       26.5949  -30.2316  -37.6302 H         1 UNK         0.0787 
    104 H104       26.3578  -28.8631  -36.5443 H         1 UNK         0.0787 
    105 H105       22.1482  -30.3738  -36.8748 H         1 UNK         0.3055 
    106 H106       20.7181  -32.0179  -37.2700 H         1 UNK         0.1106 
    107 H107       22.2975  -33.3246  -35.8139 H         1 UNK         0.0828 
    108 H108       21.4649  -34.3512  -36.9671 H         1 UNK         0.0828 
    109 H109       23.1389  -33.9001  -37.2526 H         1 UNK         0.0828 
    110 H110       21.8949  -30.6231  -39.5821 H         1 UNK         0.2931 
    111 H111       21.9224  -30.5631  -41.7743 H         1 UNK         0.0412 
    112 H112       24.0217  -32.3544  -40.2832 H         1 UNK         0.3472 
    113 H113       24.7462  -33.2108  -41.6241 H         1 UNK         0.3472 
    114 H114       20.4353  -31.8794  -43.1911 H         1 UNK         0.0970 
    115 H115       20.2051  -33.0813  -41.9464 H         1 UNK         0.0970 
    116 H116       17.8574  -32.8504  -42.7608 H         1 UNK         0.0612 
    117 H117       16.7075  -31.8645  -41.9029 H         1 UNK         0.0612 
@<TRIPOS>BOND
     1    1    2 1    
     2    1   62 1    
     3    1   63 1    
     4    1   64 1    
     5    2    3 2    
     6    2    4 am   BACKBONE|DICT|INTERRES
     7    4    5 1    
     8    4   65 1    
     9    5    6 1    
    10    5   25 1    
    11    5   66 1    
    12    6    7 1    
    13    6   67 1    
    14    6   68 1    
    15    7    8 1    
    16    8    9 1    
    17    8   69 1    
    18    8   70 1    
    19    9   10 ar   
    20    9   14 ar   
    21   10   11 ar   
    22   10   71 1    
    23   11   12 ar   
    24   11   61 1    
    25   12   13 ar   
    26   12   72 1    
    27   13   14 ar   
    28   13   15 1    
    29   14   73 1    
    30   15   16 1    
    31   15   74 1    
    32   15   75 1    
    33   16   17 1    
    34   17   18 1    
    35   17   76 1    
    36   17   77 1    
    37   18   19 1    
    38   18   27 1    
    39   18   78 1    
    40   19   20 am   BACKBONE|DICT|INTERRES
    41   19   79 1    
    42   20   21 2    
    43   20   22 1    
    44   22   23 1    
    45   22   24 1    
    46   22   80 1    
    47   23   81 1    
    48   23   82 1    
    49   23   83 1    
    50   24   25 am   BACKBONE|DICT|INTERRES
    51   24   84 1    
    52   25   26 2    
    53   27   28 2    
    54   27   29 am   BACKBONE|DICT|INTERRES
    55   29   30 1    
    56   29   85 1    
    57   30   31 1    
    58   30   32 1    
    59   30   86 1    
    60   31   87 1    
    61   31   88 1    
    62   31   89 1    
    63   32   33 2    
    64   32   34 am   BACKBONE|DICT|INTERRES
    65   34   35 1    
    66   34   90 1    
    67   35   36 1    
    68   35   37 1    
    69   35   91 1    
    70   36   92 1    
    71   36   93 1    
    72   36   94 1    
    73   37   38 2    
    74   37   39 am   BACKBONE|DICT|INTERRES
    75   39   40 1    
    76   39   95 1    
    77   40   41 1    
    78   40   42 1    
    79   40   96 1    
    80   41   97 1    
    81   41   98 1    
    82   41   99 1    
    83   42   43 2    
    84   42   44 am   BACKBONE|DICT|INTERRES
    85   44   45 1    
    86   44  100 1    
    87   45   46 1    
    88   45   47 1    
    89   45  101 1    
    90   46  102 1    
    91   46  103 1    
    92   46  104 1    
    93   47   48 2    
    94   47   49 am   BACKBONE|DICT|INTERRES
    95   49   50 1    
    96   49  105 1    
    97   50   51 1    
    98   50   52 1    
    99   50  106 1    
   100   51  107 1    
   101   51  108 1    
   102   51  109 1    
   103   52   53 2    
   104   52   54 am   BACKBONE|DICT|INTERRES
   105   54   55 1    
   106   54  110 1    
   107   55   56 1    
   108   55   59 1    
   109   55  111 1    
   110   56   57 am   BACKBONE|DICT|INTERRES
   111   56   58 2    
   112   57  112 1    
   113   57  113 1    
   114   59   60 1    
   115   59  114 1    
   116   59  115 1    
   117   60   61 1    
   118   61  116 1    
   119   61  117 1    
@<TRIPOS>SUBSTRUCTURE
     1 UNK         1 GROUP             0       ****    0 ROOT    
