@<TRIPOS>MOLECULE
3R8
117   119    1
SMALL
USER_CHARGES


@<TRIPOS>ATOM
      1 CA         15.5401  -24.7395  -45.8218 C.3       0 UNK        -0.2013 
      2 C          16.9838  -24.4561  -46.2085 C.2       0 UNK         0.4866 
      3 O          17.4227  -23.3104  -46.1081 O.2       0 UNK        -0.5176 
      4 N          17.7190  -25.4785  -46.6703 N.am      1 UNK        -0.4884 
      5 CA         19.1057  -25.3577  -47.1360 C.3       1 UNK         0.0853 
      6 C6         19.5376  -26.5659  -48.0152 C.3       10 UNK        -0.0849 
      7 S7         19.8076  -28.1512  -47.1362 S.3       10 UNK        -0.2776 
      8 C8         18.2223  -29.0270  -47.3202 C.3       10 UNK         0.0316 
      9 C9         17.6980  -29.4738  -45.9624 C.ar      10 UNK        -0.0863 
     10 C10        18.2273  -30.6095  -45.3412 C.ar      10 UNK        -0.1009 
     11 C11        17.7515  -31.0241  -44.0928 C.ar      10 UNK        -0.0712 
     12 C12        16.7411  -30.2927  -43.4617 C.ar      10 UNK        -0.0894 
     13 C13        16.2199  -29.1438  -44.0632 C.ar      10 UNK        -0.0745 
     14 C14        16.6891  -28.7517  -45.3201 C.ar      10 UNK        -0.0972 
     15 C15        15.1581  -28.3128  -43.3597 C.3       10 UNK         0.0209 
     16 S16        15.8323  -26.7148  -42.8037 S.3       10 UNK        -0.2568 
     17 C17        16.7058  -27.1624  -41.2658 C.3       10 UNK        -0.0983 
     18 CA         18.1819  -27.5929  -41.4720 C.3       3 UNK         0.0876 
     19 N          18.9501  -26.6432  -42.2846 N.am      3 UNK        -0.4424 
     20 C          20.1945  -26.8562  -42.7343 C.2       2 UNK         0.4918 
     21 O          20.8438  -27.8725  -42.4847 O.2       2 UNK        -0.4875 
     22 CA         20.7703  -25.7865  -43.6728 C.3       2 UNK         0.0481 
     23 CB         22.2605  -26.0498  -43.9965 C.3       2 UNK        -0.1831 
     24 N          19.9459  -25.7976  -44.8799 N.am      2 UNK        -0.4498 
     25 C          20.0916  -25.0556  -45.9852 C.2       1 UNK         0.5027 
     26 O          20.9311  -24.1641  -46.1206 O.2       1 UNK        -0.4969 
     27 C          18.8767  -27.8476  -40.1187 C.2       3 UNK         0.5005 
     28 O          18.8551  -26.9685  -39.2541 O.2       3 UNK        -0.5279 
     29 N          19.5088  -29.0242  -39.9862 N.am      4 UNK        -0.4463 
     30 CA         20.3427  -29.4571  -38.8578 C.3       4 UNK         0.0283 
     31 CB         19.4879  -29.6698  -37.5907 C.3       4 UNK        -0.1875 
     32 C          21.5656  -28.5446  -38.6133 C.2       4 UNK         0.4949 
     33 O          21.9879  -28.3801  -37.4680 O.2       4 UNK        -0.5039 
     34 N          22.1260  -27.9861  -39.6933 N.am      5 UNK        -0.4663 
     35 CA         23.3182  -27.1386  -39.6950 C.3       5 UNK         0.0242 
     36 CB         22.8826  -25.6726  -39.8674 C.3       5 UNK        -0.1982 
     37 C          24.2556  -27.5825  -40.8268 C.2       5 UNK         0.5017 
     38 O          23.8595  -28.4015  -41.6595 O.2       5 UNK        -0.5012 
     39 N          25.4844  -27.0447  -40.8395 N.am      6 UNK        -0.4439 
     40 CA         26.5613  -27.3310  -41.7992 C.3       6 UNK         0.0297 
     41 CB         26.2063  -26.7929  -43.2050 C.3       6 UNK        -0.2006 
     42 C          26.9523  -28.8223  -41.7849 C.2       6 UNK         0.4892 
     43 O          27.7027  -29.2356  -40.9003 O.2       6 UNK        -0.5089 
     44 N          26.4088  -29.6036  -42.7294 N.am      7 UNK        -0.4243 
     45 CA         26.5085  -31.0667  -42.7789 C.3       7 UNK         0.0196 
     46 CB         26.0785  -31.5472  -44.1749 C.3       7 UNK        -0.2007 
     47 C          25.6795  -31.7765  -41.6883 C.2       7 UNK         0.5020 
     48 O          25.8817  -32.9702  -41.4637 O.2       7 UNK        -0.5147 
     49 N          24.7540  -31.0447  -41.0489 N.am      8 UNK        -0.4734 
     50 CA         23.8861  -31.4564  -39.9389 C.3       8 UNK         0.0238 
     51 CB         24.7163  -31.7965  -38.6835 C.3       8 UNK        -0.1912 
     52 C          22.8794  -32.5591  -40.3119 C.2       8 UNK         0.5038 
     53 O          22.4455  -33.3079  -39.4351 O.2       8 UNK        -0.5046 
     54 N          22.5236  -32.6277  -41.6024 N.am      9 UNK        -0.4200 
     55 CA         21.6128  -33.6164  -42.2038 C.3       9 UNK         0.0839 
     56 C          22.1424  -35.0838  -42.1686 C.2       9 UNK         0.5513 
     57 N          23.4352  -35.3156  -41.9672 N.am      9 UNK        -0.7519 
     58 O          21.3807  -36.0280  -42.3620 O.2       9 UNK        -0.4960 
     59 C59        20.1496  -33.4767  -41.6897 C.3       10 UNK        -0.0876 
     60 S60        19.4471  -31.8322  -42.0633 S.3       10 UNK        -0.2414 
     61 C61        18.3246  -32.2646  -43.4277 C.3       10 UNK         0.0169 
     62 H62        15.2800  -25.7912  -45.9279 H         1 UNK         0.0903 
     63 H63        15.3663  -24.4493  -44.7861 H         1 UNK         0.0903 
     64 H64        14.8651  -24.1609  -46.4517 H         1 UNK         0.0903 
     65 H65        17.3120  -26.3975  -46.7409 H         1 UNK         0.3096 
     66 H66        19.1344  -24.4805  -47.7875 H         1 UNK         0.1121 
     67 H67        20.4757  -26.3196  -48.5161 H         1 UNK         0.0849 
     68 H68        18.8209  -26.7155  -48.8242 H         1 UNK         0.0849 
     69 H69        17.4878  -28.4002  -47.8273 H         1 UNK         0.0865 
     70 H70        18.3696  -29.8966  -47.9625 H         1 UNK         0.0865 
     71 H71        19.0143  -31.1674  -45.8304 H         1 UNK         0.1346 
     72 H72        16.3788  -30.6081  -42.4926 H         1 UNK         0.1412 
     73 H73        16.2695  -27.8752  -45.7884 H         1 UNK         0.1426 
     74 H74        14.7266  -28.8508  -42.5142 H         1 UNK         0.0716 
     75 H75        14.3369  -28.1245  -44.0527 H         1 UNK         0.0716 
     76 H76        16.1477  -27.9509  -40.7577 H         1 UNK         0.0695 
     77 H77        16.6531  -26.2901  -40.6113 H         1 UNK         0.0695 
     78 H78        18.1762  -28.5330  -42.0237 H         1 UNK         0.0983 
     79 H79        18.4752  -25.7862  -42.5273 H         1 UNK         0.3095 
     80 H80        20.6748  -24.8146  -43.1857 H         1 UNK         0.0454 
     81 H81        22.3911  -26.9732  -44.5622 H         1 UNK         0.0851 
     82 H82        22.8491  -26.1446  -43.0847 H         1 UNK         0.0851 
     83 H83        22.7063  -25.2385  -44.5701 H         1 UNK         0.0851 
     84 H84        19.2267  -26.5090  -44.8962 H         1 UNK         0.2976 
     85 H85        19.5012  -29.6557  -40.7784 H         1 UNK         0.3116 
     86 H86        20.7467  -30.4296  -39.1423 H         1 UNK         0.0646 
     87 H87        19.0958  -28.7288  -37.2037 H         1 UNK         0.0847 
     88 H88        20.0759  -30.1276  -36.7944 H         1 UNK         0.0847 
     89 H89        18.6437  -30.3304  -37.7874 H         1 UNK         0.0847 
     90 H90        21.7555  -28.1970  -40.6167 H         1 UNK         0.3040 
     91 H91        23.8624  -27.2484  -38.7542 H         1 UNK         0.1015 
     92 H92        22.3396  -25.5192  -40.7999 H         1 UNK         0.0786 
     93 H93        23.7393  -24.9979  -39.8710 H         1 UNK         0.0786 
     94 H94        22.2305  -25.3598  -39.0514 H         1 UNK         0.0786 
     95 H95        25.7315  -26.4064  -40.0954 H         1 UNK         0.3172 
     96 H96        27.4385  -26.7812  -41.4542 H         1 UNK         0.0595 
     97 H97        25.2878  -27.2237  -43.6041 H         1 UNK         0.0839 
     98 H98        27.0053  -27.0019  -43.9176 H         1 UNK         0.0839 
     99 H99        26.0736  -25.7111  -43.1840 H         1 UNK         0.0839 
    100 H100       25.7732  -29.1717  -43.3852 H         1 UNK         0.2998 
    101 H101       27.5533  -31.3445  -42.6241 H         1 UNK         0.0822 
    102 H102       26.7027  -31.1101  -44.9546 H         1 UNK         0.0787 
    103 H103       26.1689  -32.6312  -44.2607 H         1 UNK         0.0787 
    104 H104       25.0408  -31.2886  -44.3897 H         1 UNK         0.0787 
    105 H105       24.6137  -30.0865  -41.3645 H         1 UNK         0.3055 
    106 H106       23.2829  -30.5831  -39.6991 H         1 UNK         0.1106 
    107 H107       24.0723  -31.9460  -37.8159 H         1 UNK         0.0828 
    108 H108       25.2973  -32.7094  -38.8173 H         1 UNK         0.0828 
    109 H109       25.4078  -30.9911  -38.4357 H         1 UNK         0.0828 
    110 H110       22.9394  -31.9675  -42.2423 H         1 UNK         0.2931 
    111 H111       21.5966  -33.3721  -43.2666 H         1 UNK         0.0412 
    112 H112       23.7700  -36.2662  -41.9584 H         1 UNK         0.3472 
    113 H113       24.0783  -34.5525  -41.8083 H         1 UNK         0.3472 
    114 H114       19.5083  -34.2407  -42.1324 H         1 UNK         0.0970 
    115 H115       20.0993  -33.6427  -40.6129 H         1 UNK         0.0970 
    116 H116       18.8631  -32.8708  -44.1581 H         1 UNK         0.0612 
    117 H117       17.5128  -32.8853  -43.0456 H         1 UNK         0.0612 
@<TRIPOS>BOND
     1    1    2 1    
     2    1   62 1    
     3    1   63 1    
     4    1   64 1    
     5    2    3 2    
     6    2    4 am   BACKBONE|DICT|INTERRES
     7    4    5 1    
     8    4   65 1    
     9    5    6 1    
    10    5   25 1    
    11    5   66 1    
    12    6    7 1    
    13    6   67 1    
    14    6   68 1    
    15    7    8 1    
    16    8    9 1    
    17    8   69 1    
    18    8   70 1    
    19    9   10 ar   
    20    9   14 ar   
    21   10   11 ar   
    22   10   71 1    
    23   11   12 ar   
    24   11   61 1    
    25   12   13 ar   
    26   12   72 1    
    27   13   14 ar   
    28   13   15 1    
    29   14   73 1    
    30   15   16 1    
    31   15   74 1    
    32   15   75 1    
    33   16   17 1    
    34   17   18 1    
    35   17   76 1    
    36   17   77 1    
    37   18   19 1    
    38   18   27 1    
    39   18   78 1    
    40   19   20 am   BACKBONE|DICT|INTERRES
    41   19   79 1    
    42   20   21 2    
    43   20   22 1    
    44   22   23 1    
    45   22   24 1    
    46   22   80 1    
    47   23   81 1    
    48   23   82 1    
    49   23   83 1    
    50   24   25 am   BACKBONE|DICT|INTERRES
    51   24   84 1    
    52   25   26 2    
    53   27   28 2    
    54   27   29 am   BACKBONE|DICT|INTERRES
    55   29   30 1    
    56   29   85 1    
    57   30   31 1    
    58   30   32 1    
    59   30   86 1    
    60   31   87 1    
    61   31   88 1    
    62   31   89 1    
    63   32   33 2    
    64   32   34 am   BACKBONE|DICT|INTERRES
    65   34   35 1    
    66   34   90 1    
    67   35   36 1    
    68   35   37 1    
    69   35   91 1    
    70   36   92 1    
    71   36   93 1    
    72   36   94 1    
    73   37   38 2    
    74   37   39 am   BACKBONE|DICT|INTERRES
    75   39   40 1    
    76   39   95 1    
    77   40   41 1    
    78   40   42 1    
    79   40   96 1    
    80   41   97 1    
    81   41   98 1    
    82   41   99 1    
    83   42   43 2    
    84   42   44 am   BACKBONE|DICT|INTERRES
    85   44   45 1    
    86   44  100 1    
    87   45   46 1    
    88   45   47 1    
    89   45  101 1    
    90   46  102 1    
    91   46  103 1    
    92   46  104 1    
    93   47   48 2    
    94   47   49 am   BACKBONE|DICT|INTERRES
    95   49   50 1    
    96   49  105 1    
    97   50   51 1    
    98   50   52 1    
    99   50  106 1    
   100   51  107 1    
   101   51  108 1    
   102   51  109 1    
   103   52   53 2    
   104   52   54 am   BACKBONE|DICT|INTERRES
   105   54   55 1    
   106   54  110 1    
   107   55   56 1    
   108   55   59 1    
   109   55  111 1    
   110   56   57 am   BACKBONE|DICT|INTERRES
   111   56   58 2    
   112   57  112 1    
   113   57  113 1    
   114   59   60 1    
   115   59  114 1    
   116   59  115 1    
   117   60   61 1    
   118   61  116 1    
   119   61  117 1    
@<TRIPOS>SUBSTRUCTURE
     1 UNK         1 GROUP             0       ****    0 ROOT    
