@<TRIPOS>MOLECULE
3R8
117   119    1
SMALL
USER_CHARGES


@<TRIPOS>ATOM
      1 CA         13.7746  -27.8906  -39.1383 C.3       0 UNK        -0.2013 
      2 C          14.5397  -28.0778  -40.4404 C.2       0 UNK         0.4866 
      3 O          14.5663  -29.1880  -40.9716 O.2       0 UNK        -0.5176 
      4 N          15.1441  -26.9948  -40.9520 N.am      1 UNK        -0.4884 
      5 CA         16.0034  -26.9316  -42.1452 C.3       1 UNK         0.0853 
      6 C6         15.3306  -27.5339  -43.4102 C.3       10 UNK        -0.0849 
      7 S7         15.8318  -26.7096  -44.9596 S.3       10 UNK        -0.2776 
      8 C8         15.7280  -28.0821  -46.1538 C.3       10 UNK         0.0316 
      9 C9         17.0121  -28.8973  -46.1855 C.ar      10 UNK        -0.0863 
     10 C10        17.1872  -29.9804  -45.3208 C.ar      10 UNK        -0.1009 
     11 C11        18.3826  -30.7068  -45.3180 C.ar      10 UNK        -0.0712 
     12 C12        19.3889  -30.3727  -46.2296 C.ar      10 UNK        -0.0894 
     13 C13        19.2085  -29.3185  -47.1295 C.ar      10 UNK        -0.0745 
     14 C14        18.0250  -28.5754  -47.0927 C.ar      10 UNK        -0.0972 
     15 C15        20.2715  -28.9991  -48.1687 C.3       10 UNK         0.0209 
     16 S16        21.2206  -27.5108  -47.7398 S.3       10 UNK        -0.2568 
     17 C17        22.4178  -28.1586  -46.5284 C.3       10 UNK        -0.0983 
     18 CA         22.5628  -27.2171  -45.2990 C.3       3 UNK         0.0876 
     19 N          21.6898  -27.5910  -44.1854 N.am      3 UNK        -0.4424 
     20 C          20.4764  -27.0734  -43.9692 C.2       2 UNK         0.4918 
     21 O          19.9274  -26.2533  -44.7097 O.2       2 UNK        -0.4875 
     22 CA         19.7908  -27.4792  -42.6593 C.3       2 UNK         0.0481 
     23 CB         20.4286  -26.7023  -41.4874 C.3       2 UNK        -0.1831 
     24 N          18.3656  -27.1684  -42.7577 N.am      2 UNK        -0.4498 
     25 C          17.4195  -27.4951  -41.8709 C.2       1 UNK         0.5027 
     26 O          17.6477  -28.1561  -40.8543 O.2       1 UNK        -0.4969 
     27 C          24.0049  -27.1389  -44.7719 C.2       3 UNK         0.5005 
     28 O          24.7773  -28.0815  -44.9580 O.2       3 UNK        -0.5279 
     29 N          24.3383  -26.0114  -44.1232 N.am      4 UNK        -0.4463 
     30 CA         25.6721  -25.6106  -43.6523 C.3       4 UNK         0.0283 
     31 CB         26.5687  -25.2243  -44.8505 C.3       4 UNK        -0.1875 
     32 C          26.3182  -26.6512  -42.7189 C.2       4 UNK         0.4949 
     33 O          26.0104  -26.6601  -41.5275 O.2       4 UNK        -0.5039 
     34 N          27.1815  -27.5131  -43.2770 N.am      5 UNK        -0.4663 
     35 CA         27.8061  -28.6499  -42.5949 C.3       5 UNK         0.0242 
     36 CB         28.8687  -29.2733  -43.5134 C.3       5 UNK        -0.1982 
     37 C          26.7904  -29.7136  -42.1420 C.2       5 UNK         0.5017 
     38 O          27.0117  -30.3554  -41.1143 O.2       5 UNK        -0.5012 
     39 N          25.6709  -29.8438  -42.8694 N.am      6 UNK        -0.4439 
     40 CA         24.4932  -30.6095  -42.4609 C.3       6 UNK         0.0297 
     41 CB         23.7381  -31.0955  -43.7122 C.3       6 UNK        -0.2006 
     42 C          23.6213  -29.7431  -41.5348 C.2       6 UNK         0.4892 
     43 O          22.4946  -29.3884  -41.8923 O.2       6 UNK        -0.5089 
     44 N          24.1865  -29.3842  -40.3743 N.am      7 UNK        -0.4243 
     45 CA         23.5514  -28.5977  -39.3194 C.3       7 UNK         0.0196 
     46 CB         24.6052  -28.2015  -38.2734 C.3       7 UNK        -0.2007 
     47 C          22.4141  -29.4061  -38.6851 C.2       7 UNK         0.5020 
     48 O          22.6600  -30.5095  -38.1930 O.2       7 UNK        -0.5147 
     49 N          21.1860  -28.8785  -38.7819 N.am      8 UNK        -0.4734 
     50 CA         19.9164  -29.5401  -38.4387 C.3       8 UNK         0.0238 
     51 CB         19.7832  -29.6894  -36.9080 C.3       8 UNK        -0.1912 
     52 C          19.7010  -30.8770  -39.1852 C.2       8 UNK         0.5038 
     53 O          19.0236  -31.7638  -38.6621 O.2       8 UNK        -0.5046 
     54 N          20.3137  -31.0043  -40.3721 N.am      9 UNK        -0.4200 
     55 CA         20.3982  -32.2241  -41.1901 C.3       9 UNK         0.0839 
     56 C          21.2614  -33.3616  -40.5645 C.2       9 UNK         0.5513 
     57 N          22.0904  -33.0975  -39.5604 N.am      9 UNK        -0.7519 
     58 O          21.2090  -34.5013  -41.0192 O.2       9 UNK        -0.4960 
     59 C59        19.0180  -32.7189  -41.7084 C.3       10 UNK        -0.0876 
     60 S60        18.1477  -31.4167  -42.6397 S.3       10 UNK        -0.2414 
     61 C61        18.5860  -31.8645  -44.3493 C.3       10 UNK         0.0169 
     62 H62        14.1943  -28.5309  -38.3628 H         1 UNK         0.0903 
     63 H63        13.8132  -26.8605  -38.7844 H         1 UNK         0.0903 
     64 H64        12.7283  -28.1625  -39.2753 H         1 UNK         0.0903 
     65 H65        15.0845  -26.1273  -40.4362 H         1 UNK         0.3096 
     66 H66        16.1381  -25.8618  -42.3153 H         1 UNK         0.1121 
     67 H67        14.2472  -27.4198  -43.3458 H         1 UNK         0.0849 
     68 H68        15.5046  -28.6079  -43.4628 H         1 UNK         0.0849 
     69 H69        14.8737  -28.7196  -45.9201 H         1 UNK         0.0865 
     70 H70        15.5299  -27.6685  -47.1439 H         1 UNK         0.0865 
     71 H71        16.4000  -30.2554  -44.6340 H         1 UNK         0.1346 
     72 H72        20.3075  -30.9428  -46.2500 H         1 UNK         0.1412 
     73 H73        17.8931  -27.7474  -47.7761 H         1 UNK         0.1426 
     74 H74        20.9504  -29.8417  -48.3096 H         1 UNK         0.0716 
     75 H75        19.7886  -28.8370  -49.1334 H         1 UNK         0.0716 
     76 H76        23.3570  -28.2615  -47.0756 H         1 UNK         0.0695 
     77 H77        22.1456  -29.1673  -46.2157 H         1 UNK         0.0695 
     78 H78        22.3222  -26.2001  -45.6189 H         1 UNK         0.0983 
     79 H79        22.0778  -28.2339  -43.4998 H         1 UNK         0.3095 
     80 H80        19.9086  -28.5549  -42.5128 H         1 UNK         0.0454 
     81 H81        19.9811  -26.9677  -40.5316 H         1 UNK         0.0851 
     82 H82        20.3140  -25.6252  -41.6153 H         1 UNK         0.0851 
     83 H83        21.4968  -26.9057  -41.4137 H         1 UNK         0.0851 
     84 H84        18.1141  -26.6618  -43.6001 H         1 UNK         0.2976 
     85 H85        23.6093  -25.3287  -43.9663 H         1 UNK         0.3116 
     86 H86        25.5303  -24.7111  -43.0509 H         1 UNK         0.0646 
     87 H87        26.1562  -24.3684  -45.3847 H         1 UNK         0.0847 
     88 H88        27.5684  -24.9398  -44.5189 H         1 UNK         0.0847 
     89 H89        26.6767  -26.0356  -45.5709 H         1 UNK         0.0847 
     90 H90        27.3348  -27.4441  -44.2729 H         1 UNK         0.3040 
     91 H91        28.3020  -28.2705  -41.6987 H         1 UNK         0.1015 
     92 H92        28.4314  -29.6532  -44.4377 H         1 UNK         0.0786 
     93 H93        29.3674  -30.1094  -43.0209 H         1 UNK         0.0786 
     94 H94        29.6395  -28.5491  -43.7779 H         1 UNK         0.0786 
     95 H95        25.5417  -29.2259  -43.6693 H         1 UNK         0.3172 
     96 H96        24.8043  -31.4919  -41.8977 H         1 UNK         0.0595 
     97 H97        23.3551  -30.2673  -44.3075 H         1 UNK         0.0839 
     98 H98        22.8872  -31.7182  -43.4372 H         1 UNK         0.0839 
     99 H99        24.3824  -31.6961  -44.3542 H         1 UNK         0.0839 
    100 H100       25.1231  -29.7205  -40.1874 H         1 UNK         0.2998 
    101 H101       23.1531  -27.6858  -39.7682 H         1 UNK         0.0822 
    102 H102       24.1598  -27.5998  -37.4801 H         1 UNK         0.0787 
    103 H103       25.0598  -29.0756  -37.8051 H         1 UNK         0.0787 
    104 H104       25.4026  -27.6084  -38.7224 H         1 UNK         0.0787 
    105 H105       21.0948  -27.9678  -39.2086 H         1 UNK         0.3055 
    106 H106       19.1170  -28.8791  -38.7764 H         1 UNK         0.1106 
    107 H107       18.7916  -30.0520  -36.6343 H         1 UNK         0.0828 
    108 H108       20.5097  -30.3963  -36.5060 H         1 UNK         0.0828 
    109 H109       19.9274  -28.7351  -36.4017 H         1 UNK         0.0828 
    110 H110       20.8638  -30.2265  -40.7145 H         1 UNK         0.2931 
    111 H111       20.9663  -31.9192  -42.0685 H         1 UNK         0.0412 
    112 H112       22.6466  -33.8453  -39.1776 H         1 UNK         0.3472 
    113 H113       22.1587  -32.1676  -39.1594 H         1 UNK         0.3472 
    114 H114       18.3849  -33.0379  -40.8796 H         1 UNK         0.0970 
    115 H115       19.1311  -33.5948  -42.3496 H         1 UNK         0.0970 
    116 H116       19.6264  -32.1928  -44.3706 H         1 UNK         0.0612 
    117 H117       17.9793  -32.7133  -44.6668 H         1 UNK         0.0612 
@<TRIPOS>BOND
     1    1    2 1    
     2    1   62 1    
     3    1   63 1    
     4    1   64 1    
     5    2    3 2    
     6    2    4 am   BACKBONE|DICT|INTERRES
     7    4    5 1    
     8    4   65 1    
     9    5    6 1    
    10    5   25 1    
    11    5   66 1    
    12    6    7 1    
    13    6   67 1    
    14    6   68 1    
    15    7    8 1    
    16    8    9 1    
    17    8   69 1    
    18    8   70 1    
    19    9   10 ar   
    20    9   14 ar   
    21   10   11 ar   
    22   10   71 1    
    23   11   12 ar   
    24   11   61 1    
    25   12   13 ar   
    26   12   72 1    
    27   13   14 ar   
    28   13   15 1    
    29   14   73 1    
    30   15   16 1    
    31   15   74 1    
    32   15   75 1    
    33   16   17 1    
    34   17   18 1    
    35   17   76 1    
    36   17   77 1    
    37   18   19 1    
    38   18   27 1    
    39   18   78 1    
    40   19   20 am   BACKBONE|DICT|INTERRES
    41   19   79 1    
    42   20   21 2    
    43   20   22 1    
    44   22   23 1    
    45   22   24 1    
    46   22   80 1    
    47   23   81 1    
    48   23   82 1    
    49   23   83 1    
    50   24   25 am   BACKBONE|DICT|INTERRES
    51   24   84 1    
    52   25   26 2    
    53   27   28 2    
    54   27   29 am   BACKBONE|DICT|INTERRES
    55   29   30 1    
    56   29   85 1    
    57   30   31 1    
    58   30   32 1    
    59   30   86 1    
    60   31   87 1    
    61   31   88 1    
    62   31   89 1    
    63   32   33 2    
    64   32   34 am   BACKBONE|DICT|INTERRES
    65   34   35 1    
    66   34   90 1    
    67   35   36 1    
    68   35   37 1    
    69   35   91 1    
    70   36   92 1    
    71   36   93 1    
    72   36   94 1    
    73   37   38 2    
    74   37   39 am   BACKBONE|DICT|INTERRES
    75   39   40 1    
    76   39   95 1    
    77   40   41 1    
    78   40   42 1    
    79   40   96 1    
    80   41   97 1    
    81   41   98 1    
    82   41   99 1    
    83   42   43 2    
    84   42   44 am   BACKBONE|DICT|INTERRES
    85   44   45 1    
    86   44  100 1    
    87   45   46 1    
    88   45   47 1    
    89   45  101 1    
    90   46  102 1    
    91   46  103 1    
    92   46  104 1    
    93   47   48 2    
    94   47   49 am   BACKBONE|DICT|INTERRES
    95   49   50 1    
    96   49  105 1    
    97   50   51 1    
    98   50   52 1    
    99   50  106 1    
   100   51  107 1    
   101   51  108 1    
   102   51  109 1    
   103   52   53 2    
   104   52   54 am   BACKBONE|DICT|INTERRES
   105   54   55 1    
   106   54  110 1    
   107   55   56 1    
   108   55   59 1    
   109   55  111 1    
   110   56   57 am   BACKBONE|DICT|INTERRES
   111   56   58 2    
   112   57  112 1    
   113   57  113 1    
   114   59   60 1    
   115   59  114 1    
   116   59  115 1    
   117   60   61 1    
   118   61  116 1    
   119   61  117 1    
@<TRIPOS>SUBSTRUCTURE
     1 UNK         1 GROUP             0       ****    0 ROOT    
