@<TRIPOS>MOLECULE
3R8
117   119    1
SMALL
USER_CHARGES


@<TRIPOS>ATOM
      1 CA         15.2177  -29.4849  -41.0285 C.3       0 UNK        -0.2013 
      2 C          15.2040  -28.1769  -41.8045 C.2       0 UNK         0.4866 
      3 O          14.6171  -27.1962  -41.3479 O.2       0 UNK        -0.5176 
      4 N          15.8537  -28.1552  -42.9738 N.am      1 UNK        -0.4884 
      5 CA         15.9162  -27.0056  -43.8889 C.3       1 UNK         0.0853 
      6 C6         16.0651  -27.4515  -45.3667 C.3       10 UNK        -0.0849 
      7 S7         14.7823  -28.6511  -45.8799 S.3       10 UNK        -0.2776 
      8 C8         15.6232  -29.5996  -47.1918 C.3       10 UNK         0.0316 
      9 C9         16.8546  -30.3310  -46.6765 C.ar      10 UNK        -0.0863 
     10 C10        16.7227  -31.4713  -45.8810 C.ar      10 UNK        -0.1009 
     11 C11        17.8547  -32.1194  -45.3768 C.ar      10 UNK        -0.0712 
     12 C12        19.1287  -31.6232  -45.6784 C.ar      10 UNK        -0.0894 
     13 C13        19.2701  -30.4742  -46.4637 C.ar      10 UNK        -0.0745 
     14 C14        18.1304  -29.8518  -46.9804 C.ar      10 UNK        -0.0972 
     15 C15        20.6439  -29.8869  -46.7548 C.3       10 UNK         0.0209 
     16 S16        20.7716  -28.1618  -46.1738 S.3       10 UNK        -0.2568 
     17 C17        21.7510  -28.3343  -44.6496 C.3       10 UNK        -0.0983 
     18 CA         21.8071  -26.9898  -43.8764 C.3       3 UNK         0.0876 
     19 N          20.5780  -26.7336  -43.1257 N.am      3 UNK        -0.4424 
     20 C          20.1056  -25.5199  -42.8200 C.2       2 UNK         0.4918 
     21 O          20.5997  -24.4689  -43.2338 O.2       2 UNK        -0.4875 
     22 CA         18.8895  -25.4972  -41.8767 C.3       2 UNK         0.0481 
     23 CB         18.4632  -24.0721  -41.4633 C.3       2 UNK        -0.1831 
     24 N          17.7609  -26.2640  -42.4163 N.am      2 UNK        -0.4498 
     25 C          17.0249  -25.9951  -43.5075 C.2       1 UNK         0.5027 
     26 O          17.1905  -25.0004  -44.2148 O.2       1 UNK        -0.4969 
     27 C          22.9849  -26.9280  -42.8887 C.2       3 UNK         0.5005 
     28 O          23.4385  -27.9648  -42.4065 O.2       3 UNK        -0.5279 
     29 N          23.4524  -25.7057  -42.5939 N.am      4 UNK        -0.4463 
     30 CA         24.5121  -25.3982  -41.6224 C.3       4 UNK         0.0283 
     31 CB         24.6410  -23.8716  -41.4927 C.3       4 UNK        -0.1875 
     32 C          25.8866  -26.0310  -41.9213 C.2       4 UNK         0.4949 
     33 O          26.7225  -26.1035  -41.0204 O.2       4 UNK        -0.5039 
     34 N          26.0998  -26.4812  -43.1653 N.am      5 UNK        -0.4663 
     35 CA         27.2657  -27.2638  -43.5818 C.3       5 UNK         0.0242 
     36 CB         27.3543  -27.2456  -45.1168 C.3       5 UNK        -0.1982 
     37 C          27.2447  -28.7155  -43.0612 C.2       5 UNK         0.5017 
     38 O          28.3034  -29.3439  -43.0178 O.2       5 UNK        -0.5012 
     39 N          26.0622  -29.2247  -42.6896 N.am      6 UNK        -0.4439 
     40 CA         25.8577  -30.5448  -42.0972 C.3       6 UNK         0.0297 
     41 CB         24.6217  -31.1880  -42.7508 C.3       6 UNK        -0.2006 
     42 C          25.6659  -30.4145  -40.5776 C.2       6 UNK         0.4892 
     43 O          25.4473  -29.3142  -40.0651 O.2       6 UNK        -0.5089 
     44 N          25.7424  -31.5539  -39.8780 N.am      7 UNK        -0.4243 
     45 CA         25.5513  -31.6464  -38.4260 C.3       7 UNK         0.0196 
     46 CB         26.0771  -33.0060  -37.9363 C.3       7 UNK        -0.2007 
     47 C          24.0909  -31.4444  -37.9776 C.2       7 UNK         0.5020 
     48 O          23.8623  -31.0857  -36.8220 O.2       7 UNK        -0.5147 
     49 N          23.1346  -31.6849  -38.8808 N.am      8 UNK        -0.4734 
     50 CA         21.6946  -31.5616  -38.6717 C.3       8 UNK         0.0238 
     51 CB         21.1786  -32.7617  -37.8498 C.3       8 UNK        -0.1912 
     52 C          21.0041  -31.4868  -40.0410 C.2       8 UNK         0.5038 
     53 O          21.6608  -31.6902  -41.0662 O.2       8 UNK        -0.5046 
     54 N          19.6875  -31.2435  -40.0254 N.am      9 UNK        -0.4200 
     55 CA         18.8154  -31.1488  -41.2062 C.3       9 UNK         0.0839 
     56 C          19.0185  -29.8300  -42.0098 C.2       9 UNK         0.5513 
     57 N          18.5474  -29.7567  -43.2455 N.am      9 UNK        -0.7519 
     58 O          19.5490  -28.8415  -41.5093 O.2       9 UNK        -0.4960 
     59 C59        18.8457  -32.4494  -42.0680 C.3       10 UNK        -0.0876 
     60 S60        17.2259  -32.8748  -42.7912 S.3       10 UNK        -0.2414 
     61 C61        17.6860  -33.3422  -44.4900 C.3       10 UNK         0.0169 
     62 H62        14.2090  -29.7395  -40.7041 H         1 UNK         0.0903 
     63 H63        15.5920  -30.3107  -41.6334 H         1 UNK         0.0903 
     64 H64        15.8471  -29.3916  -40.1440 H         1 UNK         0.0903 
     65 H65        16.3236  -28.9896  -43.2988 H         1 UNK         0.3096 
     66 H66        14.9739  -26.4583  -43.8105 H         1 UNK         0.1121 
     67 H67        17.0561  -27.8771  -45.5198 H         1 UNK         0.0849 
     68 H68        16.0004  -26.5916  -46.0362 H         1 UNK         0.0849 
     69 H69        14.9224  -30.3238  -47.6096 H         1 UNK         0.0865 
     70 H70        15.8855  -28.9254  -48.0087 H         1 UNK         0.0865 
     71 H71        15.7365  -31.8428  -45.6366 H         1 UNK         0.1346 
     72 H72        20.0066  -32.1141  -45.2813 H         1 UNK         0.1412 
     73 H73        18.2400  -28.9652  -47.5905 H         1 UNK         0.1426 
     74 H74        20.8111  -29.9066  -47.8325 H         1 UNK         0.0716 
     75 H75        21.4359  -30.4910  -46.3094 H         1 UNK         0.0716 
     76 H76        22.7509  -28.6559  -44.9487 H         1 UNK         0.0695 
     77 H77        21.3429  -29.1343  -44.0289 H         1 UNK         0.0695 
     78 H78        21.9606  -26.1912  -44.6064 H         1 UNK         0.0983 
     79 H79        20.1750  -27.5355  -42.6456 H         1 UNK         0.3095 
     80 H80        19.1982  -26.0154  -40.9675 H         1 UNK         0.0454 
     81 H81        18.1849  -23.4604  -42.3217 H         1 UNK         0.0851 
     82 H82        19.2785  -23.5573  -40.9539 H         1 UNK         0.0851 
     83 H83        17.6160  -24.0944  -40.7782 H         1 UNK         0.0851 
     84 H84        17.5486  -27.1226  -41.9273 H         1 UNK         0.2976 
     85 H85        22.9879  -24.9110  -43.0146 H         1 UNK         0.3116 
     86 H86        24.1880  -25.7954  -40.6581 H         1 UNK         0.0646 
     87 H87        24.9384  -23.4106  -42.4354 H         1 UNK         0.0847 
     88 H88        25.3929  -23.6039  -40.7487 H         1 UNK         0.0847 
     89 H89        23.7018  -23.4174  -41.1763 H         1 UNK         0.0847 
     90 H90        25.3649  -26.3585  -43.8460 H         1 UNK         0.3040 
     91 H91        28.1628  -26.7875  -43.1795 H         1 UNK         0.1015 
     92 H92        26.4798  -27.7066  -45.5778 H         1 UNK         0.0786 
     93 H93        28.2318  -27.7935  -45.4633 H         1 UNK         0.0786 
     94 H94        27.4397  -26.2277  -45.4980 H         1 UNK         0.0786 
     95 H95        25.2494  -28.6135  -42.6559 H         1 UNK         0.3172 
     96 H96        26.7230  -31.1844  -42.2830 H         1 UNK         0.0595 
     97 H97        24.4515  -32.1975  -42.3754 H         1 UNK         0.0839 
     98 H98        24.7390  -31.2624  -43.8320 H         1 UNK         0.0839 
     99 H99        23.7153  -30.6138  -42.5543 H         1 UNK         0.0839 
    100 H100       25.9286  -32.4175  -40.3678 H         1 UNK         0.2998 
    101 H101       26.1466  -30.8613  -37.9543 H         1 UNK         0.0822 
    102 H102       25.9785  -33.0952  -36.8534 H         1 UNK         0.0787 
    103 H103       25.5275  -33.8362  -38.3822 H         1 UNK         0.0787 
    104 H104       27.1332  -33.1335  -38.1747 H         1 UNK         0.0787 
    105 H105       23.3910  -31.9149  -39.8335 H         1 UNK         0.3055 
    106 H106       21.4927  -30.6300  -38.1382 H         1 UNK         0.1106 
    107 H107       20.1062  -32.6896  -37.6663 H         1 UNK         0.0828 
    108 H108       21.3590  -33.7063  -38.3645 H         1 UNK         0.0828 
    109 H109       21.6621  -32.8172  -36.8745 H         1 UNK         0.0828 
    110 H110       19.2375  -31.0630  -39.1400 H         1 UNK         0.2931 
    111 H111       17.8190  -31.0580  -40.7741 H         1 UNK         0.0412 
    112 H112       18.1583  -30.5783  -43.6880 H         1 UNK         0.3472 
    113 H113       18.7175  -28.9331  -43.7978 H         1 UNK         0.3472 
    114 H114       19.6173  -32.3893  -42.8371 H         1 UNK         0.0970 
    115 H115       19.1265  -33.3033  -41.4495 H         1 UNK         0.0970 
    116 H116       16.9015  -33.9793  -44.9012 H         1 UNK         0.0612 
    117 H117       18.5936  -33.9478  -44.4776 H         1 UNK         0.0612 
@<TRIPOS>BOND
     1    1    2 1    
     2    1   62 1    
     3    1   63 1    
     4    1   64 1    
     5    2    3 2    
     6    2    4 am   BACKBONE|DICT|INTERRES
     7    4    5 1    
     8    4   65 1    
     9    5    6 1    
    10    5   25 1    
    11    5   66 1    
    12    6    7 1    
    13    6   67 1    
    14    6   68 1    
    15    7    8 1    
    16    8    9 1    
    17    8   69 1    
    18    8   70 1    
    19    9   10 ar   
    20    9   14 ar   
    21   10   11 ar   
    22   10   71 1    
    23   11   12 ar   
    24   11   61 1    
    25   12   13 ar   
    26   12   72 1    
    27   13   14 ar   
    28   13   15 1    
    29   14   73 1    
    30   15   16 1    
    31   15   74 1    
    32   15   75 1    
    33   16   17 1    
    34   17   18 1    
    35   17   76 1    
    36   17   77 1    
    37   18   19 1    
    38   18   27 1    
    39   18   78 1    
    40   19   20 am   BACKBONE|DICT|INTERRES
    41   19   79 1    
    42   20   21 2    
    43   20   22 1    
    44   22   23 1    
    45   22   24 1    
    46   22   80 1    
    47   23   81 1    
    48   23   82 1    
    49   23   83 1    
    50   24   25 am   BACKBONE|DICT|INTERRES
    51   24   84 1    
    52   25   26 2    
    53   27   28 2    
    54   27   29 am   BACKBONE|DICT|INTERRES
    55   29   30 1    
    56   29   85 1    
    57   30   31 1    
    58   30   32 1    
    59   30   86 1    
    60   31   87 1    
    61   31   88 1    
    62   31   89 1    
    63   32   33 2    
    64   32   34 am   BACKBONE|DICT|INTERRES
    65   34   35 1    
    66   34   90 1    
    67   35   36 1    
    68   35   37 1    
    69   35   91 1    
    70   36   92 1    
    71   36   93 1    
    72   36   94 1    
    73   37   38 2    
    74   37   39 am   BACKBONE|DICT|INTERRES
    75   39   40 1    
    76   39   95 1    
    77   40   41 1    
    78   40   42 1    
    79   40   96 1    
    80   41   97 1    
    81   41   98 1    
    82   41   99 1    
    83   42   43 2    
    84   42   44 am   BACKBONE|DICT|INTERRES
    85   44   45 1    
    86   44  100 1    
    87   45   46 1    
    88   45   47 1    
    89   45  101 1    
    90   46  102 1    
    91   46  103 1    
    92   46  104 1    
    93   47   48 2    
    94   47   49 am   BACKBONE|DICT|INTERRES
    95   49   50 1    
    96   49  105 1    
    97   50   51 1    
    98   50   52 1    
    99   50  106 1    
   100   51  107 1    
   101   51  108 1    
   102   51  109 1    
   103   52   53 2    
   104   52   54 am   BACKBONE|DICT|INTERRES
   105   54   55 1    
   106   54  110 1    
   107   55   56 1    
   108   55   59 1    
   109   55  111 1    
   110   56   57 am   BACKBONE|DICT|INTERRES
   111   56   58 2    
   112   57  112 1    
   113   57  113 1    
   114   59   60 1    
   115   59  114 1    
   116   59  115 1    
   117   60   61 1    
   118   61  116 1    
   119   61  117 1    
@<TRIPOS>SUBSTRUCTURE
     1 UNK         1 GROUP             0       ****    0 ROOT    
