@<TRIPOS>MOLECULE
3R8
117   119    1
SMALL
USER_CHARGES


@<TRIPOS>ATOM
      1 CA         14.7997  -23.4587  -44.7627 C.3       0 UNK        -0.2013 
      2 C          15.6833  -24.6958  -44.7180 C.2       0 UNK         0.4866 
      3 O          16.8956  -24.5780  -44.5309 O.2       0 UNK        -0.5176 
      4 N          15.0898  -25.8860  -44.8792 N.am      1 UNK        -0.4884 
      5 CA         15.7749  -27.1842  -44.8645 C.3       1 UNK         0.0853 
      6 C6         14.9957  -28.2604  -45.6703 C.3       10 UNK        -0.0849 
      7 S7         15.4369  -28.1784  -47.4386 S.3       10 UNK        -0.2776 
      8 C8         16.7300  -29.4656  -47.5486 C.3       10 UNK         0.0316 
      9 C9         17.8792  -29.2193  -46.5765 C.ar      10 UNK        -0.0863 
     10 C10        17.9601  -29.9447  -45.3837 C.ar      10 UNK        -0.1009 
     11 C11        18.9913  -29.7014  -44.4740 C.ar      10 UNK        -0.0712 
     12 C12        19.9555  -28.7356  -44.7700 C.ar      10 UNK        -0.0894 
     13 C13        19.8981  -28.0040  -45.9637 C.ar      10 UNK        -0.0745 
     14 C14        18.8535  -28.2568  -46.8604 C.ar      10 UNK        -0.0972 
     15 C15        20.9528  -26.9653  -46.3538 C.3       10 UNK         0.0209 
     16 S16        22.1827  -26.5414  -45.0684 S.3       10 UNK        -0.2568 
     17 C17        21.3551  -25.2041  -44.1317 C.3       10 UNK        -0.0983 
     18 CA         20.9739  -25.5049  -42.6547 C.3       3 UNK         0.0876 
     19 N          19.7359  -26.2787  -42.5438 N.am      3 UNK        -0.4424 
     20 C          18.9898  -26.3468  -41.4298 C.2       2 UNK         0.4918 
     21 O          19.2824  -25.7705  -40.3806 O.2       2 UNK        -0.4875 
     22 CA         17.6743  -27.1385  -41.5224 C.3       2 UNK         0.0481 
     23 CB         16.6997  -26.8278  -40.3672 C.3       2 UNK        -0.1831 
     24 N          17.0444  -26.8703  -42.8118 N.am      2 UNK        -0.4498 
     25 C          16.1319  -27.6254  -43.4289 C.2       1 UNK         0.5027 
     26 O          15.6010  -28.6150  -42.9213 O.2       1 UNK        -0.4969 
     27 C          22.1162  -26.1420  -41.8339 C.2       3 UNK         0.5005 
     28 O          22.2358  -27.3702  -41.7907 O.2       3 UNK        -0.5279 
     29 N          22.9524  -25.2912  -41.2212 N.am      4 UNK        -0.4463 
     30 CA         24.0822  -25.6917  -40.3747 C.3       4 UNK         0.0283 
     31 CB         24.6622  -24.4516  -39.6763 C.3       4 UNK        -0.1875 
     32 C          25.1896  -26.4474  -41.1285 C.2       4 UNK         0.4949 
     33 O          25.8932  -27.2492  -40.5153 O.2       4 UNK        -0.5039 
     34 N          25.3058  -26.2115  -42.4435 N.am      5 UNK        -0.4663 
     35 CA         26.2569  -26.8796  -43.3376 C.3       5 UNK         0.0242 
     36 CB         26.2207  -26.1975  -44.7146 C.3       5 UNK        -0.1982 
     37 C          26.0206  -28.3950  -43.4782 C.2       5 UNK         0.5017 
     38 O          26.9681  -29.1208  -43.7806 O.2       5 UNK        -0.5012 
     39 N          24.7817  -28.8478  -43.2380 N.am      6 UNK        -0.4439 
     40 CA         24.4076  -30.2631  -43.2166 C.3       6 UNK         0.0297 
     41 CB         22.9328  -30.3905  -43.6221 C.3       6 UNK        -0.2006 
     42 C          24.6499  -30.9316  -41.8496 C.2       6 UNK         0.4892 
     43 O          24.4796  -32.1483  -41.7514 O.2       6 UNK        -0.5089 
     44 N          25.0223  -30.1480  -40.8233 N.am      7 UNK        -0.4243 
     45 CA         25.2279  -30.5504  -39.4284 C.3       7 UNK         0.0196 
     46 CB         26.4904  -31.4332  -39.2944 C.3       7 UNK        -0.2007 
     47 C          23.9494  -31.1729  -38.8361 C.2       7 UNK         0.5020 
     48 O          22.9658  -30.4566  -38.6481 O.2       7 UNK        -0.5147 
     49 N          23.9712  -32.4856  -38.5718 N.am      8 UNK        -0.4734 
     50 CA         22.8201  -33.2621  -38.1004 C.3       8 UNK         0.0238 
     51 CB         23.3234  -34.5905  -37.5113 C.3       8 UNK        -0.1912 
     52 C          21.7598  -33.5247  -39.1887 C.2       8 UNK         0.5038 
     53 O          20.6338  -33.8851  -38.8420 O.2       8 UNK        -0.5046 
     54 N          22.1258  -33.3458  -40.4661 N.am      9 UNK        -0.4200 
     55 CA         21.3010  -33.6117  -41.6528 C.3       9 UNK         0.0839 
     56 C          20.9908  -35.1248  -41.8690 C.2       9 UNK         0.5513 
     57 N          20.0595  -35.4567  -42.7526 N.am      9 UNK        -0.7519 
     58 O          21.6147  -36.0067  -41.2809 O.2       9 UNK        -0.4960 
     59 C59        20.0488  -32.6841  -41.7232 C.3       10 UNK        -0.0876 
     60 S60        19.6710  -32.1650  -43.4319 S.3       10 UNK        -0.2414 
     61 C61        19.0611  -30.4730  -43.1657 C.3       10 UNK         0.0169 
     62 H62        15.1265  -22.7943  -45.5621 H         1 UNK         0.0903 
     63 H63        13.7536  -23.7099  -44.9368 H         1 UNK         0.0903 
     64 H64        14.8665  -22.9163  -43.8200 H         1 UNK         0.0903 
     65 H65        14.0884  -25.9235  -45.0090 H         1 UNK         0.3096 
     66 H66        16.7422  -27.0437  -45.3512 H         1 UNK         0.1121 
     67 H67        15.2007  -29.2743  -45.3239 H         1 UNK         0.0849 
     68 H68        13.9180  -28.1313  -45.5588 H         1 UNK         0.0849 
     69 H69        16.2795  -30.4432  -47.3694 H         1 UNK         0.0865 
     70 H70        17.1158  -29.4945  -48.5687 H         1 UNK         0.0865 
     71 H71        17.2144  -30.6932  -45.1522 H         1 UNK         0.1346 
     72 H72        20.7541  -28.5690  -44.0626 H         1 UNK         0.1412 
     73 H73        18.7944  -27.6993  -47.7857 H         1 UNK         0.1426 
     74 H74        20.4631  -26.0539  -46.6997 H         1 UNK         0.0716 
     75 H75        21.5008  -27.3573  -47.2116 H         1 UNK         0.0716 
     76 H76        20.4723  -24.8665  -44.6770 H         1 UNK         0.0695 
     77 H77        22.0370  -24.3522  -44.1506 H         1 UNK         0.0695 
     78 H78        20.7574  -24.5372  -42.1953 H         1 UNK         0.0983 
     79 H79        19.4663  -26.8120  -43.3570 H         1 UNK         0.3095 
     80 H80        17.9401  -28.1961  -41.4775 H         1 UNK         0.0454 
     81 H81        16.4031  -25.7785  -40.3658 H         1 UNK         0.0851 
     82 H82        17.1564  -27.0413  -39.4000 H         1 UNK         0.0851 
     83 H83        15.7946  -27.4313  -40.4310 H         1 UNK         0.0851 
     84 H84        17.3462  -26.0248  -43.2917 H         1 UNK         0.2976 
     85 H85        22.7911  -24.2979  -41.3125 H         1 UNK         0.3116 
     86 H86        23.6964  -26.3662  -39.6070 H         1 UNK         0.0646 
     87 H87        25.0461  -23.7248  -40.3933 H         1 UNK         0.0847 
     88 H88        25.4883  -24.7257  -39.0182 H         1 UNK         0.0847 
     89 H89        23.9132  -23.9545  -39.0597 H         1 UNK         0.0847 
     90 H90        24.6770  -25.5433  -42.8651 H         1 UNK         0.3040 
     91 H91        27.2560  -26.7488  -42.9157 H         1 UNK         0.1015 
     92 H92        26.4669  -25.1381  -44.6410 H         1 UNK         0.0786 
     93 H93        25.2398  -26.2839  -45.1831 H         1 UNK         0.0786 
     94 H94        26.9455  -26.6501  -45.3930 H         1 UNK         0.0786 
     95 H95        24.0603  -28.1841  -42.9794 H         1 UNK         0.3172 
     96 H96        25.0046  -30.8025  -43.9548 H         1 UNK         0.0595 
     97 H97        22.2717  -29.9541  -42.8726 H         1 UNK         0.0839 
     98 H98        22.6505  -31.4368  -43.7364 H         1 UNK         0.0839 
     99 H99        22.7384  -29.9016  -44.5768 H         1 UNK         0.0839 
    100 H100       25.1383  -29.1565  -40.9987 H         1 UNK         0.2998 
    101 H101       25.4077  -29.6323  -38.8666 H         1 UNK         0.0822 
    102 H102       27.3744  -30.8971  -39.6405 H         1 UNK         0.0787 
    103 H103       26.6720  -31.7056  -38.2538 H         1 UNK         0.0787 
    104 H104       26.4219  -32.3543  -39.8739 H         1 UNK         0.0787 
    105 H105       24.8167  -32.9990  -38.7768 H         1 UNK         0.3055 
    106 H106       22.3283  -32.6985  -37.3042 H         1 UNK         0.1106 
    107 H107       24.0216  -34.4234  -36.6909 H         1 UNK         0.0828 
    108 H108       22.4956  -35.1798  -37.1141 H         1 UNK         0.0828 
    109 H109       23.8249  -35.2014  -38.2630 H         1 UNK         0.0828 
    110 H110       23.0744  -33.0441  -40.6654 H         1 UNK         0.2931 
    111 H111       21.9660  -33.3506  -42.4760 H         1 UNK         0.0412 
    112 H112       19.5646  -34.7393  -43.2620 H         1 UNK         0.3472 
    113 H113       19.8569  -36.4300  -42.9197 H         1 UNK         0.3472 
    114 H114       19.1723  -33.1574  -41.2766 H         1 UNK         0.0970 
    115 H115       20.2251  -31.7847  -41.1314 H         1 UNK         0.0970 
    116 H116       19.7112  -29.9530  -42.4604 H         1 UNK         0.0612 
    117 H117       18.0723  -30.5132  -42.7061 H         1 UNK         0.0612 
@<TRIPOS>BOND
     1    1    2 1    
     2    1   62 1    
     3    1   63 1    
     4    1   64 1    
     5    2    3 2    
     6    2    4 am   BACKBONE|DICT|INTERRES
     7    4    5 1    
     8    4   65 1    
     9    5    6 1    
    10    5   25 1    
    11    5   66 1    
    12    6    7 1    
    13    6   67 1    
    14    6   68 1    
    15    7    8 1    
    16    8    9 1    
    17    8   69 1    
    18    8   70 1    
    19    9   10 ar   
    20    9   14 ar   
    21   10   11 ar   
    22   10   71 1    
    23   11   12 ar   
    24   11   61 1    
    25   12   13 ar   
    26   12   72 1    
    27   13   14 ar   
    28   13   15 1    
    29   14   73 1    
    30   15   16 1    
    31   15   74 1    
    32   15   75 1    
    33   16   17 1    
    34   17   18 1    
    35   17   76 1    
    36   17   77 1    
    37   18   19 1    
    38   18   27 1    
    39   18   78 1    
    40   19   20 am   BACKBONE|DICT|INTERRES
    41   19   79 1    
    42   20   21 2    
    43   20   22 1    
    44   22   23 1    
    45   22   24 1    
    46   22   80 1    
    47   23   81 1    
    48   23   82 1    
    49   23   83 1    
    50   24   25 am   BACKBONE|DICT|INTERRES
    51   24   84 1    
    52   25   26 2    
    53   27   28 2    
    54   27   29 am   BACKBONE|DICT|INTERRES
    55   29   30 1    
    56   29   85 1    
    57   30   31 1    
    58   30   32 1    
    59   30   86 1    
    60   31   87 1    
    61   31   88 1    
    62   31   89 1    
    63   32   33 2    
    64   32   34 am   BACKBONE|DICT|INTERRES
    65   34   35 1    
    66   34   90 1    
    67   35   36 1    
    68   35   37 1    
    69   35   91 1    
    70   36   92 1    
    71   36   93 1    
    72   36   94 1    
    73   37   38 2    
    74   37   39 am   BACKBONE|DICT|INTERRES
    75   39   40 1    
    76   39   95 1    
    77   40   41 1    
    78   40   42 1    
    79   40   96 1    
    80   41   97 1    
    81   41   98 1    
    82   41   99 1    
    83   42   43 2    
    84   42   44 am   BACKBONE|DICT|INTERRES
    85   44   45 1    
    86   44  100 1    
    87   45   46 1    
    88   45   47 1    
    89   45  101 1    
    90   46  102 1    
    91   46  103 1    
    92   46  104 1    
    93   47   48 2    
    94   47   49 am   BACKBONE|DICT|INTERRES
    95   49   50 1    
    96   49  105 1    
    97   50   51 1    
    98   50   52 1    
    99   50  106 1    
   100   51  107 1    
   101   51  108 1    
   102   51  109 1    
   103   52   53 2    
   104   52   54 am   BACKBONE|DICT|INTERRES
   105   54   55 1    
   106   54  110 1    
   107   55   56 1    
   108   55   59 1    
   109   55  111 1    
   110   56   57 am   BACKBONE|DICT|INTERRES
   111   56   58 2    
   112   57  112 1    
   113   57  113 1    
   114   59   60 1    
   115   59  114 1    
   116   59  115 1    
   117   60   61 1    
   118   61  116 1    
   119   61  117 1    
@<TRIPOS>SUBSTRUCTURE
     1 UNK         1 GROUP             0       ****    0 ROOT    
