@<TRIPOS>MOLECULE
3R8
117   119    1
SMALL
USER_CHARGES


@<TRIPOS>ATOM
      1 CA         16.7999  -24.8742  -48.3213 C.3       0 UNK        -0.2013 
      2 C          18.1748  -25.4917  -48.1152 C.2       0 UNK         0.4866 
      3 O          19.1513  -25.0255  -48.7020 O.2       0 UNK        -0.5176 
      4 N          18.2595  -26.5366  -47.2822 N.am      1 UNK        -0.4884 
      5 CA         19.4993  -27.2664  -46.9808 C.3       1 UNK         0.0853 
      6 C6         19.2105  -28.6691  -46.3938 C.3       10 UNK        -0.0849 
      7 S7         18.2180  -29.7562  -47.4816 S.3       10 UNK        -0.2776 
      8 C8         16.5477  -29.7582  -46.7272 C.3       10 UNK         0.0316 
      9 C9         16.5492  -29.8416  -45.2032 C.ar      10 UNK        -0.0863 
     10 C10        17.3281  -30.7925  -44.5356 C.ar      10 UNK        -0.1009 
     11 C11        17.4117  -30.7885  -43.1404 C.ar      10 UNK        -0.0712 
     12 C12        16.6641  -29.8652  -42.4047 C.ar      10 UNK        -0.0894 
     13 C13        15.8627  -28.9273  -43.0602 C.ar      10 UNK        -0.0745 
     14 C14        15.8076  -28.9212  -44.4570 C.ar      10 UNK        -0.0972 
     15 C15        15.0778  -27.8944  -42.2702 C.3       10 UNK         0.0209 
     16 S16        15.9572  -26.3023  -42.2278 S.3       10 UNK        -0.2568 
     17 C17        17.1451  -26.5434  -40.8608 C.3       10 UNK        -0.0983 
     18 CA         18.6008  -26.8466  -41.3098 C.3       3 UNK         0.0876 
     19 N          19.0552  -25.9309  -42.3629 N.am      3 UNK        -0.4424 
     20 C          20.2827  -25.8486  -42.8961 C.2       2 UNK         0.4918 
     21 O          21.2469  -26.5296  -42.5404 O.2       2 UNK        -0.4875 
     22 CA         20.4088  -24.8720  -44.0782 C.3       2 UNK         0.0481 
     23 CB         21.8379  -24.3188  -44.2694 C.3       2 UNK        -0.1831 
     24 N          19.8777  -25.5117  -45.2884 N.am      2 UNK        -0.4498 
     25 C          20.4253  -26.5097  -46.0029 C.2       1 UNK         0.5027 
     26 O          21.5928  -26.8832  -45.8942 O.2       1 UNK        -0.4969 
     27 C          19.5328  -26.8156  -40.0810 C.2       3 UNK         0.5005 
     28 O          19.7776  -25.7321  -39.5442 O.2       3 UNK        -0.5279 
     29 N          20.0553  -27.9840  -39.6790 N.am      4 UNK        -0.4463 
     30 CA         20.9996  -28.2328  -38.5744 C.3       4 UNK         0.0283 
     31 CB         20.4079  -27.8124  -37.2151 C.3       4 UNK        -0.1875 
     32 C          22.4098  -27.6383  -38.7692 C.2       4 UNK         0.4949 
     33 O          23.3834  -28.2697  -38.3595 O.2       4 UNK        -0.5039 
     34 N          22.5182  -26.4731  -39.4214 N.am      5 UNK        -0.4663 
     35 CA         23.7728  -25.8234  -39.8211 C.3       5 UNK         0.0242 
     36 CB         23.4597  -24.4448  -40.4215 C.3       5 UNK        -0.1982 
     37 C          24.6044  -26.6700  -40.8024 C.2       5 UNK         0.5017 
     38 O          25.8324  -26.5907  -40.7832 O.2       5 UNK        -0.5012 
     39 N          23.9204  -27.5085  -41.5924 N.am      6 UNK        -0.4439 
     40 CA         24.4852  -28.5520  -42.4505 C.3       6 UNK         0.0297 
     41 CB         23.4148  -28.9663  -43.4729 C.3       6 UNK        -0.2006 
     42 C          25.0535  -29.7778  -41.6955 C.2       6 UNK         0.4892 
     43 O          25.4539  -30.7388  -42.3553 O.2       6 UNK        -0.5089 
     44 N          25.0890  -29.7398  -40.3526 N.am      7 UNK        -0.4243 
     45 CA         25.6770  -30.7183  -39.4302 C.3       7 UNK         0.0196 
     46 CB         27.2116  -30.7882  -39.5985 C.3       7 UNK        -0.2007 
     47 C          24.9849  -32.0866  -39.5199 C.2       7 UNK         0.5020 
     48 O          23.9651  -32.2883  -38.8603 O.2       7 UNK        -0.5147 
     49 N          25.5301  -32.9909  -40.3461 N.am      8 UNK        -0.4734 
     50 CA         24.9328  -34.2887  -40.6810 C.3       8 UNK         0.0238 
     51 CB         25.9353  -35.1145  -41.5028 C.3       8 UNK        -0.1912 
     52 C          23.5942  -34.1564  -41.4314 C.2       8 UNK         0.5038 
     53 O          22.7411  -35.0344  -41.2943 O.2       8 UNK        -0.5046 
     54 N          23.4269  -33.0441  -42.1613 N.am      9 UNK        -0.4200 
     55 CA         22.1958  -32.6272  -42.8422 C.3       9 UNK         0.0839 
     56 C          21.8041  -33.5170  -44.0593 C.2       9 UNK         0.5513 
     57 N          20.6776  -33.2316  -44.6963 N.am      9 UNK        -0.7519 
     58 O          22.5226  -34.4287  -44.4647 O.2       9 UNK        -0.4960 
     59 C59        21.0382  -32.3813  -41.8249 C.3       10 UNK        -0.0876 
     60 S60        19.9960  -30.9538  -42.2682 S.3       10 UNK        -0.2414 
     61 C61        18.3628  -31.7379  -42.4365 C.3       10 UNK         0.0169 
     62 H62        16.8115  -23.8251  -48.0270 H         1 UNK         0.0903 
     63 H63        16.5182  -24.9299  -49.3724 H         1 UNK         0.0903 
     64 H64        16.0318  -25.3816  -47.7378 H         1 UNK         0.0903 
     65 H65        17.4248  -26.8923  -46.8392 H         1 UNK         0.3096 
     66 H66        20.0569  -27.3947  -47.9116 H         1 UNK         0.1121 
     67 H67        20.1490  -29.1977  -46.2125 H         1 UNK         0.0849 
     68 H68        18.7495  -28.5690  -45.4115 H         1 UNK         0.0849 
     69 H69        16.0231  -28.8619  -47.0612 H         1 UNK         0.0865 
     70 H70        15.9844  -30.6033  -47.1247 H         1 UNK         0.0865 
     71 H71        17.9168  -31.4967  -45.1074 H         1 UNK         0.1346 
     72 H72        16.7309  -29.8574  -41.3254 H         1 UNK         0.1412 
     73 H73        15.2044  -28.1773  -44.9598 H         1 UNK         0.1426 
     74 H74        14.8734  -28.2441  -41.2572 H         1 UNK         0.0716 
     75 H75        14.1043  -27.7438  -42.7393 H         1 UNK         0.0716 
     76 H76        16.7824  -27.3330  -40.2003 H         1 UNK         0.0695 
     77 H77        17.1156  -25.6268  -40.2677 H         1 UNK         0.0695 
     78 H78        18.6270  -27.8476  -41.7444 H         1 UNK         0.0983 
     79 H79        18.3312  -25.3325  -42.7321 H         1 UNK         0.3095 
     80 H80        19.7607  -24.0179  -43.8751 H         1 UNK         0.0454 
     81 H81        21.9130  -23.7182  -45.1755 H         1 UNK         0.0851 
     82 H82        22.5880  -25.1081  -44.3273 H         1 UNK         0.0851 
     83 H83        22.1147  -23.6772  -43.4333 H         1 UNK         0.0851 
     84 H84        18.9142  -25.2950  -45.5007 H         1 UNK         0.2976 
     85 H85        19.8259  -28.8064  -40.2215 H         1 UNK         0.3116 
     86 H86        21.1298  -29.3161  -38.5484 H         1 UNK         0.0646 
     87 H87        20.2732  -26.7329  -37.1421 H         1 UNK         0.0847 
     88 H88        21.0667  -28.1093  -36.3979 H         1 UNK         0.0847 
     89 H89        19.4415  -28.2845  -37.0390 H         1 UNK         0.0847 
     90 H90        21.6506  -26.0104  -39.6808 H         1 UNK         0.3040 
     91 H91        24.3755  -25.6818  -38.9214 H         1 UNK         0.1015 
     92 H92        22.8259  -24.5285  -41.3039 H         1 UNK         0.0786 
     93 H93        24.3740  -23.9307  -40.7214 H         1 UNK         0.0786 
     94 H94        22.9488  -23.8052  -39.7015 H         1 UNK         0.0786 
     95 H95        22.9092  -27.4190  -41.6000 H         1 UNK         0.3172 
     96 H96        25.3207  -28.1155  -43.0011 H         1 UNK         0.0595 
     97 H97        22.5177  -29.3444  -42.9830 H         1 UNK         0.0839 
     98 H98        23.7809  -29.7401  -44.1486 H         1 UNK         0.0839 
     99 H99        23.1179  -28.1190  -44.0905 H         1 UNK         0.0839 
    100 H100       24.6500  -28.9498  -39.8933 H         1 UNK         0.2998 
    101 H101       25.4787  -30.3426  -38.4249 H         1 UNK         0.0822 
    102 H102       27.6698  -29.8246  -39.3752 H         1 UNK         0.0787 
    103 H103       27.6476  -31.5166  -38.9133 H         1 UNK         0.0787 
    104 H104       27.5129  -31.0652  -40.6090 H         1 UNK         0.0787 
    105 H105       26.3456  -32.7127  -40.8742 H         1 UNK         0.3055 
    106 H106       24.7309  -34.8171  -39.7465 H         1 UNK         0.1106 
    107 H107       25.5242  -36.0953  -41.7465 H         1 UNK         0.0828 
    108 H108       26.1872  -34.6244  -42.4442 H         1 UNK         0.0828 
    109 H109       26.8606  -35.2811  -40.9509 H         1 UNK         0.0828 
    110 H110       24.2045  -32.3962  -42.2279 H         1 UNK         0.2931 
    111 H111       22.4734  -31.6714  -43.2830 H         1 UNK         0.0412 
    112 H112       20.4107  -33.7795  -45.4992 H         1 UNK         0.3472 
    113 H113       20.1076  -32.4578  -44.3930 H         1 UNK         0.3472 
    114 H114       21.4451  -32.1551  -40.8375 H         1 UNK         0.0970 
    115 H115       20.4363  -33.2815  -41.6871 H         1 UNK         0.0970 
    116 H116       18.4440  -32.6693  -42.9983 H         1 UNK         0.0612 
    117 H117       17.9820  -32.0016  -41.4486 H         1 UNK         0.0612 
@<TRIPOS>BOND
     1    1    2 1    
     2    1   62 1    
     3    1   63 1    
     4    1   64 1    
     5    2    3 2    
     6    2    4 am   BACKBONE|DICT|INTERRES
     7    4    5 1    
     8    4   65 1    
     9    5    6 1    
    10    5   25 1    
    11    5   66 1    
    12    6    7 1    
    13    6   67 1    
    14    6   68 1    
    15    7    8 1    
    16    8    9 1    
    17    8   69 1    
    18    8   70 1    
    19    9   10 ar   
    20    9   14 ar   
    21   10   11 ar   
    22   10   71 1    
    23   11   12 ar   
    24   11   61 1    
    25   12   13 ar   
    26   12   72 1    
    27   13   14 ar   
    28   13   15 1    
    29   14   73 1    
    30   15   16 1    
    31   15   74 1    
    32   15   75 1    
    33   16   17 1    
    34   17   18 1    
    35   17   76 1    
    36   17   77 1    
    37   18   19 1    
    38   18   27 1    
    39   18   78 1    
    40   19   20 am   BACKBONE|DICT|INTERRES
    41   19   79 1    
    42   20   21 2    
    43   20   22 1    
    44   22   23 1    
    45   22   24 1    
    46   22   80 1    
    47   23   81 1    
    48   23   82 1    
    49   23   83 1    
    50   24   25 am   BACKBONE|DICT|INTERRES
    51   24   84 1    
    52   25   26 2    
    53   27   28 2    
    54   27   29 am   BACKBONE|DICT|INTERRES
    55   29   30 1    
    56   29   85 1    
    57   30   31 1    
    58   30   32 1    
    59   30   86 1    
    60   31   87 1    
    61   31   88 1    
    62   31   89 1    
    63   32   33 2    
    64   32   34 am   BACKBONE|DICT|INTERRES
    65   34   35 1    
    66   34   90 1    
    67   35   36 1    
    68   35   37 1    
    69   35   91 1    
    70   36   92 1    
    71   36   93 1    
    72   36   94 1    
    73   37   38 2    
    74   37   39 am   BACKBONE|DICT|INTERRES
    75   39   40 1    
    76   39   95 1    
    77   40   41 1    
    78   40   42 1    
    79   40   96 1    
    80   41   97 1    
    81   41   98 1    
    82   41   99 1    
    83   42   43 2    
    84   42   44 am   BACKBONE|DICT|INTERRES
    85   44   45 1    
    86   44  100 1    
    87   45   46 1    
    88   45   47 1    
    89   45  101 1    
    90   46  102 1    
    91   46  103 1    
    92   46  104 1    
    93   47   48 2    
    94   47   49 am   BACKBONE|DICT|INTERRES
    95   49   50 1    
    96   49  105 1    
    97   50   51 1    
    98   50   52 1    
    99   50  106 1    
   100   51  107 1    
   101   51  108 1    
   102   51  109 1    
   103   52   53 2    
   104   52   54 am   BACKBONE|DICT|INTERRES
   105   54   55 1    
   106   54  110 1    
   107   55   56 1    
   108   55   59 1    
   109   55  111 1    
   110   56   57 am   BACKBONE|DICT|INTERRES
   111   56   58 2    
   112   57  112 1    
   113   57  113 1    
   114   59   60 1    
   115   59  114 1    
   116   59  115 1    
   117   60   61 1    
   118   61  116 1    
   119   61  117 1    
@<TRIPOS>SUBSTRUCTURE
     1 UNK         1 GROUP             0       ****    0 ROOT    
