@<TRIPOS>MOLECULE
3R8
117   119    1
SMALL
USER_CHARGES


@<TRIPOS>ATOM
      1 CA         14.6681  -23.6531  -42.3018 C.3       0 UNK        -0.2013 
      2 C          15.7086  -23.7770  -43.4045 C.2       0 UNK         0.4866 
      3 O          16.0706  -22.7742  -44.0208 O.2       0 UNK        -0.5176 
      4 N          16.1841  -25.0004  -43.6645 N.am      1 UNK        -0.4884 
      5 CA         17.2236  -25.3018  -44.6535 C.3       1 UNK         0.0853 
      6 C6         17.3422  -26.8203  -44.9127 C.3       10 UNK        -0.0849 
      7 S7         15.8233  -27.5881  -45.5741 S.3       10 UNK        -0.2776 
      8 C8         15.8102  -29.2170  -44.7313 C.3       10 UNK         0.0316 
      9 C9         17.1696  -29.9172  -44.6872 C.ar      10 UNK        -0.0863 
     10 C10        17.5664  -30.5940  -43.5289 C.ar      10 UNK        -0.1009 
     11 C11        18.8374  -31.1715  -43.4407 C.ar      10 UNK        -0.0712 
     12 C12        19.7218  -31.0611  -44.5172 C.ar      10 UNK        -0.0894 
     13 C13        19.3296  -30.4075  -45.6868 C.ar      10 UNK        -0.0745 
     14 C14        18.0448  -29.8682  -45.7769 C.ar      10 UNK        -0.0972 
     15 C15        20.2852  -30.2597  -46.8569 C.3       10 UNK         0.0209 
     16 S16        20.8307  -28.5317  -47.0362 S.3       10 UNK        -0.2568 
     17 C17        22.3159  -28.4606  -45.9737 C.3       10 UNK        -0.0983 
     18 CA         22.2421  -27.4819  -44.7680 C.3       3 UNK         0.0876 
     19 N          21.4981  -26.2520  -45.0553 N.am      3 UNK        -0.4424 
     20 C          21.7322  -25.0604  -44.4881 C.2       2 UNK         0.4918 
     21 O          22.6160  -24.8621  -43.6544 O.2       2 UNK        -0.4875 
     22 CA         20.8093  -23.9015  -44.9093 C.3       2 UNK         0.0481 
     23 CB         21.3630  -23.2029  -46.1611 C.3       2 UNK        -0.1831 
     24 N          19.4265  -24.3290  -45.1546 N.am      2 UNK        -0.4498 
     25 C          18.5975  -24.7696  -44.1973 C.2       1 UNK         0.5027 
     26 O          18.9110  -24.8378  -43.0067 O.2       1 UNK        -0.4969 
     27 C          21.8324  -28.1648  -43.4458 C.2       3 UNK         0.5005 
     28 O          22.5712  -29.0398  -42.9845 O.2       3 UNK        -0.5279 
     29 N          20.7563  -27.7117  -42.7814 N.am      4 UNK        -0.4463 
     30 CA         20.3424  -28.1515  -41.4386 C.3       4 UNK         0.0283 
     31 CB         18.8499  -27.8437  -41.2249 C.3       4 UNK        -0.1875 
     32 C          21.2330  -27.5732  -40.3142 C.2       4 UNK         0.4949 
     33 O          20.7304  -27.1107  -39.2900 O.2       4 UNK        -0.5039 
     34 N          22.5480  -27.6282  -40.5355 N.am      5 UNK        -0.4663 
     35 CA         23.6307  -27.2029  -39.6544 C.3       5 UNK         0.0242 
     36 CB         23.6846  -25.6676  -39.5357 C.3       5 UNK        -0.1982 
     37 C          24.9541  -27.7635  -40.1899 C.2       5 UNK         0.5017 
     38 O          25.7306  -28.3204  -39.4152 O.2       5 UNK        -0.5012 
     39 N          25.1714  -27.6303  -41.5089 N.am      6 UNK        -0.4439 
     40 CA         26.3282  -28.1787  -42.2229 C.3       6 UNK         0.0297 
     41 CB         26.4391  -27.5324  -43.6142 C.3       6 UNK        -0.2006 
     42 C          26.2771  -29.7125  -42.3320 C.2       6 UNK         0.4892 
     43 O          27.2523  -30.3760  -41.9782 O.2       6 UNK        -0.5089 
     44 N          25.1394  -30.2420  -42.8032 N.am      7 UNK        -0.4243 
     45 CA         24.8419  -31.6756  -42.8308 C.3       7 UNK         0.0196 
     46 CB         23.9427  -31.9943  -44.0363 C.3       7 UNK        -0.2007 
     47 C          24.1676  -32.1130  -41.5228 C.2       7 UNK         0.5020 
     48 O          24.4251  -33.2195  -41.0506 O.2       7 UNK        -0.5147 
     49 N          23.3196  -31.2352  -40.9638 N.am      8 UNK        -0.4734 
     50 CA         22.6456  -31.2990  -39.6548 C.3       8 UNK         0.0238 
     51 CB         23.6719  -31.3656  -38.5072 C.3       8 UNK        -0.1912 
     52 C          21.5772  -32.3964  -39.4915 C.2       8 UNK         0.5038 
     53 O          20.6584  -32.2018  -38.6956 O.2       8 UNK        -0.5046 
     54 N          21.6913  -33.4995  -40.2415 N.am      9 UNK        -0.4200 
     55 CA         20.7853  -34.6621  -40.2386 C.3       9 UNK         0.0839 
     56 C          20.8148  -35.4916  -38.9169 C.2       9 UNK         0.5513 
     57 N          21.8472  -35.3770  -38.0894 N.am      9 UNK        -0.7519 
     58 O          19.9083  -36.2760  -38.6477 O.2       9 UNK        -0.4960 
     59 C59        19.3395  -34.3109  -40.7008 C.3       10 UNK        -0.0876 
     60 S60        19.2586  -33.6992  -42.4189 S.3       10 UNK        -0.2414 
     61 C61        19.2656  -31.8966  -42.1762 C.3       10 UNK         0.0169 
     62 H62        13.7577  -23.1988  -42.6946 H         1 UNK         0.0903 
     63 H63        14.4064  -24.6227  -41.8758 H         1 UNK         0.0903 
     64 H64        15.0477  -23.0201  -41.4989 H         1 UNK         0.0903 
     65 H65        15.8550  -25.7880  -43.1257 H         1 UNK         0.3096 
     66 H66        16.9519  -24.8058  -45.5879 H         1 UNK         0.1121 
     67 H67        17.6275  -27.3298  -43.9927 H         1 UNK         0.0849 
     68 H68        18.1404  -27.0219  -45.6291 H         1 UNK         0.0849 
     69 H69        15.4335  -29.0677  -43.7186 H         1 UNK         0.0865 
     70 H70        15.0937  -29.8683  -45.2325 H         1 UNK         0.0865 
     71 H71        16.8922  -30.6570  -42.6856 H         1 UNK         0.1346 
     72 H72        20.7104  -31.4902  -44.4427 H         1 UNK         0.1412 
     73 H73        17.7483  -29.3600  -46.6843 H         1 UNK         0.1426 
     74 H74        19.7733  -30.5607  -47.7720 H         1 UNK         0.0716 
     75 H75        21.1448  -30.9242  -46.7581 H         1 UNK         0.0716 
     76 H76        23.1291  -28.1381  -46.6258 H         1 UNK         0.0695 
     77 H77        22.6009  -29.4654  -45.6565 H         1 UNK         0.0695 
     78 H78        23.2741  -27.1765  -44.5850 H         1 UNK         0.0983 
     79 H79        20.7715  -26.3351  -45.7518 H         1 UNK         0.3095 
     80 H80        20.7982  -23.1746  -44.0943 H         1 UNK         0.0454 
     81 H81        21.3834  -23.8694  -47.0242 H         1 UNK         0.0851 
     82 H82        22.3838  -22.8562  -45.9940 H         1 UNK         0.0851 
     83 H83        20.7668  -22.3292  -46.4248 H         1 UNK         0.0851 
     84 H84        19.1048  -24.2996  -46.1122 H         1 UNK         0.2976 
     85 H85        20.2493  -26.9285  -43.1685 H         1 UNK         0.3116 
     86 H86        20.4543  -29.2357  -41.3910 H         1 UNK         0.0646 
     87 H87        18.2340  -28.3112  -41.9902 H         1 UNK         0.0847 
     88 H88        18.6515  -26.7722  -41.2342 H         1 UNK         0.0847 
     89 H89        18.5055  -28.2283  -40.2642 H         1 UNK         0.0847 
     90 H90        22.8293  -28.0866  -41.3966 H         1 UNK         0.3040 
     91 H91        23.4594  -27.6317  -38.6645 H         1 UNK         0.1015 
     92 H92        24.5363  -25.3526  -38.9314 H         1 UNK         0.0786 
     93 H93        22.7886  -25.2733  -39.0564 H         1 UNK         0.0786 
     94 H94        23.7778  -25.1882  -40.5109 H         1 UNK         0.0786 
     95 H95        24.5152  -27.0900  -42.0528 H         1 UNK         0.3172 
     96 H96        27.2260  -27.9138  -41.6600 H         1 UNK         0.0595 
     97 H97        25.5809  -27.7634  -44.2450 H         1 UNK         0.0839 
     98 H98        27.3277  -27.8902  -44.1362 H         1 UNK         0.0839 
     99 H99        26.5234  -26.4477  -43.5437 H         1 UNK         0.0839 
    100 H100       24.3690  -29.6263  -43.0433 H         1 UNK         0.2998 
    101 H101       25.7692  -32.2425  -42.9392 H         1 UNK         0.0822 
    102 H102       24.4220  -31.7103  -44.9733 H         1 UNK         0.0787 
    103 H103       23.7286  -33.0625  -44.0911 H         1 UNK         0.0787 
    104 H104       22.9877  -31.4736  -43.9786 H         1 UNK         0.0787 
    105 H105       23.1100  -30.4120  -41.5164 H         1 UNK         0.3055 
    106 H106       22.1115  -30.3542  -39.5521 H         1 UNK         0.1106 
    107 H107       24.2403  -32.2958  -38.5200 H         1 UNK         0.0828 
    108 H108       23.1769  -31.3030  -37.5370 H         1 UNK         0.0828 
    109 H109       24.3814  -30.5406  -38.5602 H         1 UNK         0.0828 
    110 H110       22.5330  -33.5892  -40.8010 H         1 UNK         0.2931 
    111 H111       21.1990  -35.3413  -40.9848 H         1 UNK         0.0412 
    112 H112       22.6091  -34.7546  -38.3067 H         1 UNK         0.3472 
    113 H113       21.8656  -35.9239  -37.2427 H         1 UNK         0.3472 
    114 H114       18.8694  -33.5983  -40.0221 H         1 UNK         0.0970 
    115 H115       18.7078  -35.2003  -40.6687 H         1 UNK         0.0970 
    116 H116       20.2711  -31.5757  -41.9058 H         1 UNK         0.0612 
    117 H117       18.6136  -31.6294  -41.3433 H         1 UNK         0.0612 
@<TRIPOS>BOND
     1    1    2 1    
     2    1   62 1    
     3    1   63 1    
     4    1   64 1    
     5    2    3 2    
     6    2    4 am   BACKBONE|DICT|INTERRES
     7    4    5 1    
     8    4   65 1    
     9    5    6 1    
    10    5   25 1    
    11    5   66 1    
    12    6    7 1    
    13    6   67 1    
    14    6   68 1    
    15    7    8 1    
    16    8    9 1    
    17    8   69 1    
    18    8   70 1    
    19    9   10 ar   
    20    9   14 ar   
    21   10   11 ar   
    22   10   71 1    
    23   11   12 ar   
    24   11   61 1    
    25   12   13 ar   
    26   12   72 1    
    27   13   14 ar   
    28   13   15 1    
    29   14   73 1    
    30   15   16 1    
    31   15   74 1    
    32   15   75 1    
    33   16   17 1    
    34   17   18 1    
    35   17   76 1    
    36   17   77 1    
    37   18   19 1    
    38   18   27 1    
    39   18   78 1    
    40   19   20 am   BACKBONE|DICT|INTERRES
    41   19   79 1    
    42   20   21 2    
    43   20   22 1    
    44   22   23 1    
    45   22   24 1    
    46   22   80 1    
    47   23   81 1    
    48   23   82 1    
    49   23   83 1    
    50   24   25 am   BACKBONE|DICT|INTERRES
    51   24   84 1    
    52   25   26 2    
    53   27   28 2    
    54   27   29 am   BACKBONE|DICT|INTERRES
    55   29   30 1    
    56   29   85 1    
    57   30   31 1    
    58   30   32 1    
    59   30   86 1    
    60   31   87 1    
    61   31   88 1    
    62   31   89 1    
    63   32   33 2    
    64   32   34 am   BACKBONE|DICT|INTERRES
    65   34   35 1    
    66   34   90 1    
    67   35   36 1    
    68   35   37 1    
    69   35   91 1    
    70   36   92 1    
    71   36   93 1    
    72   36   94 1    
    73   37   38 2    
    74   37   39 am   BACKBONE|DICT|INTERRES
    75   39   40 1    
    76   39   95 1    
    77   40   41 1    
    78   40   42 1    
    79   40   96 1    
    80   41   97 1    
    81   41   98 1    
    82   41   99 1    
    83   42   43 2    
    84   42   44 am   BACKBONE|DICT|INTERRES
    85   44   45 1    
    86   44  100 1    
    87   45   46 1    
    88   45   47 1    
    89   45  101 1    
    90   46  102 1    
    91   46  103 1    
    92   46  104 1    
    93   47   48 2    
    94   47   49 am   BACKBONE|DICT|INTERRES
    95   49   50 1    
    96   49  105 1    
    97   50   51 1    
    98   50   52 1    
    99   50  106 1    
   100   51  107 1    
   101   51  108 1    
   102   51  109 1    
   103   52   53 2    
   104   52   54 am   BACKBONE|DICT|INTERRES
   105   54   55 1    
   106   54  110 1    
   107   55   56 1    
   108   55   59 1    
   109   55  111 1    
   110   56   57 am   BACKBONE|DICT|INTERRES
   111   56   58 2    
   112   57  112 1    
   113   57  113 1    
   114   59   60 1    
   115   59  114 1    
   116   59  115 1    
   117   60   61 1    
   118   61  116 1    
   119   61  117 1    
@<TRIPOS>SUBSTRUCTURE
     1 UNK         1 GROUP             0       ****    0 ROOT    
