@<TRIPOS>MOLECULE
3R8
117   119    1
SMALL
USER_CHARGES


@<TRIPOS>ATOM
      1 CA         15.8185  -27.9929  -40.9799 C.3       0 UNK        -0.2013 
      2 C          16.4080  -26.7717  -41.6688 C.2       0 UNK         0.4866 
      3 O          16.6254  -25.7508  -41.0169 O.2       0 UNK        -0.5176 
      4 N          16.6784  -26.8694  -42.9775 N.am      1 UNK        -0.4884 
      5 CA         17.1988  -25.7786  -43.8182 C.3       1 UNK         0.0853 
      6 C6         16.5596  -25.7207  -45.2352 C.3       10 UNK        -0.0849 
      7 S7         14.7666  -26.1233  -45.2543 S.3       10 UNK        -0.2776 
      8 C8         14.6327  -27.7319  -46.1241 C.3       10 UNK         0.0316 
      9 C9         15.8573  -28.6221  -45.9588 C.ar      10 UNK        -0.0863 
     10 C10        16.0599  -29.3638  -44.7907 C.ar      10 UNK        -0.1009 
     11 C11        17.2409  -30.0944  -44.6147 C.ar      10 UNK        -0.0712 
     12 C12        18.1944  -30.1178  -45.6370 C.ar      10 UNK        -0.0894 
     13 C13        17.9980  -29.3830  -46.8109 C.ar      10 UNK        -0.0745 
     14 C14        16.8181  -28.6570  -46.9721 C.ar      10 UNK        -0.0972 
     15 C15        19.0586  -29.3328  -47.9010 C.3       10 UNK         0.0209 
     16 S16        20.4361  -28.2240  -47.4470 S.3       10 UNK        -0.2568 
     17 C17        21.5450  -29.4052  -46.6151 C.3       10 UNK        -0.0983 
     18 CA         22.1745  -28.9365  -45.2722 C.3       3 UNK         0.0876 
     19 N          21.2892  -28.1474  -44.4024 N.am      3 UNK        -0.4424 
     20 C          21.7670  -27.3080  -43.4715 C.2       2 UNK         0.4918 
     21 O          22.9737  -27.1381  -43.2814 O.2       2 UNK        -0.4875 
     22 CA         20.7749  -26.5516  -42.5673 C.3       2 UNK         0.0481 
     23 CB         21.2420  -25.1195  -42.2270 C.3       2 UNK        -0.1831 
     24 N          19.3699  -26.5703  -42.9806 N.am      2 UNK        -0.4498 
     25 C          18.7460  -25.7800  -43.8679 C.2       1 UNK         0.5027 
     26 O          19.3301  -25.0447  -44.6646 O.2       1 UNK        -0.4969 
     27 C          22.7438  -30.1748  -44.5499 C.2       3 UNK         0.5005 
     28 O          23.9552  -30.3988  -44.5709 O.2       3 UNK        -0.5279 
     29 N          21.8342  -31.0059  -44.0176 N.am      4 UNK        -0.4463 
     30 CA         22.0340  -32.4495  -43.8398 C.3       4 UNK         0.0283 
     31 CB         20.6852  -33.1255  -43.5437 C.3       4 UNK        -0.1875 
     32 C          23.1035  -32.8699  -42.8202 C.2       4 UNK         0.4949 
     33 O          23.6515  -33.9635  -42.9578 O.2       4 UNK        -0.5039 
     34 N          23.3923  -32.0131  -41.8373 N.am      5 UNK        -0.4663 
     35 CA         24.4406  -32.2173  -40.8363 C.3       5 UNK         0.0242 
     36 CB         23.7937  -32.3667  -39.4465 C.3       5 UNK        -0.1982 
     37 C          25.4987  -31.0995  -40.8824 C.2       5 UNK         0.5017 
     38 O          26.2636  -30.9791  -39.9257 O.2       5 UNK        -0.5012 
     39 N          25.5436  -30.3375  -41.9908 N.am      6 UNK        -0.4439 
     40 CA         26.4539  -29.2262  -42.2990 C.3       6 UNK         0.0297 
     41 CB         27.9143  -29.7131  -42.4001 C.3       6 UNK        -0.2006 
     42 C          26.2996  -28.0523  -41.3152 C.2       6 UNK         0.4892 
     43 O          26.9215  -28.0525  -40.2517 O.2       6 UNK        -0.5089 
     44 N          25.4594  -27.0797  -41.6977 N.am      7 UNK        -0.4243 
     45 CA         24.9936  -25.9392  -40.8940 C.3       7 UNK         0.0196 
     46 CB         26.1553  -25.0724  -40.3602 C.3       7 UNK        -0.2007 
     47 C          23.9947  -26.3681  -39.7989 C.2       7 UNK         0.5020 
     48 O          23.8554  -25.6835  -38.7847 O.2       7 UNK        -0.5147 
     49 N          23.2996  -27.4832  -40.0456 N.am      8 UNK        -0.4734 
     50 CA         22.2910  -28.1284  -39.2123 C.3       8 UNK         0.0238 
     51 CB         22.9346  -28.6814  -37.9236 C.3       8 UNK        -0.1912 
     52 C          21.6661  -29.2597  -40.0422 C.2       8 UNK         0.5038 
     53 O          22.1940  -29.5897  -41.1084 O.2       8 UNK        -0.5046 
     54 N          20.5816  -29.8497  -39.5346 N.am      9 UNK        -0.4200 
     55 CA         19.9773  -31.0865  -40.0485 C.3       9 UNK         0.0839 
     56 C          19.8606  -32.1151  -38.8957 C.2       9 UNK         0.5513 
     57 N          19.9559  -33.4017  -39.2000 N.am      9 UNK        -0.7519 
     58 O          19.6542  -31.7602  -37.7364 O.2       9 UNK        -0.4960 
     59 C59        18.5924  -30.8425  -40.7068 C.3       10 UNK        -0.0876 
     60 S60        18.6924  -29.9105  -42.2728 S.3       10 UNK        -0.2414 
     61 C61        17.5087  -30.8313  -43.3107 C.3       10 UNK         0.0169 
     62 H62        15.7401  -28.8464  -41.6520 H         1 UNK         0.0903 
     63 H63        16.4430  -28.2832  -40.1352 H         1 UNK         0.0903 
     64 H64        14.8212  -27.7648  -40.6035 H         1 UNK         0.0903 
     65 H65        16.4925  -27.7313  -43.4726 H         1 UNK         0.3096 
     66 H66        16.9347  -24.8347  -43.3357 H         1 UNK         0.1121 
     67 H67        16.6650  -24.7084  -45.6294 H         1 UNK         0.0849 
     68 H68        17.1104  -26.3366  -45.9408 H         1 UNK         0.0849 
     69 H69        13.7472  -28.2564  -45.7621 H         1 UNK         0.0865 
     70 H70        14.4501  -27.5386  -47.1825 H         1 UNK         0.0865 
     71 H71        15.3117  -29.3442  -44.0101 H         1 UNK         0.1346 
     72 H72        19.0974  -30.6917  -45.5001 H         1 UNK         0.1412 
     73 H73        16.6680  -28.0742  -47.8712 H         1 UNK         0.1426 
     74 H74        18.6227  -28.9674  -48.8322 H         1 UNK         0.0716 
     75 H75        19.4218  -30.3372  -48.1229 H         1 UNK         0.0716 
     76 H76        22.3462  -29.6370  -47.3195 H         1 UNK         0.0695 
     77 H77        21.0118  -30.3475  -46.4943 H         1 UNK         0.0695 
     78 H78        23.0236  -28.3017  -45.5372 H         1 UNK         0.0983 
     79 H79        20.2926  -28.2310  -44.5382 H         1 UNK         0.3095 
     80 H80        20.7744  -27.1012  -41.6284 H         1 UNK         0.0454 
     81 H81        22.1781  -25.1305  -41.6757 H         1 UNK         0.0851 
     82 H82        20.5160  -24.5996  -41.6022 H         1 UNK         0.0851 
     83 H83        21.4064  -24.5219  -43.1239 H         1 UNK         0.0851 
     84 H84        18.7716  -27.1690  -42.4271 H         1 UNK         0.2976 
     85 H85        20.8851  -30.6739  -43.9328 H         1 UNK         0.3116 
     86 H86        22.3772  -32.8335  -44.8031 H         1 UNK         0.0646 
     87 H87        19.9899  -32.9985  -44.3732 H         1 UNK         0.0847 
     88 H88        20.2133  -32.7269  -42.6483 H         1 UNK         0.0847 
     89 H89        20.8088  -34.1993  -43.3953 H         1 UNK         0.0847 
     90 H90        22.8908  -31.1263  -41.7841 H         1 UNK         0.3040 
     91 H91        24.9879  -33.1395  -41.0426 H         1 UNK         0.1015 
     92 H92        24.5424  -32.5829  -38.6835 H         1 UNK         0.0786 
     93 H93        23.0757  -33.1868  -39.4324 H         1 UNK         0.0786 
     94 H94        23.2713  -31.4624  -39.1424 H         1 UNK         0.0786 
     95 H95        24.8667  -30.5405  -42.7211 H         1 UNK         0.3172 
     96 H96        26.1668  -28.8694  -43.2897 H         1 UNK         0.0595 
     97 H97        28.5743  -28.8971  -42.6966 H         1 UNK         0.0839 
     98 H98        28.0181  -30.5021  -43.1449 H         1 UNK         0.0839 
     99 H99        28.2862  -30.0984  -41.4502 H         1 UNK         0.0839 
    100 H100       24.9590  -27.1965  -42.5734 H         1 UNK         0.2998 
    101 H101       24.4332  -25.3125  -41.5873 H         1 UNK         0.0822 
    102 H102       26.8642  -24.8256  -41.1505 H         1 UNK         0.0787 
    103 H103       25.7808  -24.1314  -39.9557 H         1 UNK         0.0787 
    104 H104       26.7020  -25.5686  -39.5582 H         1 UNK         0.0787 
    105 H105       23.4471  -27.9631  -40.9275 H         1 UNK         0.3055 
    106 H106       21.5136  -27.4022  -38.9661 H         1 UNK         0.1106 
    107 H107       23.3004  -27.8780  -37.2845 H         1 UNK         0.0828 
    108 H108       22.2215  -29.2556  -37.3311 H         1 UNK         0.0828 
    109 H109       23.7792  -29.3347  -38.1460 H         1 UNK         0.0828 
    110 H110       20.2327  -29.5567  -38.6324 H         1 UNK         0.2931 
    111 H111       20.6426  -31.5270  -40.7916 H         1 UNK         0.0412 
    112 H112       20.1148  -33.7090  -40.1462 H         1 UNK         0.3472 
    113 H113       19.8693  -34.0838  -38.4625 H         1 UNK         0.3472 
    114 H114       18.1014  -31.7966  -40.9088 H         1 UNK         0.0970 
    115 H115       17.9327  -30.3067  -40.0227 H         1 UNK         0.0970 
    116 H116       16.5783  -30.9752  -42.7594 H         1 UNK         0.0612 
    117 H117       17.9015  -31.8268  -43.5204 H         1 UNK         0.0612 
@<TRIPOS>BOND
     1    1    2 1    
     2    1   62 1    
     3    1   63 1    
     4    1   64 1    
     5    2    3 2    
     6    2    4 am   BACKBONE|DICT|INTERRES
     7    4    5 1    
     8    4   65 1    
     9    5    6 1    
    10    5   25 1    
    11    5   66 1    
    12    6    7 1    
    13    6   67 1    
    14    6   68 1    
    15    7    8 1    
    16    8    9 1    
    17    8   69 1    
    18    8   70 1    
    19    9   10 ar   
    20    9   14 ar   
    21   10   11 ar   
    22   10   71 1    
    23   11   12 ar   
    24   11   61 1    
    25   12   13 ar   
    26   12   72 1    
    27   13   14 ar   
    28   13   15 1    
    29   14   73 1    
    30   15   16 1    
    31   15   74 1    
    32   15   75 1    
    33   16   17 1    
    34   17   18 1    
    35   17   76 1    
    36   17   77 1    
    37   18   19 1    
    38   18   27 1    
    39   18   78 1    
    40   19   20 am   BACKBONE|DICT|INTERRES
    41   19   79 1    
    42   20   21 2    
    43   20   22 1    
    44   22   23 1    
    45   22   24 1    
    46   22   80 1    
    47   23   81 1    
    48   23   82 1    
    49   23   83 1    
    50   24   25 am   BACKBONE|DICT|INTERRES
    51   24   84 1    
    52   25   26 2    
    53   27   28 2    
    54   27   29 am   BACKBONE|DICT|INTERRES
    55   29   30 1    
    56   29   85 1    
    57   30   31 1    
    58   30   32 1    
    59   30   86 1    
    60   31   87 1    
    61   31   88 1    
    62   31   89 1    
    63   32   33 2    
    64   32   34 am   BACKBONE|DICT|INTERRES
    65   34   35 1    
    66   34   90 1    
    67   35   36 1    
    68   35   37 1    
    69   35   91 1    
    70   36   92 1    
    71   36   93 1    
    72   36   94 1    
    73   37   38 2    
    74   37   39 am   BACKBONE|DICT|INTERRES
    75   39   40 1    
    76   39   95 1    
    77   40   41 1    
    78   40   42 1    
    79   40   96 1    
    80   41   97 1    
    81   41   98 1    
    82   41   99 1    
    83   42   43 2    
    84   42   44 am   BACKBONE|DICT|INTERRES
    85   44   45 1    
    86   44  100 1    
    87   45   46 1    
    88   45   47 1    
    89   45  101 1    
    90   46  102 1    
    91   46  103 1    
    92   46  104 1    
    93   47   48 2    
    94   47   49 am   BACKBONE|DICT|INTERRES
    95   49   50 1    
    96   49  105 1    
    97   50   51 1    
    98   50   52 1    
    99   50  106 1    
   100   51  107 1    
   101   51  108 1    
   102   51  109 1    
   103   52   53 2    
   104   52   54 am   BACKBONE|DICT|INTERRES
   105   54   55 1    
   106   54  110 1    
   107   55   56 1    
   108   55   59 1    
   109   55  111 1    
   110   56   57 am   BACKBONE|DICT|INTERRES
   111   56   58 2    
   112   57  112 1    
   113   57  113 1    
   114   59   60 1    
   115   59  114 1    
   116   59  115 1    
   117   60   61 1    
   118   61  116 1    
   119   61  117 1    
@<TRIPOS>SUBSTRUCTURE
     1 UNK         1 GROUP             0       ****    0 ROOT    
