@<TRIPOS>MOLECULE
3R8
117   119    1
SMALL
USER_CHARGES


@<TRIPOS>ATOM
      1 CA         18.1726  -22.7538  -48.2311 C.3       0 UNK        -0.2013 
      2 C          19.0524  -23.8323  -47.6165 C.2       0 UNK         0.4866 
      3 O          20.2455  -23.6058  -47.4115 O.2       0 UNK        -0.5176 
      4 N          18.4764  -25.0062  -47.3285 N.am      1 UNK        -0.4884 
      5 CA         19.1535  -26.1260  -46.6673 C.3       1 UNK         0.0853 
      6 C6         18.3709  -27.4445  -46.8762 C.3       10 UNK        -0.0849 
      7 S7         19.4143  -28.9252  -46.6568 S.3       10 UNK        -0.2776 
      8 C8         18.1733  -30.2577  -46.6077 C.3       10 UNK         0.0316 
      9 C9         17.6611  -30.5043  -45.1955 C.ar      10 UNK        -0.0863 
     10 C10        18.1958  -31.5351  -44.4166 C.ar      10 UNK        -0.1009 
     11 C11        17.7091  -31.7782  -43.1271 C.ar      10 UNK        -0.0712 
     12 C12        16.7032  -30.9586  -42.6033 C.ar      10 UNK        -0.0894 
     13 C13        16.1815  -29.9087  -43.3656 C.ar      10 UNK        -0.0745 
     14 C14        16.6403  -29.7111  -44.6692 C.ar      10 UNK        -0.0972 
     15 C15        15.1324  -28.9668  -42.7965 C.3       10 UNK         0.0209 
     16 S16        15.8088  -27.2850  -42.5913 S.3       10 UNK        -0.2568 
     17 C17        16.7160  -27.4332  -41.0184 C.3       10 UNK        -0.0983 
     18 CA         18.1968  -27.8665  -41.1698 C.3       3 UNK         0.0876 
     19 N          18.9798  -26.9615  -42.0180 N.am      3 UNK        -0.4424 
     20 C          20.2643  -27.1421  -42.3560 C.2       2 UNK         0.4918 
     21 O          20.9275  -28.1291  -42.0318 O.2       2 UNK        -0.4875 
     22 CA         20.9003  -26.0477  -43.2312 C.3       2 UNK         0.0481 
     23 CB         22.4375  -26.0299  -43.1328 C.3       2 UNK        -0.1831 
     24 N          20.5197  -26.2270  -44.6309 N.am      2 UNK        -0.4498 
     25 C          19.3645  -25.8182  -45.1690 C.2       1 UNK         0.5027 
     26 O          18.4839  -25.2315  -44.5330 O.2       1 UNK        -0.4969 
     27 C          18.8279  -28.0107  -39.7705 C.2       3 UNK         0.5005 
     28 O          19.1347  -26.9979  -39.1369 O.2       3 UNK        -0.5279 
     29 N          18.9865  -29.2631  -39.3184 N.am      4 UNK        -0.4463 
     30 CA         19.5311  -29.6838  -38.0200 C.3       4 UNK         0.0283 
     31 CB         18.5935  -29.2491  -36.8732 C.3       4 UNK        -0.1875 
     32 C          20.9987  -29.2792  -37.7564 C.2       4 UNK         0.4949 
     33 O          21.4384  -29.3565  -36.6080 O.2       4 UNK        -0.5039 
     34 N          21.7401  -28.8817  -38.7984 N.am      5 UNK        -0.4663 
     35 CA         23.1562  -28.5324  -38.7345 C.3       5 UNK         0.0242 
     36 CB         23.3221  -27.0519  -39.1088 C.3       5 UNK        -0.1982 
     37 C          23.9289  -29.4205  -39.7126 C.2       5 UNK         0.5017 
     38 O          23.4701  -29.6295  -40.8374 O.2       5 UNK        -0.5012 
     39 N          25.1167  -29.8764  -39.2918 N.am      6 UNK        -0.4439 
     40 CA         26.0006  -30.7924  -40.0278 C.3       6 UNK         0.0297 
     41 CB         27.1673  -31.1994  -39.1119 C.3       6 UNK        -0.2006 
     42 C          26.5319  -30.2659  -41.3770 C.2       6 UNK         0.4892 
     43 O          27.1061  -31.0448  -42.1384 O.2       6 UNK        -0.5089 
     44 N          26.3220  -28.9726  -41.6601 N.am      7 UNK        -0.4243 
     45 CA         26.6030  -28.3203  -42.9399 C.3       7 UNK         0.0196 
     46 CB         26.3832  -26.8064  -42.7856 C.3       7 UNK        -0.2007 
     47 C          25.7689  -28.8677  -44.1151 C.2       7 UNK         0.5020 
     48 O          26.2034  -28.7329  -45.2595 O.2       7 UNK        -0.5147 
     49 N          24.6088  -29.4766  -43.8302 N.am      8 UNK        -0.4734 
     50 CA         23.7758  -30.1510  -44.8293 C.3       8 UNK         0.0238 
     51 CB         22.8208  -29.1524  -45.5042 C.3       8 UNK        -0.1912 
     52 C          23.0029  -31.3231  -44.2161 C.2       8 UNK         0.5038 
     53 O          23.0054  -32.4147  -44.7866 O.2       8 UNK        -0.5046 
     54 N          22.3679  -31.0854  -43.0639 N.am      9 UNK        -0.4200 
     55 CA         21.6042  -32.0670  -42.2884 C.3       9 UNK         0.0839 
     56 C          22.5422  -32.9381  -41.4048 C.2       9 UNK         0.5513 
     57 N          23.3976  -33.7447  -42.0189 N.am      9 UNK        -0.7519 
     58 O          22.5133  -32.8869  -40.1778 O.2       9 UNK        -0.4960 
     59 C59        20.4751  -31.3392  -41.5171 C.3       10 UNK        -0.0876 
     60 S60        19.1758  -32.4197  -40.8304 S.3       10 UNK        -0.2414 
     61 C61        18.2568  -32.9435  -42.3139 C.3       10 UNK         0.0169 
     62 H62        17.1463  -23.0936  -48.3694 H         1 UNK         0.0903 
     63 H63        18.1545  -21.8739  -47.5885 H         1 UNK         0.0903 
     64 H64        18.5654  -22.4578  -49.2034 H         1 UNK         0.0903 
     65 H65        17.4848  -25.1216  -47.4832 H         1 UNK         0.3096 
     66 H66        20.1336  -26.2293  -47.1399 H         1 UNK         0.1121 
     67 H67        17.9772  -27.4880  -47.8932 H         1 UNK         0.0849 
     68 H68        17.5042  -27.4807  -46.2180 H         1 UNK         0.0849 
     69 H69        17.3440  -30.0229  -47.2769 H         1 UNK         0.0865 
     70 H70        18.6270  -31.1684  -47.0017 H         1 UNK         0.0865 
     71 H71        18.9822  -32.1580  -44.8208 H         1 UNK         0.1346 
     72 H72        16.3366  -31.1350  -41.6012 H         1 UNK         0.1412 
     73 H73        16.2064  -28.9199  -45.2623 H         1 UNK         0.1426 
     74 H74        14.7388  -29.3339  -41.8475 H         1 UNK         0.0716 
     75 H75        14.2854  -28.9233  -43.4826 H         1 UNK         0.0716 
     76 H76        16.1764  -28.1300  -40.3738 H         1 UNK         0.0695 
     77 H77        16.6582  -26.4634  -40.5199 H         1 UNK         0.0695 
     78 H78        18.2227  -28.8404  -41.6598 H         1 UNK         0.0983 
     79 H79        18.4918  -26.1553  -42.3852 H         1 UNK         0.3095 
     80 H80        20.5387  -25.0781  -42.8819 H         1 UNK         0.0454 
     81 H81        22.8819  -26.9903  -43.3944 H         1 UNK         0.0851 
     82 H82        22.7554  -25.7899  -42.1193 H         1 UNK         0.0851 
     83 H83        22.8691  -25.2731  -43.7878 H         1 UNK         0.0851 
     84 H84        21.1665  -26.7431  -45.2088 H         1 UNK         0.2976 
     85 H85        18.7107  -30.0269  -39.9219 H         1 UNK         0.3116 
     86 H86        19.5313  -30.7746  -38.0424 H         1 UNK         0.0646 
     87 H87        18.5911  -28.1667  -36.7411 H         1 UNK         0.0847 
     88 H88        18.9013  -29.6897  -35.9242 H         1 UNK         0.0847 
     89 H89        17.5673  -29.5677  -37.0557 H         1 UNK         0.0847 
     90 H90        21.3346  -28.8676  -39.7262 H         1 UNK         0.3040 
     91 H91        23.5514  -28.6872  -37.7282 H         1 UNK         0.1015 
     92 H92        22.7917  -26.4069  -38.4081 H         1 UNK         0.0786 
     93 H93        22.9322  -26.8496  -40.1056 H         1 UNK         0.0786 
     94 H94        24.3715  -26.7545  -39.0963 H         1 UNK         0.0786 
     95 H95        25.4245  -29.6205  -38.3642 H         1 UNK         0.3172 
     96 H96        25.4174  -31.6881  -40.2524 H         1 UNK         0.0595 
     97 H97        27.7777  -30.3405  -38.8301 H         1 UNK         0.0839 
     98 H98        27.8241  -31.9158  -39.6077 H         1 UNK         0.0839 
     99 H99        26.8100  -31.6747  -38.1981 H         1 UNK         0.0839 
    100 H100       25.8401  -28.4188  -40.9681 H         1 UNK         0.2998 
    101 H101       27.6543  -28.4948  -43.1787 H         1 UNK         0.0822 
    102 H102       27.0412  -26.3848  -42.0254 H         1 UNK         0.0787 
    103 H103       26.5936  -26.2833  -43.7196 H         1 UNK         0.0787 
    104 H104       25.3548  -26.5744  -42.5065 H         1 UNK         0.0787 
    105 H105       24.3370  -29.5731  -42.8576 H         1 UNK         0.3055 
    106 H106       24.4261  -30.5748  -45.5986 H         1 UNK         0.1106 
    107 H107       22.2848  -29.6340  -46.3224 H         1 UNK         0.0828 
    108 H108       22.0755  -28.7728  -44.8051 H         1 UNK         0.0828 
    109 H109       23.3576  -28.3029  -45.9263 H         1 UNK         0.0828 
    110 H110       22.4649  -30.1810  -42.6170 H         1 UNK         0.2931 
    111 H111       21.1219  -32.7455  -42.9937 H         1 UNK         0.0412 
    112 H112       24.0192  -34.3224  -41.4755 H         1 UNK         0.3472 
    113 H113       23.4379  -33.7563  -43.0292 H         1 UNK         0.3472 
    114 H114       20.9079  -30.7589  -40.7031 H         1 UNK         0.0970 
    115 H115       19.9917  -30.6122  -42.1707 H         1 UNK         0.0970 
    116 H116       17.4249  -33.5754  -41.9999 H         1 UNK         0.0612 
    117 H117       18.8997  -33.5772  -42.9261 H         1 UNK         0.0612 
@<TRIPOS>BOND
     1    1    2 1    
     2    1   62 1    
     3    1   63 1    
     4    1   64 1    
     5    2    3 2    
     6    2    4 am   BACKBONE|DICT|INTERRES
     7    4    5 1    
     8    4   65 1    
     9    5    6 1    
    10    5   25 1    
    11    5   66 1    
    12    6    7 1    
    13    6   67 1    
    14    6   68 1    
    15    7    8 1    
    16    8    9 1    
    17    8   69 1    
    18    8   70 1    
    19    9   10 ar   
    20    9   14 ar   
    21   10   11 ar   
    22   10   71 1    
    23   11   12 ar   
    24   11   61 1    
    25   12   13 ar   
    26   12   72 1    
    27   13   14 ar   
    28   13   15 1    
    29   14   73 1    
    30   15   16 1    
    31   15   74 1    
    32   15   75 1    
    33   16   17 1    
    34   17   18 1    
    35   17   76 1    
    36   17   77 1    
    37   18   19 1    
    38   18   27 1    
    39   18   78 1    
    40   19   20 am   BACKBONE|DICT|INTERRES
    41   19   79 1    
    42   20   21 2    
    43   20   22 1    
    44   22   23 1    
    45   22   24 1    
    46   22   80 1    
    47   23   81 1    
    48   23   82 1    
    49   23   83 1    
    50   24   25 am   BACKBONE|DICT|INTERRES
    51   24   84 1    
    52   25   26 2    
    53   27   28 2    
    54   27   29 am   BACKBONE|DICT|INTERRES
    55   29   30 1    
    56   29   85 1    
    57   30   31 1    
    58   30   32 1    
    59   30   86 1    
    60   31   87 1    
    61   31   88 1    
    62   31   89 1    
    63   32   33 2    
    64   32   34 am   BACKBONE|DICT|INTERRES
    65   34   35 1    
    66   34   90 1    
    67   35   36 1    
    68   35   37 1    
    69   35   91 1    
    70   36   92 1    
    71   36   93 1    
    72   36   94 1    
    73   37   38 2    
    74   37   39 am   BACKBONE|DICT|INTERRES
    75   39   40 1    
    76   39   95 1    
    77   40   41 1    
    78   40   42 1    
    79   40   96 1    
    80   41   97 1    
    81   41   98 1    
    82   41   99 1    
    83   42   43 2    
    84   42   44 am   BACKBONE|DICT|INTERRES
    85   44   45 1    
    86   44  100 1    
    87   45   46 1    
    88   45   47 1    
    89   45  101 1    
    90   46  102 1    
    91   46  103 1    
    92   46  104 1    
    93   47   48 2    
    94   47   49 am   BACKBONE|DICT|INTERRES
    95   49   50 1    
    96   49  105 1    
    97   50   51 1    
    98   50   52 1    
    99   50  106 1    
   100   51  107 1    
   101   51  108 1    
   102   51  109 1    
   103   52   53 2    
   104   52   54 am   BACKBONE|DICT|INTERRES
   105   54   55 1    
   106   54  110 1    
   107   55   56 1    
   108   55   59 1    
   109   55  111 1    
   110   56   57 am   BACKBONE|DICT|INTERRES
   111   56   58 2    
   112   57  112 1    
   113   57  113 1    
   114   59   60 1    
   115   59  114 1    
   116   59  115 1    
   117   60   61 1    
   118   61  116 1    
   119   61  117 1    
@<TRIPOS>SUBSTRUCTURE
     1 UNK         1 GROUP             0       ****    0 ROOT    
