@<TRIPOS>MOLECULE
3R8
117   119    1
SMALL
USER_CHARGES


@<TRIPOS>ATOM
      1 CA         17.2704  -32.1891  -46.7650 C.3       0 UNK        -0.2013 
      2 C          17.0711  -30.6870  -46.6295 C.2       0 UNK         0.4866 
      3 O          16.7606  -30.0196  -47.6166 O.2       0 UNK        -0.5176 
      4 N          17.2447  -30.1589  -45.4118 N.am      1 UNK        -0.4884 
      5 CA         17.1827  -28.7362  -45.0636 C.3       1 UNK         0.0853 
      6 C6         15.7536  -28.1298  -45.2156 C.3       10 UNK        -0.0849 
      7 S7         15.4529  -26.5415  -44.3478 S.3       10 UNK        -0.2776 
      8 C8         15.0384  -27.0369  -42.6425 C.3       10 UNK         0.0316 
      9 C9         16.2907  -27.3595  -41.8408 C.ar      10 UNK        -0.0863 
     10 C10        16.6395  -28.6870  -41.5924 C.ar      10 UNK        -0.1009 
     11 C11        17.8394  -28.9989  -40.9487 C.ar      10 UNK        -0.0712 
     12 C12        18.6619  -27.9667  -40.4839 C.ar      10 UNK        -0.0894 
     13 C13        18.2982  -26.6280  -40.6787 C.ar      10 UNK        -0.0745 
     14 C14        17.1130  -26.3339  -41.3637 C.ar      10 UNK        -0.0972 
     15 C15        19.1616  -25.4997  -40.1190 C.3       10 UNK         0.0209 
     16 S16        19.6799  -24.2969  -41.3909 S.3       10 UNK        -0.2568 
     17 C17        21.2430  -25.0127  -42.0053 C.3       10 UNK        -0.0983 
     18 CA         21.0389  -26.2752  -42.8804 C.3       3 UNK         0.0876 
     19 N          20.0892  -26.0827  -43.9796 N.am      3 UNK        -0.4424 
     20 C          20.2831  -25.4521  -45.1480 C.2       2 UNK         0.4918 
     21 O          21.2912  -24.7989  -45.4193 O.2       2 UNK        -0.4875 
     22 CA         19.1651  -25.6005  -46.2066 C.3       2 UNK         0.0481 
     23 CB         19.7398  -25.8389  -47.6182 C.3       2 UNK        -0.1831 
     24 N          18.1615  -26.6252  -45.8733 N.am      2 UNK        -0.4498 
     25 C          18.3523  -27.9404  -45.6872 C.2       1 UNK         0.5027 
     26 O          19.4389  -28.4992  -45.8634 O.2       1 UNK        -0.4969 
     27 C          22.3609  -26.9133  -43.3595 C.2       3 UNK         0.5005 
     28 O          23.4407  -26.4770  -42.9532 O.2       3 UNK        -0.5279 
     29 N          22.2502  -27.9272  -44.2353 N.am      4 UNK        -0.4463 
     30 CA         23.3721  -28.6589  -44.8287 C.3       4 UNK         0.0283 
     31 CB         22.8389  -29.7556  -45.7636 C.3       4 UNK        -0.1875 
     32 C          24.3256  -29.2371  -43.7678 C.2       4 UNK         0.4949 
     33 O          23.8714  -29.8604  -42.8054 O.2       4 UNK        -0.5039 
     34 N          25.6230  -28.9507  -43.9429 N.am      5 UNK        -0.4663 
     35 CA         26.7419  -29.2553  -43.0380 C.3       5 UNK         0.0242 
     36 CB         26.9207  -30.7817  -42.8867 C.3       5 UNK        -0.1982 
     37 C          26.6780  -28.5504  -41.6641 C.2       5 UNK         0.5017 
     38 O          27.5071  -28.8588  -40.8070 O.2       5 UNK        -0.5012 
     39 N          25.7151  -27.6315  -41.4689 N.am      6 UNK        -0.4439 
     40 CA         25.3842  -26.9365  -40.2173 C.3       6 UNK         0.0297 
     41 CB         26.4895  -25.9252  -39.8463 C.3       6 UNK        -0.2006 
     42 C          25.0417  -27.9056  -39.0660 C.2       6 UNK         0.4892 
     43 O          25.3871  -27.6353  -37.9137 O.2       6 UNK        -0.5089 
     44 N          24.3945  -29.0294  -39.4024 N.am      7 UNK        -0.4243 
     45 CA         24.1298  -30.1398  -38.4924 C.3       7 UNK         0.0196 
     46 CB         25.3502  -31.0890  -38.4736 C.3       7 UNK        -0.2007 
     47 C          22.8000  -30.8154  -38.8609 C.2       7 UNK         0.5020 
     48 O          21.8070  -30.1208  -39.0808 O.2       7 UNK        -0.5147 
     49 N          22.7947  -32.1547  -38.9007 N.am      8 UNK        -0.4734 
     50 CA         21.6188  -33.0153  -39.0789 C.3       8 UNK         0.0238 
     51 CB         22.0080  -34.4572  -38.7072 C.3       8 UNK        -0.1912 
     52 C          20.9636  -32.9736  -40.4733 C.2       8 UNK         0.5038 
     53 O          19.9068  -33.5827  -40.6341 O.2       8 UNK        -0.5046 
     54 N          21.5955  -32.2858  -41.4348 N.am      9 UNK        -0.4200 
     55 CA         21.1369  -32.0009  -42.8062 C.3       9 UNK         0.0839 
     56 C          20.8327  -33.2206  -43.7290 C.2       9 UNK         0.5513 
     57 N          21.2283  -34.4361  -43.3723 N.am      9 UNK        -0.7519 
     58 O          20.2761  -33.0571  -44.8116 O.2       9 UNK        -0.4960 
     59 C59        20.0832  -30.8537  -42.8758 C.3       10 UNK        -0.0876 
     60 S60        18.3930  -31.3183  -42.3621 S.3       10 UNK        -0.2414 
     61 C61        18.2303  -30.4572  -40.7626 C.3       10 UNK         0.0169 
     62 H62        17.5463  -32.6509  -45.8166 H         1 UNK         0.0903 
     63 H63        16.3542  -32.6607  -47.1195 H         1 UNK         0.0903 
     64 H64        18.0632  -32.3982  -47.4828 H         1 UNK         0.0903 
     65 H65        17.5311  -30.7666  -44.6547 H         1 UNK         0.3096 
     66 H66        17.4270  -28.7234  -44.0070 H         1 UNK         0.1121 
     67 H67        15.0149  -28.8461  -44.8525 H         1 UNK         0.0849 
     68 H68        15.5203  -27.9874  -46.2722 H         1 UNK         0.0849 
     69 H69        14.5049  -26.2178  -42.1579 H         1 UNK         0.0865 
     70 H70        14.3478  -27.8816  -42.6565 H         1 UNK         0.0865 
     71 H71        16.0037  -29.4860  -41.9498 H         1 UNK         0.1346 
     72 H72        19.5798  -28.2079  -39.9638 H         1 UNK         0.1412 
     73 H73        16.8352  -25.3025  -41.5352 H         1 UNK         0.1426 
     74 H74        20.0409  -25.8917  -39.6056 H         1 UNK         0.0716 
     75 H75        18.5807  -24.9700  -39.3629 H         1 UNK         0.0716 
     76 H76        21.8796  -25.2360  -41.1470 H         1 UNK         0.0695 
     77 H77        21.7620  -24.2408  -42.5763 H         1 UNK         0.0695 
     78 H78        20.5967  -27.0383  -42.2418 H         1 UNK         0.0983 
     79 H79        19.1967  -26.5340  -43.8526 H         1 UNK         0.3095 
     80 H80        18.6316  -24.6492  -46.2201 H         1 UNK         0.0454 
     81 H81        20.3544  -26.7387  -47.6599 H         1 UNK         0.0851 
     82 H82        20.3679  -25.0043  -47.9318 H         1 UNK         0.0851 
     83 H83        18.9462  -25.9401  -48.3581 H         1 UNK         0.0851 
     84 H84        17.2390  -26.2682  -45.6475 H         1 UNK         0.2976 
     85 H85        21.3267  -28.1885  -44.5569 H         1 UNK         0.3116 
     86 H86        23.9253  -27.9416  -45.4386 H         1 UNK         0.0646 
     87 H87        22.2598  -29.3286  -46.5829 H         1 UNK         0.0847 
     88 H88        23.6568  -30.3242  -46.2081 H         1 UNK         0.0847 
     89 H89        22.1964  -30.4628  -45.2419 H         1 UNK         0.0847 
     90 H90        25.8746  -28.4072  -44.7582 H         1 UNK         0.3040 
     91 H91        27.6376  -28.8665  -43.5252 H         1 UNK         0.1015 
     92 H92        26.1007  -31.2340  -42.3280 H         1 UNK         0.0786 
     93 H93        27.8421  -31.0179  -42.3529 H         1 UNK         0.0786 
     94 H94        26.9773  -31.2736  -43.8577 H         1 UNK         0.0786 
     95 H95        25.0757  -27.4374  -42.2348 H         1 UNK         0.3172 
     96 H96        24.4732  -26.3698  -40.4138 H         1 UNK         0.0595 
     97 H97        27.4219  -26.4240  -39.5799 H         1 UNK         0.0839 
     98 H98        26.1918  -25.3157  -38.9923 H         1 UNK         0.0839 
     99 H99        26.6966  -25.2440  -40.6715 H         1 UNK         0.0839 
    100 H100       24.1044  -29.1609  -40.3637 H         1 UNK         0.2998 
    101 H101       23.9877  -29.7486  -37.4828 H         1 UNK         0.0822 
    102 H102       25.2289  -31.8881  -37.7412 H         1 UNK         0.0787 
    103 H103       25.5259  -31.5434  -39.4498 H         1 UNK         0.0787 
    104 H104       26.2584  -30.5516  -38.1990 H         1 UNK         0.0787 
    105 H105       23.6684  -32.6295  -38.7221 H         1 UNK         0.3055 
    106 H106       20.8555  -32.6770  -38.3744 H         1 UNK         0.1106 
    107 H107       21.1496  -35.1273  -38.7752 H         1 UNK         0.0828 
    108 H108       22.7803  -34.8504  -39.3695 H         1 UNK         0.0828 
    109 H109       22.3783  -34.5185  -37.6837 H         1 UNK         0.0828 
    110 H110       22.4727  -31.8528  -41.1864 H         1 UNK         0.2931 
    111 H111       22.0342  -31.5927  -43.2653 H         1 UNK         0.0412 
    112 H112       21.0419  -35.2156  -43.9832 H         1 UNK         0.3472 
    113 H113       21.6740  -34.5849  -42.4814 H         1 UNK         0.3472 
    114 H114       20.4256  -30.0046  -42.2824 H         1 UNK         0.0970 
    115 H115       20.0208  -30.4789  -43.8987 H         1 UNK         0.0970 
    116 H116       19.1583  -30.5503  -40.1966 H         1 UNK         0.0612 
    117 H117       17.4591  -30.9562  -40.1745 H         1 UNK         0.0612 
@<TRIPOS>BOND
     1    1    2 1    
     2    1   62 1    
     3    1   63 1    
     4    1   64 1    
     5    2    3 2    
     6    2    4 am   BACKBONE|DICT|INTERRES
     7    4    5 1    
     8    4   65 1    
     9    5    6 1    
    10    5   25 1    
    11    5   66 1    
    12    6    7 1    
    13    6   67 1    
    14    6   68 1    
    15    7    8 1    
    16    8    9 1    
    17    8   69 1    
    18    8   70 1    
    19    9   10 ar   
    20    9   14 ar   
    21   10   11 ar   
    22   10   71 1    
    23   11   12 ar   
    24   11   61 1    
    25   12   13 ar   
    26   12   72 1    
    27   13   14 ar   
    28   13   15 1    
    29   14   73 1    
    30   15   16 1    
    31   15   74 1    
    32   15   75 1    
    33   16   17 1    
    34   17   18 1    
    35   17   76 1    
    36   17   77 1    
    37   18   19 1    
    38   18   27 1    
    39   18   78 1    
    40   19   20 am   BACKBONE|DICT|INTERRES
    41   19   79 1    
    42   20   21 2    
    43   20   22 1    
    44   22   23 1    
    45   22   24 1    
    46   22   80 1    
    47   23   81 1    
    48   23   82 1    
    49   23   83 1    
    50   24   25 am   BACKBONE|DICT|INTERRES
    51   24   84 1    
    52   25   26 2    
    53   27   28 2    
    54   27   29 am   BACKBONE|DICT|INTERRES
    55   29   30 1    
    56   29   85 1    
    57   30   31 1    
    58   30   32 1    
    59   30   86 1    
    60   31   87 1    
    61   31   88 1    
    62   31   89 1    
    63   32   33 2    
    64   32   34 am   BACKBONE|DICT|INTERRES
    65   34   35 1    
    66   34   90 1    
    67   35   36 1    
    68   35   37 1    
    69   35   91 1    
    70   36   92 1    
    71   36   93 1    
    72   36   94 1    
    73   37   38 2    
    74   37   39 am   BACKBONE|DICT|INTERRES
    75   39   40 1    
    76   39   95 1    
    77   40   41 1    
    78   40   42 1    
    79   40   96 1    
    80   41   97 1    
    81   41   98 1    
    82   41   99 1    
    83   42   43 2    
    84   42   44 am   BACKBONE|DICT|INTERRES
    85   44   45 1    
    86   44  100 1    
    87   45   46 1    
    88   45   47 1    
    89   45  101 1    
    90   46  102 1    
    91   46  103 1    
    92   46  104 1    
    93   47   48 2    
    94   47   49 am   BACKBONE|DICT|INTERRES
    95   49   50 1    
    96   49  105 1    
    97   50   51 1    
    98   50   52 1    
    99   50  106 1    
   100   51  107 1    
   101   51  108 1    
   102   51  109 1    
   103   52   53 2    
   104   52   54 am   BACKBONE|DICT|INTERRES
   105   54   55 1    
   106   54  110 1    
   107   55   56 1    
   108   55   59 1    
   109   55  111 1    
   110   56   57 am   BACKBONE|DICT|INTERRES
   111   56   58 2    
   112   57  112 1    
   113   57  113 1    
   114   59   60 1    
   115   59  114 1    
   116   59  115 1    
   117   60   61 1    
   118   61  116 1    
   119   61  117 1    
@<TRIPOS>SUBSTRUCTURE
     1 UNK         1 GROUP             0       ****    0 ROOT    
