@<TRIPOS>MOLECULE
3R8
117   119    1
SMALL
USER_CHARGES


@<TRIPOS>ATOM
      1 CA         15.4679  -23.2707  -47.1804 C.3       0 UNK        -0.2013 
      2 C          15.9354  -24.0620  -45.9681 C.2       0 UNK         0.4866 
      3 O          15.6354  -23.6776  -44.8379 O.2       0 UNK        -0.5176 
      4 N          16.6768  -25.1555  -46.1995 N.am      1 UNK        -0.4884 
      5 CA         17.2039  -26.0907  -45.1890 C.3       1 UNK         0.0853 
      6 C6         16.0938  -26.8557  -44.4135 C.3       10 UNK        -0.0849 
      7 S7         15.1618  -27.9506  -45.5434 S.3       10 UNK        -0.2776 
      8 C8         15.3772  -29.6094  -44.8044 C.3       10 UNK         0.0316 
      9 C9         16.8221  -29.9648  -44.4613 C.ar      10 UNK        -0.0863 
     10 C10        17.1261  -30.4563  -43.1882 C.ar      10 UNK        -0.1009 
     11 C11        18.4394  -30.7852  -42.8432 C.ar      10 UNK        -0.0712 
     12 C12        19.4594  -30.6057  -43.7819 C.ar      10 UNK        -0.0894 
     13 C13        19.1773  -30.0953  -45.0525 C.ar      10 UNK        -0.0745 
     14 C14        17.8517  -29.8046  -45.3953 C.ar      10 UNK        -0.0972 
     15 C15        20.3028  -29.8510  -46.0506 C.3       10 UNK         0.0209 
     16 S16        20.4213  -28.0866  -46.5014 S.3       10 UNK        -0.2568 
     17 C17        22.1610  -27.6501  -46.1277 C.3       10 UNK        -0.0983 
     18 CA         22.3411  -26.7499  -44.8748 C.3       3 UNK         0.0876 
     19 N          21.3834  -25.6430  -44.8634 N.am      3 UNK        -0.4424 
     20 C          21.3204  -24.6297  -43.9896 C.2       2 UNK         0.4918 
     21 O          22.1594  -24.4232  -43.1126 O.2       2 UNK        -0.4875 
     22 CA         20.0726  -23.7284  -44.0838 C.3       2 UNK         0.0481 
     23 CB         20.4058  -22.4252  -44.8263 C.3       2 UNK        -0.1831 
     24 N          18.9277  -24.3809  -44.7370 N.am      2 UNK        -0.4498 
     25 C          18.2826  -25.4652  -44.2737 C.2       1 UNK         0.5027 
     26 O          18.5732  -26.0066  -43.2068 O.2       1 UNK        -0.4969 
     27 C          22.3467  -27.5886  -43.5800 C.2       3 UNK         0.5005 
     28 O          23.3680  -28.2149  -43.2964 O.2       3 UNK        -0.5279 
     29 N          21.2511  -27.5734  -42.8015 N.am      4 UNK        -0.4463 
     30 CA         21.0821  -28.3134  -41.5454 C.3       4 UNK         0.0283 
     31 CB         19.7173  -27.9711  -40.9291 C.3       4 UNK        -0.1875 
     32 C          22.1922  -28.0932  -40.5076 C.2       4 UNK         0.4949 
     33 O          22.5650  -29.0440  -39.8207 O.2       4 UNK        -0.5039 
     34 N          22.7230  -26.8646  -40.4446 N.am      5 UNK        -0.4663 
     35 CA         23.8236  -26.4766  -39.5593 C.3       5 UNK         0.0242 
     36 CB         23.9674  -24.9464  -39.5860 C.3       5 UNK        -0.1982 
     37 C          25.1669  -27.1485  -39.9008 C.2       5 UNK         0.5017 
     38 O          26.0075  -27.2818  -39.0107 O.2       5 UNK        -0.5012 
     39 N          25.3477  -27.5482  -41.1666 N.am      6 UNK        -0.4439 
     40 CA         26.5373  -28.2412  -41.6600 C.3       6 UNK         0.0297 
     41 CB         26.9399  -27.6508  -43.0220 C.3       6 UNK        -0.2006 
     42 C          26.2903  -29.7515  -41.7820 C.2       6 UNK         0.4892 
     43 O          27.1632  -30.5366  -41.4108 O.2       6 UNK        -0.5089 
     44 N          25.1210  -30.1283  -42.3172 N.am      7 UNK        -0.4243 
     45 CA         24.7379  -31.5092  -42.6048 C.3       7 UNK         0.0196 
     46 CB         23.5204  -31.5093  -43.5426 C.3       7 UNK        -0.2007 
     47 C          24.4428  -32.3408  -41.3489 C.2       7 UNK         0.5020 
     48 O          24.8238  -33.5110  -41.3164 O.2       7 UNK        -0.5147 
     49 N          23.7608  -31.7362  -40.3602 N.am      8 UNK        -0.4734 
     50 CA         23.2910  -32.3528  -39.1093 C.3       8 UNK         0.0238 
     51 CB         24.4809  -32.6088  -38.1603 C.3       8 UNK        -0.1912 
     52 C          22.4367  -33.6141  -39.3617 C.2       8 UNK         0.5038 
     53 O          22.7659  -34.6938  -38.8650 O.2       8 UNK        -0.5046 
     54 N          21.3930  -33.4509  -40.1879 N.am      9 UNK        -0.4200 
     55 CA         20.5103  -34.5200  -40.6818 C.3       9 UNK         0.0839 
     56 C          19.7959  -35.3452  -39.5697 C.2       9 UNK         0.5513 
     57 N          19.4390  -36.5894  -39.8598 N.am      9 UNK        -0.7519 
     58 O          19.5339  -34.8636  -38.4688 O.2       9 UNK        -0.4960 
     59 C59        19.5286  -33.9892  -41.7674 C.3       10 UNK        -0.0876 
     60 S60        18.1574  -32.9607  -41.1294 S.3       10 UNK        -0.2414 
     61 C61        18.7515  -31.2716  -41.4344 C.3       10 UNK         0.0169 
     62 H62        15.8085  -23.7149  -48.1155 H         1 UNK         0.0903 
     63 H63        14.3792  -23.2291  -47.2026 H         1 UNK         0.0903 
     64 H64        15.8467  -22.2502  -47.1317 H         1 UNK         0.0903 
     65 H65        16.8775  -25.4109  -47.1572 H         1 UNK         0.3096 
     66 H66        17.7596  -26.8399  -45.7543 H         1 UNK         0.1121 
     67 H67        15.4003  -26.1638  -43.9343 H         1 UNK         0.0849 
     68 H68        16.5151  -27.4536  -43.6044 H         1 UNK         0.0849 
     69 H69        14.7479  -29.6663  -43.9148 H         1 UNK         0.0865 
     70 H70        14.9889  -30.3557  -45.4986 H         1 UNK         0.0865 
     71 H71        16.3404  -30.5823  -42.4555 H         1 UNK         0.1346 
     72 H72        20.4773  -30.8452  -43.5174 H         1 UNK         0.1412 
     73 H73        17.6263  -29.4214  -46.3812 H         1 UNK         0.1426 
     74 H74        21.2536  -30.2048  -45.6502 H         1 UNK         0.0716 
     75 H75        20.1142  -30.4345  -46.9526 H         1 UNK         0.0716 
     76 H76        22.5373  -27.1105  -46.9981 H         1 UNK         0.0695 
     77 H77        22.7789  -28.5483  -46.0682 H         1 UNK         0.0695 
     78 H78        23.3340  -26.2989  -44.9335 H         1 UNK         0.0983 
     79 H79        20.6438  -25.7205  -45.5458 H         1 UNK         0.3095 
     80 H80        19.7742  -23.4758  -43.0644 H         1 UNK         0.0454 
     81 H81        19.5562  -21.7421  -44.8311 H         1 UNK         0.0851 
     82 H82        20.6951  -22.6108  -45.8614 H         1 UNK         0.0851 
     83 H83        21.2346  -21.9036  -44.3454 H         1 UNK         0.0851 
     84 H84        18.6224  -23.9942  -45.6187 H         1 UNK         0.2976 
     85 H85        20.4521  -27.0262  -43.1028 H         1 UNK         0.3116 
     86 H86        21.0976  -29.3723  -41.7971 H         1 UNK         0.0646 
     87 H87        18.9003  -28.2154  -41.6078 H         1 UNK         0.0847 
     88 H88        19.5510  -28.5273  -40.0057 H         1 UNK         0.0847 
     89 H89        19.6394  -26.9100  -40.6887 H         1 UNK         0.0847 
     90 H90        22.3641  -26.1538  -41.0683 H         1 UNK         0.3040 
     91 H91        23.5606  -26.7811  -38.5436 H         1 UNK         0.1015 
     92 H92        24.1998  -24.5806  -40.5873 H         1 UNK         0.0786 
     93 H93        24.7688  -24.6166  -38.9232 H         1 UNK         0.0786 
     94 H94        23.0523  -24.4558  -39.2538 H         1 UNK         0.0786 
     95 H95        24.5766  -27.4507  -41.8179 H         1 UNK         0.3172 
     96 H96        27.3734  -28.0929  -40.9732 H         1 UNK         0.0595 
     97 H97        26.1483  -27.7599  -43.7645 H         1 UNK         0.0839 
     98 H98        27.8272  -28.1487  -43.4156 H         1 UNK         0.0839 
     99 H99        27.1752  -26.5897  -42.9382 H         1 UNK         0.0839 
    100 H100       24.4714  -29.4081  -42.6307 H         1 UNK         0.2998 
    101 H101       25.5694  -31.9858  -43.1289 H         1 UNK         0.0822 
    102 H102       23.2030  -32.5260  -43.7787 H         1 UNK         0.0787 
    103 H103       22.6749  -30.9957  -43.0876 H         1 UNK         0.0787 
    104 H104       23.7455  -31.0100  -44.4853 H         1 UNK         0.0787 
    105 H105       23.5080  -30.7593  -40.4735 H         1 UNK         0.3055 
    106 H106       22.6352  -31.6263  -38.6257 H         1 UNK         0.1106 
    107 H107       25.0350  -31.6907  -37.9651 H         1 UNK         0.0828 
    108 H108       24.1379  -32.9913  -37.1982 H         1 UNK         0.0828 
    109 H109       25.1783  -33.3395  -38.5713 H         1 UNK         0.0828 
    110 H110       21.1974  -32.5238  -40.5287 H         1 UNK         0.2931 
    111 H111       21.1819  -35.2169  -41.1877 H         1 UNK         0.0412 
    112 H112       19.6399  -36.9946  -40.7611 H         1 UNK         0.3472 
    113 H113       18.9632  -37.1380  -39.1601 H         1 UNK         0.3472 
    114 H114       20.0731  -33.4384  -42.5359 H         1 UNK         0.0970 
    115 H115       19.0793  -34.8341  -42.2919 H         1 UNK         0.0970 
    116 H116       18.2656  -30.6079  -40.7181 H         1 UNK         0.0612 
    117 H117       19.8187  -31.2166  -41.2222 H         1 UNK         0.0612 
@<TRIPOS>BOND
     1    1    2 1    
     2    1   62 1    
     3    1   63 1    
     4    1   64 1    
     5    2    3 2    
     6    2    4 am   BACKBONE|DICT|INTERRES
     7    4    5 1    
     8    4   65 1    
     9    5    6 1    
    10    5   25 1    
    11    5   66 1    
    12    6    7 1    
    13    6   67 1    
    14    6   68 1    
    15    7    8 1    
    16    8    9 1    
    17    8   69 1    
    18    8   70 1    
    19    9   10 ar   
    20    9   14 ar   
    21   10   11 ar   
    22   10   71 1    
    23   11   12 ar   
    24   11   61 1    
    25   12   13 ar   
    26   12   72 1    
    27   13   14 ar   
    28   13   15 1    
    29   14   73 1    
    30   15   16 1    
    31   15   74 1    
    32   15   75 1    
    33   16   17 1    
    34   17   18 1    
    35   17   76 1    
    36   17   77 1    
    37   18   19 1    
    38   18   27 1    
    39   18   78 1    
    40   19   20 am   BACKBONE|DICT|INTERRES
    41   19   79 1    
    42   20   21 2    
    43   20   22 1    
    44   22   23 1    
    45   22   24 1    
    46   22   80 1    
    47   23   81 1    
    48   23   82 1    
    49   23   83 1    
    50   24   25 am   BACKBONE|DICT|INTERRES
    51   24   84 1    
    52   25   26 2    
    53   27   28 2    
    54   27   29 am   BACKBONE|DICT|INTERRES
    55   29   30 1    
    56   29   85 1    
    57   30   31 1    
    58   30   32 1    
    59   30   86 1    
    60   31   87 1    
    61   31   88 1    
    62   31   89 1    
    63   32   33 2    
    64   32   34 am   BACKBONE|DICT|INTERRES
    65   34   35 1    
    66   34   90 1    
    67   35   36 1    
    68   35   37 1    
    69   35   91 1    
    70   36   92 1    
    71   36   93 1    
    72   36   94 1    
    73   37   38 2    
    74   37   39 am   BACKBONE|DICT|INTERRES
    75   39   40 1    
    76   39   95 1    
    77   40   41 1    
    78   40   42 1    
    79   40   96 1    
    80   41   97 1    
    81   41   98 1    
    82   41   99 1    
    83   42   43 2    
    84   42   44 am   BACKBONE|DICT|INTERRES
    85   44   45 1    
    86   44  100 1    
    87   45   46 1    
    88   45   47 1    
    89   45  101 1    
    90   46  102 1    
    91   46  103 1    
    92   46  104 1    
    93   47   48 2    
    94   47   49 am   BACKBONE|DICT|INTERRES
    95   49   50 1    
    96   49  105 1    
    97   50   51 1    
    98   50   52 1    
    99   50  106 1    
   100   51  107 1    
   101   51  108 1    
   102   51  109 1    
   103   52   53 2    
   104   52   54 am   BACKBONE|DICT|INTERRES
   105   54   55 1    
   106   54  110 1    
   107   55   56 1    
   108   55   59 1    
   109   55  111 1    
   110   56   57 am   BACKBONE|DICT|INTERRES
   111   56   58 2    
   112   57  112 1    
   113   57  113 1    
   114   59   60 1    
   115   59  114 1    
   116   59  115 1    
   117   60   61 1    
   118   61  116 1    
   119   61  117 1    
@<TRIPOS>SUBSTRUCTURE
     1 UNK         1 GROUP             0       ****    0 ROOT    
