@<TRIPOS>MOLECULE
3R8
117   119    1
SMALL
USER_CHARGES


@<TRIPOS>ATOM
      1 CA         18.1336  -26.7627  -39.4070 C.3       0 UNK        -0.2013 
      2 C          17.3092  -26.7406  -40.6861 C.2       0 UNK         0.4866 
      3 O          16.6206  -25.7544  -40.9460 O.2       0 UNK        -0.5176 
      4 N          17.3726  -27.8217  -41.4768 N.am      1 UNK        -0.4884 
      5 CA         16.6678  -28.0102  -42.7543 C.3       1 UNK         0.0853 
      6 C6         16.9751  -29.4160  -43.3240 C.3       10 UNK        -0.0849 
      7 S7         15.9585  -29.9088  -44.7612 S.3       10 UNK        -0.2776 
      8 C8         17.1409  -29.7725  -46.1562 C.3       10 UNK         0.0316 
      9 C9         18.4304  -30.5806  -45.9930 C.ar      10 UNK        -0.0863 
     10 C10        18.4392  -31.8099  -45.3248 C.ar      10 UNK        -0.1009 
     11 C11        19.6328  -32.5126  -45.1193 C.ar      10 UNK        -0.0712 
     12 C12        20.8173  -31.9979  -45.6537 C.ar      10 UNK        -0.0894 
     13 C13        20.8261  -30.7962  -46.3684 C.ar      10 UNK        -0.0745 
     14 C14        19.6268  -30.0912  -46.5292 C.ar      10 UNK        -0.0972 
     15 C15        22.1293  -30.3192  -47.0092 C.3       10 UNK         0.0209 
     16 S16        22.4215  -28.5220  -46.9037 S.3       10 UNK        -0.2568 
     17 C17        22.8465  -28.3045  -45.1438 C.3       10 UNK        -0.0983 
     18 CA         22.4272  -26.9042  -44.6380 C.3       3 UNK         0.0876 
     19 N          20.9725  -26.7301  -44.7138 N.am      3 UNK        -0.4424 
     20 C          20.3378  -25.5494  -44.7250 C.2       2 UNK         0.4918 
     21 O          20.8997  -24.4602  -44.6156 O.2       2 UNK        -0.4875 
     22 CA         18.8147  -25.6047  -44.8739 C.3       2 UNK         0.0481 
     23 CB         18.4425  -25.8277  -46.3552 C.3       2 UNK        -0.1831 
     24 N          18.2692  -26.6481  -44.0020 N.am      2 UNK        -0.4498 
     25 C          16.9731  -26.8971  -43.7802 C.2       1 UNK         0.5027 
     26 O          16.0467  -26.2891  -44.3190 O.2       1 UNK        -0.4969 
     27 C          23.0048  -26.5772  -43.2411 C.2       3 UNK         0.5005 
     28 O          24.1977  -26.2834  -43.1432 O.2       3 UNK        -0.5279 
     29 N          22.1494  -26.5861  -42.2051 N.am      4 UNK        -0.4463 
     30 CA         22.3529  -26.0748  -40.8447 C.3       4 UNK         0.0283 
     31 CB         22.3015  -24.5313  -40.8521 C.3       4 UNK        -0.1875 
     32 C          23.6089  -26.6393  -40.1586 C.2       4 UNK         0.4949 
     33 O          23.5547  -27.7433  -39.6215 O.2       4 UNK        -0.5039 
     34 N          24.7149  -25.8846  -40.1892 N.am      5 UNK        -0.4663 
     35 CA         26.0095  -26.2824  -39.6328 C.3       5 UNK         0.0242 
     36 CB         26.9498  -25.0664  -39.6215 C.3       5 UNK        -0.1982 
     37 C          26.6618  -27.4620  -40.3759 C.2       5 UNK         0.5017 
     38 O          27.4090  -28.2161  -39.7515 O.2       5 UNK        -0.5012 
     39 N          26.3771  -27.6051  -41.6792 N.am      6 UNK        -0.4439 
     40 CA         26.8754  -28.7088  -42.5030 C.3       6 UNK         0.0297 
     41 CB         26.9554  -28.2669  -43.9726 C.3       6 UNK        -0.2006 
     42 C          26.0340  -29.9877  -42.3485 C.2       6 UNK         0.4892 
     43 O          26.5970  -31.0798  -42.4313 O.2       6 UNK        -0.5089 
     44 N          24.7237  -29.8395  -42.1105 N.am      7 UNK        -0.4243 
     45 CA         23.7717  -30.9238  -41.8766 C.3       7 UNK         0.0196 
     46 CB         23.5577  -31.7756  -43.1457 C.3       7 UNK        -0.2007 
     47 C          22.4505  -30.3107  -41.4055 C.2       7 UNK         0.5020 
     48 O          21.7689  -29.6604  -42.1982 O.2       7 UNK        -0.5147 
     49 N          22.1051  -30.5114  -40.1283 N.am      8 UNK        -0.4734 
     50 CA         20.8509  -30.0131  -39.5535 C.3       8 UNK         0.0238 
     51 CB         20.9360  -30.0285  -38.0194 C.3       8 UNK        -0.1912 
     52 C          19.6309  -30.8088  -40.0436 C.2       8 UNK         0.5038 
     53 O          18.5773  -30.2151  -40.2776 O.2       8 UNK        -0.5046 
     54 N          19.8190  -32.1254  -40.2147 N.am      9 UNK        -0.4200 
     55 CA         18.8242  -33.0996  -40.6919 C.3       9 UNK         0.0839 
     56 C          17.6914  -33.4344  -39.6733 C.2       9 UNK         0.5513 
     57 N          17.8151  -33.0663  -38.4035 N.am      9 UNK        -0.7519 
     58 O          16.6972  -34.0629  -40.0269 O.2       9 UNK        -0.4960 
     59 C59        18.2938  -32.7515  -42.1138 C.3       10 UNK        -0.0876 
     60 S60        18.2663  -34.1826  -43.2465 S.3       10 UNK        -0.2414 
     61 C61        19.6942  -33.8272  -44.3344 C.3       10 UNK         0.0169 
     62 H62        17.5031  -26.5235  -38.5510 H         1 UNK         0.0903 
     63 H63        18.5858  -27.7367  -39.2268 H         1 UNK         0.0903 
     64 H64        18.9298  -26.0207  -39.4610 H         1 UNK         0.0903 
     65 H65        17.8979  -28.6291  -41.1475 H         1 UNK         0.3096 
     66 H66        15.5990  -27.9578  -42.5352 H         1 UNK         0.1121 
     67 H67        16.7783  -30.1541  -42.5468 H         1 UNK         0.0849 
     68 H68        18.0371  -29.5153  -43.5530 H         1 UNK         0.0849 
     69 H69        16.6409  -30.1008  -47.0682 H         1 UNK         0.0865 
     70 H70        17.3743  -28.7173  -46.2991 H         1 UNK         0.0865 
     71 H71        17.5100  -32.2038  -44.9410 H         1 UNK         0.1346 
     72 H72        21.7388  -32.5490  -45.5246 H         1 UNK         0.1412 
     73 H73        19.6243  -29.1641  -47.0854 H         1 UNK         0.1426 
     74 H74        22.1098  -30.6005  -48.0628 H         1 UNK         0.0716 
     75 H75        22.9871  -30.8329  -46.5722 H         1 UNK         0.0716 
     76 H76        23.9185  -28.4653  -45.0350 H         1 UNK         0.0695 
     77 H77        22.3541  -29.0828  -44.5637 H         1 UNK         0.0695 
     78 H78        22.8752  -26.1689  -45.3108 H         1 UNK         0.0983 
     79 H79        20.4452  -27.5745  -44.8787 H         1 UNK         0.3095 
     80 H80        18.4086  -24.6453  -44.5472 H         1 UNK         0.0454 
     81 H81        18.7959  -26.7908  -46.7229 H         1 UNK         0.0851 
     82 H82        18.8905  -25.0587  -46.9859 H         1 UNK         0.0851 
     83 H83        17.3667  -25.7801  -46.5195 H         1 UNK         0.0851 
     84 H84        18.9390  -27.1603  -43.4477 H         1 UNK         0.2976 
     85 H85        21.2302  -26.9569  -42.3901 H         1 UNK         0.3116 
     86 H86        21.5045  -26.4252  -40.2549 H         1 UNK         0.0646 
     87 H87        21.3264  -24.1770  -41.1867 H         1 UNK         0.0847 
     88 H88        23.0490  -24.0940  -41.5149 H         1 UNK         0.0847 
     89 H89        22.4629  -24.1249  -39.8526 H         1 UNK         0.0847 
     90 H90        24.6801  -25.0053  -40.6847 H         1 UNK         0.3040 
     91 H91        25.8471  -26.6007  -38.6004 H         1 UNK         0.1015 
     92 H92        27.9166  -25.3251  -39.1870 H         1 UNK         0.0786 
     93 H93        26.5377  -24.2508  -39.0269 H         1 UNK         0.0786 
     94 H94        27.1353  -24.6897  -40.6282 H         1 UNK         0.0786 
     95 H95        25.7256  -26.9569  -42.1164 H         1 UNK         0.3172 
     96 H96        27.8918  -28.9524  -42.1853 H         1 UNK         0.0595 
     97 H97        25.9953  -27.9182  -44.3477 H         1 UNK         0.0839 
     98 H98        27.2795  -29.0887  -44.6127 H         1 UNK         0.0839 
     99 H99        27.6731  -27.4563  -44.1000 H         1 UNK         0.0839 
    100 H100       24.3456  -28.9066  -42.0135 H         1 UNK         0.2998 
    101 H101       24.1660  -31.5668  -41.0871 H         1 UNK         0.0822 
    102 H102       24.4528  -32.3374  -43.4112 H         1 UNK         0.0787 
    103 H103       22.7571  -32.5015  -42.9978 H         1 UNK         0.0787 
    104 H104       23.2859  -31.1601  -44.0023 H         1 UNK         0.0787 
    105 H105       22.7313  -31.0124  -39.5143 H         1 UNK         0.3055 
    106 H106       20.7182  -28.9769  -39.8731 H         1 UNK         0.1106 
    107 H107       21.7497  -29.3946  -37.6656 H         1 UNK         0.0828 
    108 H108       21.0987  -31.0335  -37.6287 H         1 UNK         0.0828 
    109 H109       20.0154  -29.6487  -37.5737 H         1 UNK         0.0828 
    110 H110       20.7261  -32.5059  -39.9894 H         1 UNK         0.2931 
    111 H111       19.3968  -34.0248  -40.7658 H         1 UNK         0.0412 
    112 H112       18.6287  -32.5606  -38.0933 H         1 UNK         0.3472 
    113 H113       17.0828  -33.2959  -37.7499 H         1 UNK         0.3472 
    114 H114       17.2870  -32.3348  -42.0675 H         1 UNK         0.0970 
    115 H115       18.9014  -31.9665  -42.5647 H         1 UNK         0.0970 
    116 H116       19.7951  -34.6483  -45.0451 H         1 UNK         0.0612 
    117 H117       20.5942  -33.8386  -43.7175 H         1 UNK         0.0612 
@<TRIPOS>BOND
     1    1    2 1    
     2    1   62 1    
     3    1   63 1    
     4    1   64 1    
     5    2    3 2    
     6    2    4 am   BACKBONE|DICT|INTERRES
     7    4    5 1    
     8    4   65 1    
     9    5    6 1    
    10    5   25 1    
    11    5   66 1    
    12    6    7 1    
    13    6   67 1    
    14    6   68 1    
    15    7    8 1    
    16    8    9 1    
    17    8   69 1    
    18    8   70 1    
    19    9   10 ar   
    20    9   14 ar   
    21   10   11 ar   
    22   10   71 1    
    23   11   12 ar   
    24   11   61 1    
    25   12   13 ar   
    26   12   72 1    
    27   13   14 ar   
    28   13   15 1    
    29   14   73 1    
    30   15   16 1    
    31   15   74 1    
    32   15   75 1    
    33   16   17 1    
    34   17   18 1    
    35   17   76 1    
    36   17   77 1    
    37   18   19 1    
    38   18   27 1    
    39   18   78 1    
    40   19   20 am   BACKBONE|DICT|INTERRES
    41   19   79 1    
    42   20   21 2    
    43   20   22 1    
    44   22   23 1    
    45   22   24 1    
    46   22   80 1    
    47   23   81 1    
    48   23   82 1    
    49   23   83 1    
    50   24   25 am   BACKBONE|DICT|INTERRES
    51   24   84 1    
    52   25   26 2    
    53   27   28 2    
    54   27   29 am   BACKBONE|DICT|INTERRES
    55   29   30 1    
    56   29   85 1    
    57   30   31 1    
    58   30   32 1    
    59   30   86 1    
    60   31   87 1    
    61   31   88 1    
    62   31   89 1    
    63   32   33 2    
    64   32   34 am   BACKBONE|DICT|INTERRES
    65   34   35 1    
    66   34   90 1    
    67   35   36 1    
    68   35   37 1    
    69   35   91 1    
    70   36   92 1    
    71   36   93 1    
    72   36   94 1    
    73   37   38 2    
    74   37   39 am   BACKBONE|DICT|INTERRES
    75   39   40 1    
    76   39   95 1    
    77   40   41 1    
    78   40   42 1    
    79   40   96 1    
    80   41   97 1    
    81   41   98 1    
    82   41   99 1    
    83   42   43 2    
    84   42   44 am   BACKBONE|DICT|INTERRES
    85   44   45 1    
    86   44  100 1    
    87   45   46 1    
    88   45   47 1    
    89   45  101 1    
    90   46  102 1    
    91   46  103 1    
    92   46  104 1    
    93   47   48 2    
    94   47   49 am   BACKBONE|DICT|INTERRES
    95   49   50 1    
    96   49  105 1    
    97   50   51 1    
    98   50   52 1    
    99   50  106 1    
   100   51  107 1    
   101   51  108 1    
   102   51  109 1    
   103   52   53 2    
   104   52   54 am   BACKBONE|DICT|INTERRES
   105   54   55 1    
   106   54  110 1    
   107   55   56 1    
   108   55   59 1    
   109   55  111 1    
   110   56   57 am   BACKBONE|DICT|INTERRES
   111   56   58 2    
   112   57  112 1    
   113   57  113 1    
   114   59   60 1    
   115   59  114 1    
   116   59  115 1    
   117   60   61 1    
   118   61  116 1    
   119   61  117 1    
@<TRIPOS>SUBSTRUCTURE
     1 UNK         1 GROUP             0       ****    0 ROOT    
