@<TRIPOS>MOLECULE
3R8
117   119    1
SMALL
USER_CHARGES


@<TRIPOS>ATOM
      1 CA         15.6329  -24.0000  -41.0797 C.3       0 UNK        -0.2013 
      2 C          15.8873  -24.1630  -42.5712 C.2       0 UNK         0.4866 
      3 O          15.7349  -23.2021  -43.3267 O.2       0 UNK        -0.5176 
      4 N          16.2657  -25.3734  -43.0018 N.am      1 UNK        -0.4884 
      5 CA         16.6280  -25.6889  -44.3879 C.3       1 UNK         0.0853 
      6 C6         16.5235  -27.2101  -44.6540 C.3       10 UNK        -0.0849 
      7 S7         16.2317  -27.5890  -46.4161 S.3       10 UNK        -0.2776 
      8 C8         16.0295  -29.3990  -46.3642 C.3       10 UNK         0.0316 
      9 C9         17.2720  -30.0813  -45.8127 C.ar      10 UNK        -0.0863 
     10 C10        17.2661  -30.6276  -44.5262 C.ar      10 UNK        -0.1009 
     11 C11        18.4166  -31.2119  -43.9871 C.ar      10 UNK        -0.0712 
     12 C12        19.5839  -31.2458  -44.7639 C.ar      10 UNK        -0.0894 
     13 C13        19.6025  -30.7012  -46.0528 C.ar      10 UNK        -0.0745 
     14 C14        18.4386  -30.1347  -46.5770 C.ar      10 UNK        -0.0972 
     15 C15        20.8834  -30.7071  -46.8769 C.3       10 UNK         0.0209 
     16 S16        21.4926  -29.0219  -47.2170 S.3       10 UNK        -0.2568 
     17 C17        21.9131  -28.4503  -45.5381 C.3       10 UNK        -0.0983 
     18 CA         22.0631  -26.9148  -45.4325 C.3       3 UNK         0.0876 
     19 N          20.8647  -26.2021  -45.8924 N.am      3 UNK        -0.4424 
     20 C          20.8363  -24.9001  -46.2058 C.2       2 UNK         0.4918 
     21 O          21.8296  -24.1724  -46.1850 O.2       2 UNK        -0.4875 
     22 CA         19.4776  -24.2911  -46.6015 C.3       2 UNK         0.0481 
     23 CB         19.3432  -24.2530  -48.1324 C.3       2 UNK        -0.1831 
     24 N          18.2891  -24.9413  -46.0332 N.am      2 UNK        -0.4498 
     25 C          18.0305  -25.1363  -44.7318 C.2       1 UNK         0.5027 
     26 O          18.8469  -24.9204  -43.8313 O.2       1 UNK        -0.4969 
     27 C          22.4705  -26.5344  -43.9912 C.2       3 UNK         0.5005 
     28 O          23.6319  -26.7347  -43.6294 O.2       3 UNK        -0.5279 
     29 N          21.5196  -26.0152  -43.1955 N.am      4 UNK        -0.4463 
     30 CA         21.6391  -25.6825  -41.7724 C.3       4 UNK         0.0283 
     31 CB         22.5883  -24.4770  -41.5790 C.3       4 UNK        -0.1875 
     32 C          22.0068  -26.9102  -40.9099 C.2       4 UNK         0.4949 
     33 O          21.6951  -28.0435  -41.2827 O.2       4 UNK        -0.5039 
     34 N          22.6538  -26.6719  -39.7614 N.am      5 UNK        -0.4663 
     35 CA         23.1033  -27.7113  -38.8290 C.3       5 UNK         0.0242 
     36 CB         23.4311  -27.0607  -37.4753 C.3       5 UNK        -0.1982 
     37 C          24.3091  -28.5223  -39.3390 C.2       5 UNK         0.5017 
     38 O          24.5541  -29.6132  -38.8237 O.2       5 UNK        -0.5012 
     39 N          25.0325  -27.9927  -40.3377 N.am      6 UNK        -0.4439 
     40 CA         26.2453  -28.5753  -40.9245 C.3       6 UNK         0.0297 
     41 CB         26.8426  -27.5851  -41.9371 C.3       6 UNK        -0.2006 
     42 C          26.0453  -29.9561  -41.5768 C.2       6 UNK         0.4892 
     43 O          27.0065  -30.7210  -41.6639 O.2       6 UNK        -0.5089 
     44 N          24.8104  -30.2621  -41.9985 N.am      7 UNK        -0.4243 
     45 CA         24.4101  -31.5746  -42.5116 C.3       7 UNK         0.0196 
     46 CB         23.1176  -31.4206  -43.3266 C.3       7 UNK        -0.2007 
     47 C          24.2439  -32.6495  -41.4189 C.2       7 UNK         0.5020 
     48 O          24.1456  -33.8271  -41.7650 O.2       7 UNK        -0.5147 
     49 N          24.2134  -32.2427  -40.1382 N.am      8 UNK        -0.4734 
     50 CA         24.0561  -33.0831  -38.9430 C.3       8 UNK         0.0238 
     51 CB         25.2897  -33.9900  -38.7446 C.3       8 UNK        -0.1912 
     52 C          22.7238  -33.8596  -38.9226 C.2       8 UNK         0.5038 
     53 O          22.7015  -35.0425  -38.5753 O.2       8 UNK        -0.5046 
     54 N          21.6379  -33.1725  -39.3019 N.am      9 UNK        -0.4200 
     55 CA         20.2691  -33.7131  -39.3662 C.3       9 UNK         0.0839 
     56 C          19.6391  -34.0807  -37.9897 C.2       9 UNK         0.5513 
     57 N          20.1663  -33.6087  -36.8662 N.am      9 UNK        -0.7519 
     58 O          18.6503  -34.8082  -37.9442 O.2       9 UNK        -0.4960 
     59 C59        19.3186  -32.7743  -40.1543 C.3       10 UNK        -0.0876 
     60 S60        19.8780  -32.4388  -41.8575 S.3       10 UNK        -0.2414 
     61 C61        18.3298  -31.7696  -42.5634 C.3       10 UNK         0.0169 
     62 H62        14.6075  -23.6735  -40.9071 H         1 UNK         0.0903 
     63 H63        15.7879  -24.9311  -40.5347 H         1 UNK         0.0903 
     64 H64        16.3044  -23.2490  -40.6646 H         1 UNK         0.0903 
     65 H65        16.4102  -26.1140  -42.3302 H         1 UNK         0.3096 
     66 H66        15.9052  -25.1766  -45.0286 H         1 UNK         0.1121 
     67 H67        17.4136  -27.7338  -44.2988 H         1 UNK         0.0849 
     68 H68        15.6844  -27.6317  -44.0976 H         1 UNK         0.0849 
     69 H69        15.1496  -29.6481  -45.7688 H         1 UNK         0.0865 
     70 H70        15.8302  -29.7655  -47.3722 H         1 UNK         0.0865 
     71 H71        16.3635  -30.5827  -43.9315 H         1 UNK         0.1346 
     72 H72        20.4884  -31.6851  -44.3725 H         1 UNK         0.1412 
     73 H73        18.4515  -29.7028  -47.5688 H         1 UNK         0.1426 
     74 H74        20.6937  -31.2118  -47.8251 H         1 UNK         0.0716 
     75 H75        21.6691  -31.2758  -46.3770 H         1 UNK         0.0716 
     76 H76        21.1590  -28.8041  -44.8329 H         1 UNK         0.0695 
     77 H77        22.8509  -28.9310  -45.2586 H         1 UNK         0.0695 
     78 H78        22.8921  -26.6177  -46.0792 H         1 UNK         0.0983 
     79 H79        20.0156  -26.7429  -45.9652 H         1 UNK         0.3095 
     80 H80        19.4753  -23.2615  -46.2380 H         1 UNK         0.0454 
     81 H81        19.2921  -25.2566  -48.5572 H         1 UNK         0.0851 
     82 H82        18.4501  -23.7099  -48.4416 H         1 UNK         0.0851 
     83 H83        20.1974  -23.7500  -48.5886 H         1 UNK         0.0851 
     84 H84        17.5738  -25.2077  -46.6963 H         1 UNK         0.2976 
     85 H85        20.5960  -25.8616  -43.5889 H         1 UNK         0.3116 
     86 H86        20.6416  -25.3755  -41.4548 H         1 UNK         0.0646 
     87 H87        22.5235  -24.0718  -40.5688 H         1 UNK         0.0847 
     88 H88        22.3299  -23.6638  -42.2576 H         1 UNK         0.0847 
     89 H89        23.6295  -24.7424  -41.7663 H         1 UNK         0.0847 
     90 H90        22.8649  -25.7159  -39.5126 H         1 UNK         0.3040 
     91 H91        22.2827  -28.4172  -38.6798 H         1 UNK         0.1015 
     92 H92        22.5635  -26.5464  -37.0611 H         1 UNK         0.0786 
     93 H93        24.2436  -26.3379  -37.5597 H         1 UNK         0.0786 
     94 H94        23.7380  -27.8116  -36.7455 H         1 UNK         0.0786 
     95 H95        24.7283  -27.1076  -40.7170 H         1 UNK         0.3172 
     96 H96        26.9646  -28.7061  -40.1133 H         1 UNK         0.0595 
     97 H97        27.0820  -26.6302  -41.4690 H         1 UNK         0.0839 
     98 H98        26.1584  -27.3923  -42.7645 H         1 UNK         0.0839 
     99 H99        27.7678  -27.9743  -42.3650 H         1 UNK         0.0839 
    100 H100       24.0836  -29.5663  -41.8987 H         1 UNK         0.2998 
    101 H101       25.1899  -31.9351  -43.1861 H         1 UNK         0.0822 
    102 H102       23.3051  -30.8733  -44.2477 H         1 UNK         0.0787 
    103 H103       22.7120  -32.3919  -43.6138 H         1 UNK         0.0787 
    104 H104       22.3446  -30.8923  -42.7668 H         1 UNK         0.0787 
    105 H105       24.3229  -31.2510  -39.9467 H         1 UNK         0.3055 
    106 H106       24.0169  -32.3990  -38.0932 H         1 UNK         0.1106 
    107 H107       25.3711  -34.7433  -39.5288 H         1 UNK         0.0828 
    108 H108       26.2120  -33.4089  -38.7407 H         1 UNK         0.0828 
    109 H109       25.2369  -34.5183  -37.7918 H         1 UNK         0.0828 
    110 H110       21.7509  -32.2142  -39.5968 H         1 UNK         0.2931 
    111 H111       20.3328  -34.6506  -39.9228 H         1 UNK         0.0412 
    112 H112       20.9757  -33.0096  -36.8916 H         1 UNK         0.3472 
    113 H113       19.7488  -33.8572  -35.9826 H         1 UNK         0.3472 
    114 H114       18.3197  -33.2130  -40.2087 H         1 UNK         0.0970 
    115 H115       19.2048  -31.8211  -39.6338 H         1 UNK         0.0970 
    116 H116       17.5724  -32.5583  -42.5445 H         1 UNK         0.0612 
    117 H117       17.9714  -30.9740  -41.9039 H         1 UNK         0.0612 
@<TRIPOS>BOND
     1    1    2 1    
     2    1   62 1    
     3    1   63 1    
     4    1   64 1    
     5    2    3 2    
     6    2    4 am   BACKBONE|DICT|INTERRES
     7    4    5 1    
     8    4   65 1    
     9    5    6 1    
    10    5   25 1    
    11    5   66 1    
    12    6    7 1    
    13    6   67 1    
    14    6   68 1    
    15    7    8 1    
    16    8    9 1    
    17    8   69 1    
    18    8   70 1    
    19    9   10 ar   
    20    9   14 ar   
    21   10   11 ar   
    22   10   71 1    
    23   11   12 ar   
    24   11   61 1    
    25   12   13 ar   
    26   12   72 1    
    27   13   14 ar   
    28   13   15 1    
    29   14   73 1    
    30   15   16 1    
    31   15   74 1    
    32   15   75 1    
    33   16   17 1    
    34   17   18 1    
    35   17   76 1    
    36   17   77 1    
    37   18   19 1    
    38   18   27 1    
    39   18   78 1    
    40   19   20 am   BACKBONE|DICT|INTERRES
    41   19   79 1    
    42   20   21 2    
    43   20   22 1    
    44   22   23 1    
    45   22   24 1    
    46   22   80 1    
    47   23   81 1    
    48   23   82 1    
    49   23   83 1    
    50   24   25 am   BACKBONE|DICT|INTERRES
    51   24   84 1    
    52   25   26 2    
    53   27   28 2    
    54   27   29 am   BACKBONE|DICT|INTERRES
    55   29   30 1    
    56   29   85 1    
    57   30   31 1    
    58   30   32 1    
    59   30   86 1    
    60   31   87 1    
    61   31   88 1    
    62   31   89 1    
    63   32   33 2    
    64   32   34 am   BACKBONE|DICT|INTERRES
    65   34   35 1    
    66   34   90 1    
    67   35   36 1    
    68   35   37 1    
    69   35   91 1    
    70   36   92 1    
    71   36   93 1    
    72   36   94 1    
    73   37   38 2    
    74   37   39 am   BACKBONE|DICT|INTERRES
    75   39   40 1    
    76   39   95 1    
    77   40   41 1    
    78   40   42 1    
    79   40   96 1    
    80   41   97 1    
    81   41   98 1    
    82   41   99 1    
    83   42   43 2    
    84   42   44 am   BACKBONE|DICT|INTERRES
    85   44   45 1    
    86   44  100 1    
    87   45   46 1    
    88   45   47 1    
    89   45  101 1    
    90   46  102 1    
    91   46  103 1    
    92   46  104 1    
    93   47   48 2    
    94   47   49 am   BACKBONE|DICT|INTERRES
    95   49   50 1    
    96   49  105 1    
    97   50   51 1    
    98   50   52 1    
    99   50  106 1    
   100   51  107 1    
   101   51  108 1    
   102   51  109 1    
   103   52   53 2    
   104   52   54 am   BACKBONE|DICT|INTERRES
   105   54   55 1    
   106   54  110 1    
   107   55   56 1    
   108   55   59 1    
   109   55  111 1    
   110   56   57 am   BACKBONE|DICT|INTERRES
   111   56   58 2    
   112   57  112 1    
   113   57  113 1    
   114   59   60 1    
   115   59  114 1    
   116   59  115 1    
   117   60   61 1    
   118   61  116 1    
   119   61  117 1    
@<TRIPOS>SUBSTRUCTURE
     1 UNK         1 GROUP             0       ****    0 ROOT    
