@<TRIPOS>MOLECULE
3R8
117   119    1
SMALL
USER_CHARGES


@<TRIPOS>ATOM
      1 CA         15.6072  -24.4887  -39.2878 C.3       0 UNK        -0.2013 
      2 C          15.8665  -24.7676  -40.7608 C.2       0 UNK         0.4866 
      3 O          15.1038  -24.3145  -41.6145 O.2       0 UNK        -0.5176 
      4 N          16.9367  -25.5072  -41.0648 N.am      1 UNK        -0.4884 
      5 CA         17.3802  -25.8555  -42.4130 C.3       1 UNK         0.0853 
      6 C6         16.5587  -27.0280  -43.0081 C.3       10 UNK        -0.0849 
      7 S7         16.6203  -27.0504  -44.8301 S.3       10 UNK        -0.2776 
      8 C8         16.0986  -28.7602  -45.1876 C.3       10 UNK         0.0316 
      9 C9         17.0652  -29.8082  -44.6465 C.ar      10 UNK        -0.0863 
     10 C10        16.5925  -30.8474  -43.8370 C.ar      10 UNK        -0.1009 
     11 C11        17.4664  -31.8288  -43.3593 C.ar      10 UNK        -0.0712 
     12 C12        18.8184  -31.7661  -43.7035 C.ar      10 UNK        -0.0894 
     13 C13        19.3108  -30.7258  -44.4921 C.ar      10 UNK        -0.0745 
     14 C14        18.4268  -29.7496  -44.9634 C.ar      10 UNK        -0.0972 
     15 C15        20.8063  -30.6396  -44.7628 C.3       10 UNK         0.0209 
     16 S16        21.2138  -30.2316  -46.4908 S.3       10 UNK        -0.2568 
     17 C17        22.9570  -29.7428  -46.2852 C.3       10 UNK        -0.0983 
     18 CA         23.1415  -28.2062  -46.1567 C.3       3 UNK         0.0876 
     19 N          22.4847  -27.6533  -44.9722 N.am      3 UNK        -0.4424 
     20 C          21.3769  -26.9091  -44.9531 C.2       2 UNK         0.4918 
     21 O          20.6905  -26.6388  -45.9405 O.2       2 UNK        -0.4875 
     22 CA         21.0164  -26.3228  -43.5871 C.3       2 UNK         0.0481 
     23 CB         21.7595  -24.9924  -43.3605 C.3       2 UNK        -0.1831 
     24 N          19.5773  -26.1066  -43.4853 N.am      2 UNK        -0.4498 
     25 C          18.8885  -26.1573  -42.3405 C.2       1 UNK         0.5027 
     26 O          19.4046  -26.4210  -41.2483 O.2       1 UNK        -0.4969 
     27 C          24.6176  -27.8023  -46.0135 C.2       3 UNK         0.5005 
     28 O          25.4733  -28.6537  -45.7625 O.2       3 UNK        -0.5279 
     29 N          24.8637  -26.4824  -46.0364 N.am      4 UNK        -0.4463 
     30 CA         26.0752  -25.7711  -45.5973 C.3       4 UNK         0.0283 
     31 CB         27.3448  -26.2311  -46.3420 C.3       4 UNK        -0.1875 
     32 C          26.2486  -25.8221  -44.0678 C.2       4 UNK         0.4949 
     33 O          26.3119  -24.7706  -43.4312 O.2       4 UNK        -0.5039 
     34 N          26.2604  -27.0345  -43.5023 N.am      5 UNK        -0.4663 
     35 CA         26.1076  -27.2906  -42.0718 C.3       5 UNK         0.0242 
     36 CB         26.7147  -28.6625  -41.7403 C.3       5 UNK        -0.1982 
     37 C          24.6158  -27.2537  -41.7038 C.2       5 UNK         0.5017 
     38 O          23.7966  -27.7990  -42.4502 O.2       5 UNK        -0.5012 
     39 N          24.2908  -26.6142  -40.5738 N.am      6 UNK        -0.4439 
     40 CA         22.9270  -26.4808  -40.0586 C.3       6 UNK         0.0297 
     41 CB         22.8874  -25.3712  -38.9961 C.3       6 UNK        -0.2006 
     42 C          22.4067  -27.8036  -39.4786 C.2       6 UNK         0.4892 
     43 O          23.1413  -28.4686  -38.7448 O.2       6 UNK        -0.5089 
     44 N          21.1450  -28.1295  -39.7984 N.am      7 UNK        -0.4243 
     45 CA         20.3744  -29.2926  -39.3363 C.3       7 UNK         0.0196 
     46 CB         19.9647  -29.1020  -37.8611 C.3       7 UNK        -0.2007 
     47 C          21.0617  -30.6505  -39.5892 C.2       7 UNK         0.5020 
     48 O          20.9196  -31.5731  -38.7842 O.2       7 UNK        -0.5147 
     49 N          21.7960  -30.7606  -40.7047 N.am      8 UNK        -0.4734 
     50 CA         22.6023  -31.9253  -41.0888 C.3       8 UNK         0.0238 
     51 CB         23.6977  -31.4579  -42.0655 C.3       8 UNK        -0.1912 
     52 C          21.7640  -33.0977  -41.6431 C.2       8 UNK         0.5038 
     53 O          22.0801  -33.6323  -42.7074 O.2       8 UNK        -0.5046 
     54 N          20.6926  -33.4571  -40.9294 N.am      9 UNK        -0.4200 
     55 CA         19.7769  -34.5584  -41.2520 C.3       9 UNK         0.0839 
     56 C          20.4099  -35.9485  -40.9770 C.2       9 UNK         0.5513 
     57 N          20.0108  -36.9685  -41.7244 N.am      9 UNK        -0.7519 
     58 O          21.2242  -36.1202  -40.0718 O.2       9 UNK        -0.4960 
     59 C59        18.4169  -34.4109  -40.5176 C.3       10 UNK        -0.0876 
     60 S60        17.6084  -32.7910  -40.7733 S.3       10 UNK        -0.2414 
     61 C61        16.9616  -32.9558  -42.4691 C.3       10 UNK         0.0169 
     62 H62        14.6294  -24.8738  -38.9997 H         1 UNK         0.0903 
     63 H63        16.3565  -24.9531  -38.6467 H         1 UNK         0.0903 
     64 H64        15.6195  -23.4152  -39.1011 H         1 UNK         0.0903 
     65 H65        17.5757  -25.8213  -40.3430 H         1 UNK         0.3096 
     66 H66        17.2559  -24.9678  -43.0382 H         1 UNK         0.1121 
     67 H67        15.5073  -26.9348  -42.7321 H         1 UNK         0.0849 
     68 H68        16.8896  -27.9839  -42.5975 H         1 UNK         0.0849 
     69 H69        15.0946  -28.9112  -44.7877 H         1 UNK         0.0865 
     70 H70        16.0192  -28.8842  -46.2684 H         1 UNK         0.0865 
     71 H71        15.5431  -30.8951  -43.5794 H         1 UNK         0.1346 
     72 H72        19.4967  -32.5183  -43.3339 H         1 UNK         0.1412 
     73 H73        18.7999  -28.9361  -45.5713 H         1 UNK         0.1426 
     74 H74        21.2979  -31.5815  -44.5144 H         1 UNK         0.0716 
     75 H75        21.2233  -29.8885  -44.0926 H         1 UNK         0.0716 
     76 H76        23.5042  -30.1126  -47.1541 H         1 UNK         0.0695 
     77 H77        23.3771  -30.2624  -45.4217 H         1 UNK         0.0695 
     78 H78        22.7578  -27.7317  -47.0628 H         1 UNK         0.0983 
     79 H79        22.9948  -27.7777  -44.0973 H         1 UNK         0.3095 
     80 H80        21.3165  -27.0476  -42.8288 H         1 UNK         0.0454 
     81 H81        22.8404  -25.1393  -43.3694 H         1 UNK         0.0851 
     82 H82        21.5023  -24.5453  -42.4005 H         1 UNK         0.0851 
     83 H83        21.5222  -24.2640  -44.1367 H         1 UNK         0.0851 
     84 H84        19.0951  -25.9666  -44.3654 H         1 UNK         0.2976 
     85 H85        24.0745  -25.8789  -46.2249 H         1 UNK         0.3116 
     86 H86        25.9111  -24.7249  -45.8609 H         1 UNK         0.0646 
     87 H87        27.6282  -27.2534  -46.0918 H         1 UNK         0.0847 
     88 H88        27.2125  -26.1751  -47.4223 H         1 UNK         0.0847 
     89 H89        28.1922  -25.5941  -46.0859 H         1 UNK         0.0847 
     90 H90        26.1349  -27.8297  -44.1230 H         1 UNK         0.3040 
     91 H91        26.6419  -26.5234  -41.5066 H         1 UNK         0.1015 
     92 H92        26.5736  -28.9110  -40.6874 H         1 UNK         0.0786 
     93 H93        27.7868  -28.6767  -41.9370 H         1 UNK         0.0786 
     94 H94        26.2582  -29.4581  -42.3302 H         1 UNK         0.0786 
     95 H95        25.0276  -26.2354  -39.9965 H         1 UNK         0.3172 
     96 H96        22.2780  -26.1796  -40.8795 H         1 UNK         0.0595 
     97 H97        23.5248  -25.6050  -38.1423 H         1 UNK         0.0839 
     98 H98        21.8737  -25.2328  -38.6170 H         1 UNK         0.0839 
     99 H99        23.2108  -24.4147  -39.4073 H         1 UNK         0.0839 
    100 H100       20.6202  -27.4841  -40.3879 H         1 UNK         0.2998 
    101 H101       19.4606  -29.3064  -39.9328 H         1 UNK         0.0822 
    102 H102       19.2865  -29.8918  -37.5356 H         1 UNK         0.0787 
    103 H103       19.4485  -28.1535  -37.7126 H         1 UNK         0.0787 
    104 H104       20.8306  -29.1208  -37.1982 H         1 UNK         0.0787 
    105 H105       21.8556  -29.9541  -41.3092 H         1 UNK         0.3055 
    106 H106       23.1021  -32.3030  -40.1937 H         1 UNK         0.1106 
    107 H107       24.3116  -30.6763  -41.6187 H         1 UNK         0.0828 
    108 H108       24.3653  -32.2782  -42.3326 H         1 UNK         0.0828 
    109 H109       23.2774  -31.0631  -42.9903 H         1 UNK         0.0828 
    110 H110       20.5234  -32.9658  -40.0572 H         1 UNK         0.2931 
    111 H111       19.5790  -34.5118  -42.3236 H         1 UNK         0.0412 
    112 H112       19.3384  -36.8429  -42.4655 H         1 UNK         0.3472 
    113 H113       20.3986  -37.8833  -41.5520 H         1 UNK         0.3472 
    114 H114       17.7250  -35.1970  -40.8261 H         1 UNK         0.0970 
    115 H115       18.5560  -34.5419  -39.4427 H         1 UNK         0.0970 
    116 H116       15.8714  -32.9598  -42.4284 H         1 UNK         0.0612 
    117 H117       17.2544  -33.9127  -42.9027 H         1 UNK         0.0612 
@<TRIPOS>BOND
     1    1    2 1    
     2    1   62 1    
     3    1   63 1    
     4    1   64 1    
     5    2    3 2    
     6    2    4 am   BACKBONE|DICT|INTERRES
     7    4    5 1    
     8    4   65 1    
     9    5    6 1    
    10    5   25 1    
    11    5   66 1    
    12    6    7 1    
    13    6   67 1    
    14    6   68 1    
    15    7    8 1    
    16    8    9 1    
    17    8   69 1    
    18    8   70 1    
    19    9   10 ar   
    20    9   14 ar   
    21   10   11 ar   
    22   10   71 1    
    23   11   12 ar   
    24   11   61 1    
    25   12   13 ar   
    26   12   72 1    
    27   13   14 ar   
    28   13   15 1    
    29   14   73 1    
    30   15   16 1    
    31   15   74 1    
    32   15   75 1    
    33   16   17 1    
    34   17   18 1    
    35   17   76 1    
    36   17   77 1    
    37   18   19 1    
    38   18   27 1    
    39   18   78 1    
    40   19   20 am   BACKBONE|DICT|INTERRES
    41   19   79 1    
    42   20   21 2    
    43   20   22 1    
    44   22   23 1    
    45   22   24 1    
    46   22   80 1    
    47   23   81 1    
    48   23   82 1    
    49   23   83 1    
    50   24   25 am   BACKBONE|DICT|INTERRES
    51   24   84 1    
    52   25   26 2    
    53   27   28 2    
    54   27   29 am   BACKBONE|DICT|INTERRES
    55   29   30 1    
    56   29   85 1    
    57   30   31 1    
    58   30   32 1    
    59   30   86 1    
    60   31   87 1    
    61   31   88 1    
    62   31   89 1    
    63   32   33 2    
    64   32   34 am   BACKBONE|DICT|INTERRES
    65   34   35 1    
    66   34   90 1    
    67   35   36 1    
    68   35   37 1    
    69   35   91 1    
    70   36   92 1    
    71   36   93 1    
    72   36   94 1    
    73   37   38 2    
    74   37   39 am   BACKBONE|DICT|INTERRES
    75   39   40 1    
    76   39   95 1    
    77   40   41 1    
    78   40   42 1    
    79   40   96 1    
    80   41   97 1    
    81   41   98 1    
    82   41   99 1    
    83   42   43 2    
    84   42   44 am   BACKBONE|DICT|INTERRES
    85   44   45 1    
    86   44  100 1    
    87   45   46 1    
    88   45   47 1    
    89   45  101 1    
    90   46  102 1    
    91   46  103 1    
    92   46  104 1    
    93   47   48 2    
    94   47   49 am   BACKBONE|DICT|INTERRES
    95   49   50 1    
    96   49  105 1    
    97   50   51 1    
    98   50   52 1    
    99   50  106 1    
   100   51  107 1    
   101   51  108 1    
   102   51  109 1    
   103   52   53 2    
   104   52   54 am   BACKBONE|DICT|INTERRES
   105   54   55 1    
   106   54  110 1    
   107   55   56 1    
   108   55   59 1    
   109   55  111 1    
   110   56   57 am   BACKBONE|DICT|INTERRES
   111   56   58 2    
   112   57  112 1    
   113   57  113 1    
   114   59   60 1    
   115   59  114 1    
   116   59  115 1    
   117   60   61 1    
   118   61  116 1    
   119   61  117 1    
@<TRIPOS>SUBSTRUCTURE
     1 UNK         1 GROUP             0       ****    0 ROOT    
