@<TRIPOS>MOLECULE
3R8
117   119    1
SMALL
USER_CHARGES


@<TRIPOS>ATOM
      1 CA         23.6528  -25.1765  -45.6202 C.3       0 UNK        -0.2013 
      2 C          22.3213  -25.8055  -46.0026 C.2       0 UNK         0.4866 
      3 O          22.2802  -26.6572  -46.8906 O.2       0 UNK        -0.5176 
      4 N          21.2345  -25.3958  -45.3391 N.am      1 UNK        -0.4884 
      5 CA         19.8847  -25.9190  -45.5393 C.3       1 UNK         0.0853 
      6 C6         19.2367  -25.4150  -46.8603 C.3       10 UNK        -0.0849 
      7 S7         17.8479  -26.4397  -47.4596 S.3       10 UNK        -0.2776 
      8 C8         18.6871  -27.9590  -48.0218 C.3       10 UNK         0.0316 
      9 C9         18.6393  -29.0691  -46.9766 C.ar      10 UNK        -0.0863 
     10 C10        19.8188  -29.6121  -46.4550 C.ar      10 UNK        -0.1009 
     11 C11        19.7718  -30.6730  -45.5433 C.ar      10 UNK        -0.0712 
     12 C12        18.5326  -31.1932  -45.1575 C.ar      10 UNK        -0.0894 
     13 C13        17.3461  -30.6305  -45.6352 C.ar      10 UNK        -0.0745 
     14 C14        17.4074  -29.5827  -46.5585 C.ar      10 UNK        -0.0972 
     15 C15        15.9967  -31.1520  -45.1585 C.3       10 UNK         0.0209 
     16 S16        15.0980  -29.9090  -44.1714 S.3       10 UNK        -0.2568 
     17 C17        15.9102  -30.0077  -42.5350 C.3       10 UNK        -0.0983 
     18 CA         17.2510  -29.2270  -42.4319 C.3       3 UNK         0.0876 
     19 N          17.1997  -27.8778  -43.0011 N.am      3 UNK        -0.4424 
     20 C          16.5690  -26.7975  -42.5212 C.2       2 UNK         0.4918 
     21 O          15.9097  -26.7907  -41.4814 O.2       2 UNK        -0.4875 
     22 CA         16.7000  -25.5023  -43.3522 C.3       2 UNK         0.0481 
     23 CB         16.8952  -24.2576  -42.4613 C.3       2 UNK        -0.1831 
     24 N          17.7273  -25.5746  -44.4054 N.am      2 UNK        -0.4498 
     25 C          19.0564  -25.6870  -44.2589 C.2       1 UNK         0.5027 
     26 O          19.6245  -25.6738  -43.1645 O.2       1 UNK        -0.4969 
     27 C          17.8789  -29.2795  -41.0198 C.2       3 UNK         0.5005 
     28 O          17.5717  -30.1907  -40.2494 O.2       3 UNK        -0.5279 
     29 N          18.7710  -28.3270  -40.7110 N.am      4 UNK        -0.4463 
     30 CA         19.4696  -28.2104  -39.4291 C.3       4 UNK         0.0283 
     31 CB         18.5366  -27.5854  -38.3704 C.3       4 UNK        -0.1875 
     32 C          20.7866  -27.4339  -39.5971 C.2       4 UNK         0.4949 
     33 O          21.1435  -26.6340  -38.7306 O.2       4 UNK        -0.5039 
     34 N          21.4776  -27.6569  -40.7228 N.am      5 UNK        -0.4663 
     35 CA         22.7441  -27.0012  -41.0529 C.3       5 UNK         0.0242 
     36 CB         22.9755  -27.1120  -42.5682 C.3       5 UNK        -0.1982 
     37 C          23.9340  -27.6170  -40.3002 C.2       5 UNK         0.5017 
     38 O          23.8494  -28.7504  -39.8179 O.2       5 UNK        -0.5012 
     39 N          25.0620  -26.8907  -40.3118 N.am      6 UNK        -0.4439 
     40 CA         26.3683  -27.3101  -39.7811 C.3       6 UNK         0.0297 
     41 CB         27.3463  -26.1265  -39.8630 C.3       6 UNK        -0.2006 
     42 C          26.9713  -28.5560  -40.4652 C.2       6 UNK         0.4892 
     43 O          27.8953  -29.1567  -39.9169 O.2       6 UNK        -0.5089 
     44 N          26.4138  -28.9445  -41.6211 N.am      7 UNK        -0.4243 
     45 CA         26.6535  -30.2115  -42.3161 C.3       7 UNK         0.0196 
     46 CB         26.0320  -30.1191  -43.7210 C.3       7 UNK        -0.2007 
     47 C          26.1103  -31.4507  -41.5697 C.2       7 UNK         0.5020 
     48 O          26.3954  -32.5675  -42.0021 O.2       7 UNK        -0.5147 
     49 N          25.3450  -31.2408  -40.4855 N.am      8 UNK        -0.4734 
     50 CA         24.6945  -32.2416  -39.6325 C.3       8 UNK         0.0238 
     51 CB         25.7182  -33.2042  -38.9906 C.3       8 UNK        -0.1912 
     52 C          23.5523  -32.9564  -40.3718 C.2       8 UNK         0.5038 
     53 O          23.5143  -34.1877  -40.4233 O.2       8 UNK        -0.5046 
     54 N          22.6474  -32.1478  -40.9379 N.am      9 UNK        -0.4200 
     55 CA         21.4110  -32.5771  -41.6065 C.3       9 UNK         0.0839 
     56 C          20.4728  -33.3973  -40.6773 C.2       9 UNK         0.5513 
     57 N          19.7824  -34.3922  -41.2173 N.am      9 UNK        -0.7519 
     58 O          20.3341  -33.1099  -39.4902 O.2       9 UNK        -0.4960 
     59 C59        20.6443  -31.3649  -42.1916 C.3       10 UNK        -0.0876 
     60 S60        21.5961  -30.4571  -43.4553 S.3       10 UNK        -0.2414 
     61 C61        21.0616  -31.2696  -44.9959 C.3       10 UNK         0.0169 
     62 H62        24.0537  -24.6103  -46.4603 H         1 UNK         0.0903 
     63 H63        23.5563  -24.5013  -44.7701 H         1 UNK         0.0903 
     64 H64        24.3724  -25.9518  -45.3586 H         1 UNK         0.0903 
     65 H65        21.3177  -24.7391  -44.5732 H         1 UNK         0.3096 
     66 H66        19.9884  -27.0022  -45.6015 H         1 UNK         0.1121 
     67 H67        18.8979  -24.3829  -46.7525 H         1 UNK         0.0849 
     68 H68        19.9774  -25.3875  -47.6608 H         1 UNK         0.0849 
     69 H69        18.1913  -28.3148  -48.9261 H         1 UNK         0.0865 
     70 H70        19.7152  -27.7335  -48.3108 H         1 UNK         0.0865 
     71 H71        20.7773  -29.2181  -46.7670 H         1 UNK         0.1346 
     72 H72        18.4874  -32.0255  -44.4699 H         1 UNK         0.1412 
     73 H73        16.4906  -29.1602  -46.9478 H         1 UNK         0.1426 
     74 H74        16.1065  -32.0704  -44.5798 H         1 UNK         0.0716 
     75 H75        15.3923  -31.4101  -46.0292 H         1 UNK         0.0716 
     76 H76        16.0596  -31.0601  -42.2872 H         1 UNK         0.0695 
     77 H77        15.2018  -29.6226  -41.7994 H         1 UNK         0.0695 
     78 H78        17.9757  -29.7543  -43.0461 H         1 UNK         0.0983 
     79 H79        17.6757  -27.7715  -43.8840 H         1 UNK         0.3095 
     80 H80        15.7494  -25.3857  -43.8742 H         1 UNK         0.0454 
     81 H81        17.7820  -24.3402  -41.8324 H         1 UNK         0.0851 
     82 H82        16.0426  -24.1164  -41.7961 H         1 UNK         0.0851 
     83 H83        16.9900  -23.3514  -43.0592 H         1 UNK         0.0851 
     84 H84        17.3703  -25.6265  -45.3533 H         1 UNK         0.2976 
     85 H85        18.9674  -27.6012  -41.3898 H         1 UNK         0.3116 
     86 H86        19.7505  -29.2102  -39.0909 H         1 UNK         0.0646 
     87 H87        18.2288  -26.5785  -38.6546 H         1 UNK         0.0847 
     88 H88        19.0299  -27.5174  -37.4000 H         1 UNK         0.0847 
     89 H89        17.6356  -28.1820  -38.2281 H         1 UNK         0.0847 
     90 H90        21.1515  -28.3581  -41.3707 H         1 UNK         0.3040 
     91 H91        22.6660  -25.9450  -40.7842 H         1 UNK         0.1015 
     92 H92        23.2265  -28.1286  -42.8700 H         1 UNK         0.0786 
     93 H93        23.7944  -26.4677  -42.8885 H         1 UNK         0.0786 
     94 H94        22.0896  -26.8115  -43.1245 H         1 UNK         0.0786 
     95 H95        25.0360  -25.9778  -40.7443 H         1 UNK         0.3172 
     96 H96        26.2262  -27.5635  -38.7286 H         1 UNK         0.0595 
     97 H97        27.5146  -25.8113  -40.8936 H         1 UNK         0.0839 
     98 H98        28.3175  -26.3917  -39.4422 H         1 UNK         0.0839 
     99 H99        26.9795  -25.2664  -39.3023 H         1 UNK         0.0839 
    100 H100       25.6749  -28.3676  -41.9931 H         1 UNK         0.2998 
    101 H101       27.7326  -30.3423  -42.4198 H         1 UNK         0.0822 
    102 H102       26.4402  -29.2793  -44.2837 H         1 UNK         0.0787 
    103 H103       26.2355  -31.0218  -44.2990 H         1 UNK         0.0787 
    104 H104       24.9482  -30.0011  -43.6762 H         1 UNK         0.0787 
    105 H105       25.1214  -30.2785  -40.2506 H         1 UNK         0.3055 
    106 H106       24.2243  -31.6862  -38.8188 H         1 UNK         0.1106 
    107 H107       25.2338  -33.8504  -38.2575 H         1 UNK         0.0828 
    108 H108       26.1907  -33.8540  -39.7273 H         1 UNK         0.0828 
    109 H109       26.5049  -32.6574  -38.4710 H         1 UNK         0.0828 
    110 H110       22.7807  -31.1510  -40.8540 H         1 UNK         0.2931 
    111 H111       21.7106  -33.2236  -42.4339 H         1 UNK         0.0412 
    112 H112       19.8887  -34.6364  -42.1897 H         1 UNK         0.3472 
    113 H113       19.1563  -34.9257  -40.6340 H         1 UNK         0.3472 
    114 H114       19.6905  -31.6780  -42.6137 H         1 UNK         0.0970 
    115 H115       20.3996  -30.6685  -41.3894 H         1 UNK         0.0970 
    116 H116       20.9485  -32.3419  -44.8298 H         1 UNK         0.0612 
    117 H117       21.8568  -31.1620  -45.7350 H         1 UNK         0.0612 
@<TRIPOS>BOND
     1    1    2 1    
     2    1   62 1    
     3    1   63 1    
     4    1   64 1    
     5    2    3 2    
     6    2    4 am   BACKBONE|DICT|INTERRES
     7    4    5 1    
     8    4   65 1    
     9    5    6 1    
    10    5   25 1    
    11    5   66 1    
    12    6    7 1    
    13    6   67 1    
    14    6   68 1    
    15    7    8 1    
    16    8    9 1    
    17    8   69 1    
    18    8   70 1    
    19    9   10 ar   
    20    9   14 ar   
    21   10   11 ar   
    22   10   71 1    
    23   11   12 ar   
    24   11   61 1    
    25   12   13 ar   
    26   12   72 1    
    27   13   14 ar   
    28   13   15 1    
    29   14   73 1    
    30   15   16 1    
    31   15   74 1    
    32   15   75 1    
    33   16   17 1    
    34   17   18 1    
    35   17   76 1    
    36   17   77 1    
    37   18   19 1    
    38   18   27 1    
    39   18   78 1    
    40   19   20 am   BACKBONE|DICT|INTERRES
    41   19   79 1    
    42   20   21 2    
    43   20   22 1    
    44   22   23 1    
    45   22   24 1    
    46   22   80 1    
    47   23   81 1    
    48   23   82 1    
    49   23   83 1    
    50   24   25 am   BACKBONE|DICT|INTERRES
    51   24   84 1    
    52   25   26 2    
    53   27   28 2    
    54   27   29 am   BACKBONE|DICT|INTERRES
    55   29   30 1    
    56   29   85 1    
    57   30   31 1    
    58   30   32 1    
    59   30   86 1    
    60   31   87 1    
    61   31   88 1    
    62   31   89 1    
    63   32   33 2    
    64   32   34 am   BACKBONE|DICT|INTERRES
    65   34   35 1    
    66   34   90 1    
    67   35   36 1    
    68   35   37 1    
    69   35   91 1    
    70   36   92 1    
    71   36   93 1    
    72   36   94 1    
    73   37   38 2    
    74   37   39 am   BACKBONE|DICT|INTERRES
    75   39   40 1    
    76   39   95 1    
    77   40   41 1    
    78   40   42 1    
    79   40   96 1    
    80   41   97 1    
    81   41   98 1    
    82   41   99 1    
    83   42   43 2    
    84   42   44 am   BACKBONE|DICT|INTERRES
    85   44   45 1    
    86   44  100 1    
    87   45   46 1    
    88   45   47 1    
    89   45  101 1    
    90   46  102 1    
    91   46  103 1    
    92   46  104 1    
    93   47   48 2    
    94   47   49 am   BACKBONE|DICT|INTERRES
    95   49   50 1    
    96   49  105 1    
    97   50   51 1    
    98   50   52 1    
    99   50  106 1    
   100   51  107 1    
   101   51  108 1    
   102   51  109 1    
   103   52   53 2    
   104   52   54 am   BACKBONE|DICT|INTERRES
   105   54   55 1    
   106   54  110 1    
   107   55   56 1    
   108   55   59 1    
   109   55  111 1    
   110   56   57 am   BACKBONE|DICT|INTERRES
   111   56   58 2    
   112   57  112 1    
   113   57  113 1    
   114   59   60 1    
   115   59  114 1    
   116   59  115 1    
   117   60   61 1    
   118   61  116 1    
   119   61  117 1    
@<TRIPOS>SUBSTRUCTURE
     1 UNK         1 GROUP             0       ****    0 ROOT    
