@<TRIPOS>MOLECULE
3R8
117   119    1
SMALL
USER_CHARGES


@<TRIPOS>ATOM
      1 CA         20.0692  -24.2777  -39.2894 C.3       0 UNK        -0.2013 
      2 C          19.3095  -24.8412  -40.4816 C.2       0 UNK         0.4866 
      3 O          18.1018  -24.6260  -40.5880 O.2       0 UNK        -0.5176 
      4 N          20.0067  -25.5506  -41.3762 N.am      1 UNK        -0.4884 
      5 CA         19.4563  -26.1279  -42.6036 C.3       1 UNK         0.0853 
      6 C6         19.3172  -27.6697  -42.5301 C.3       10 UNK        -0.0849 
      7 S7         18.0378  -28.2274  -41.3556 S.3       10 UNK        -0.2776 
      8 C8         16.6666  -28.6891  -42.4656 C.3       10 UNK         0.0316 
      9 C9         16.9912  -29.9173  -43.3066 C.ar      10 UNK        -0.0863 
     10 C10        17.1099  -31.1717  -42.7016 C.ar      10 UNK        -0.1009 
     11 C11        17.4201  -32.3063  -43.4587 C.ar      10 UNK        -0.0712 
     12 C12        17.5931  -32.1736  -44.8418 C.ar      10 UNK        -0.0894 
     13 C13        17.4787  -30.9262  -45.4631 C.ar      10 UNK        -0.0745 
     14 C14        17.1642  -29.8034  -44.6890 C.ar      10 UNK        -0.0972 
     15 C15        17.6708  -30.8185  -46.9739 C.3       10 UNK         0.0209 
     16 S16        18.6654  -29.3811  -47.4956 S.3       10 UNK        -0.2568 
     17 C17        20.2738  -29.7294  -46.7061 C.3       10 UNK        -0.0983 
     18 CA         21.2933  -28.5867  -46.9440 C.3       3 UNK         0.0876 
     19 N          20.7742  -27.3016  -46.4714 N.am      3 UNK        -0.4424 
     20 C          21.2582  -26.0909  -46.7751 C.2       2 UNK         0.4918 
     21 O          22.1954  -25.9006  -47.5498 O.2       2 UNK        -0.4875 
     22 CA         20.5889  -24.8869  -46.0804 C.3       2 UNK         0.0481 
     23 CB         19.6429  -24.1673  -47.0549 C.3       2 UNK        -0.1831 
     24 N          19.8498  -25.2331  -44.8565 N.am      2 UNK        -0.4498 
     25 C          20.4037  -25.7520  -43.7505 C.2       1 UNK         0.5027 
     26 O          21.6056  -26.0022  -43.6467 O.2       1 UNK        -0.4969 
     27 C          22.6704  -28.9445  -46.3384 C.2       3 UNK         0.5005 
     28 O          23.3541  -29.8031  -46.8992 O.2       3 UNK        -0.5279 
     29 N          23.0663  -28.2994  -45.2301 N.am      4 UNK        -0.4463 
     30 CA         24.3734  -28.4620  -44.5989 C.3       4 UNK         0.0283 
     31 CB         24.4002  -29.7030  -43.6848 C.3       4 UNK        -0.1875 
     32 C          24.7590  -27.1490  -43.9059 C.2       4 UNK         0.4949 
     33 O          25.2285  -26.2393  -44.5911 O.2       4 UNK        -0.5039 
     34 N          24.5770  -27.0621  -42.5824 N.am      5 UNK        -0.4663 
     35 CA         24.9372  -25.8959  -41.7773 C.3       5 UNK         0.0242 
     36 CB         26.4476  -25.9236  -41.4486 C.3       5 UNK        -0.1982 
     37 C          24.0172  -25.8358  -40.5513 C.2       5 UNK         0.5017 
     38 O          22.8114  -25.6440  -40.7169 O.2       5 UNK        -0.5012 
     39 N          24.5821  -25.9988  -39.3465 N.am      6 UNK        -0.4439 
     40 CA         23.8659  -26.0848  -38.0719 C.3       6 UNK         0.0297 
     41 CB         24.8670  -25.8956  -36.9175 C.3       6 UNK        -0.2006 
     42 C          23.1053  -27.4198  -37.9765 C.2       6 UNK         0.4892 
     43 O          23.6143  -28.3784  -37.3924 O.2       6 UNK        -0.5089 
     44 N          21.9267  -27.4426  -38.6118 N.am      7 UNK        -0.4243 
     45 CA         21.0970  -28.6025  -38.9502 C.3       7 UNK         0.0196 
     46 CB         20.7331  -29.4421  -37.7053 C.3       7 UNK        -0.2007 
     47 C          21.7260  -29.4391  -40.0822 C.2       7 UNK         0.5020 
     48 O          22.7559  -29.0608  -40.6464 O.2       7 UNK        -0.5147 
     49 N          21.0667  -30.5471  -40.4268 N.am      8 UNK        -0.4734 
     50 CA         21.4674  -31.4897  -41.4667 C.3       8 UNK         0.0238 
     51 CB         20.9405  -31.0132  -42.8357 C.3       8 UNK        -0.1912 
     52 C          20.9268  -32.8801  -41.1077 C.2       8 UNK         0.5038 
     53 O          20.1075  -33.0020  -40.1920 O.2       8 UNK        -0.5046 
     54 N          21.3918  -33.8940  -41.8476 N.am      9 UNK        -0.4200 
     55 CA         21.0017  -35.3127  -41.7335 C.3       9 UNK         0.0839 
     56 C          21.5408  -36.0377  -40.4630 C.2       9 UNK         0.5513 
     57 N          22.5015  -35.4775  -39.7377 N.am      9 UNK        -0.7519 
     58 O          21.1055  -37.1414  -40.1436 O.2       9 UNK        -0.4960 
     59 C59        19.4819  -35.5728  -41.9624 C.3       10 UNK        -0.0876 
     60 S60        18.8261  -34.7530  -43.4597 S.3       10 UNK        -0.2414 
     61 C61        17.5414  -33.6577  -42.7571 C.3       10 UNK         0.0169 
     62 H62        20.0313  -24.9755  -38.4536 H         1 UNK         0.0903 
     63 H63        21.1119  -24.0784  -39.5324 H         1 UNK         0.0903 
     64 H64        19.6220  -23.3379  -38.9663 H         1 UNK         0.0903 
     65 H65        21.0196  -25.6336  -41.2845 H         1 UNK         0.3096 
     66 H66        18.4753  -25.6976  -42.8172 H         1 UNK         0.1121 
     67 H67        20.2660  -28.1137  -42.2281 H         1 UNK         0.0849 
     68 H68        19.0981  -28.0882  -43.5132 H         1 UNK         0.0849 
     69 H69        15.7811  -28.8954  -41.8627 H         1 UNK         0.0865 
     70 H70        16.4115  -27.8363  -43.0967 H         1 UNK         0.0865 
     71 H71        16.9730  -31.2584  -41.6321 H         1 UNK         0.1346 
     72 H72        17.8183  -33.0455  -45.4400 H         1 UNK         0.1412 
     73 H73        17.0602  -28.8382  -45.1650 H         1 UNK         0.1426 
     74 H74        16.6888  -30.7516  -47.4437 H         1 UNK         0.0716 
     75 H75        18.1407  -31.7210  -47.3682 H         1 UNK         0.0716 
     76 H76        20.6506  -30.6727  -47.1066 H         1 UNK         0.0695 
     77 H77        20.1177  -29.8864  -45.6370 H         1 UNK         0.0695 
     78 H78        21.4484  -28.4958  -48.0215 H         1 UNK         0.0983 
     79 H79        19.9684  -27.3508  -45.8682 H         1 UNK         0.3095 
     80 H80        21.3838  -24.1924  -45.8009 H         1 UNK         0.0454 
     81 H81        18.8124  -24.8060  -47.3586 H         1 UNK         0.0851 
     82 H82        20.1704  -23.8678  -47.9617 H         1 UNK         0.0851 
     83 H83        19.2280  -23.2617  -46.6121 H         1 UNK         0.0851 
     84 H84        18.8544  -25.0591  -44.8720 H         1 UNK         0.2976 
     85 H85        22.4834  -27.5634  -44.8431 H         1 UNK         0.3116 
     86 H86        25.1224  -28.6150  -45.3793 H         1 UNK         0.0646 
     87 H87        23.6174  -29.6703  -42.9326 H         1 UNK         0.0847 
     88 H88        25.3555  -29.7887  -43.1654 H         1 UNK         0.0847 
     89 H89        24.2644  -30.6188  -44.2601 H         1 UNK         0.0847 
     90 H90        24.1002  -27.8097  -42.0886 H         1 UNK         0.3040 
     91 H91        24.7256  -24.9899  -42.3500 H         1 UNK         0.1015 
     92 H92        26.7371  -26.8372  -40.9277 H         1 UNK         0.0786 
     93 H93        26.7363  -25.0726  -40.8300 H         1 UNK         0.0786 
     94 H94        27.0459  -25.8648  -42.3581 H         1 UNK         0.0786 
     95 H95        25.5750  -26.1785  -39.3141 H         1 UNK         0.3172 
     96 H96        23.1400  -25.2701  -38.0208 H         1 UNK         0.0595 
     97 H97        25.6514  -26.6536  -36.9290 H         1 UNK         0.0839 
     98 H98        24.3635  -25.9638  -35.9522 H         1 UNK         0.0839 
     99 H99        25.3456  -24.9173  -36.9635 H         1 UNK         0.0839 
    100 H100       21.7222  -26.6150  -39.1571 H         1 UNK         0.2998 
    101 H101       20.1726  -28.1861  -39.3506 H         1 UNK         0.0822 
    102 H102       20.3951  -28.8087  -36.8852 H         1 UNK         0.0787 
    103 H103       19.9242  -30.1402  -37.9224 H         1 UNK         0.0787 
    104 H104       21.5792  -30.0301  -37.3483 H         1 UNK         0.0787 
    105 H105       20.2554  -30.8409  -39.8963 H         1 UNK         0.3055 
    106 H106       22.5576  -31.5530  -41.4943 H         1 UNK         0.1106 
    107 H107       21.1969  -31.7121  -43.6325 H         1 UNK         0.0828 
    108 H108       21.3564  -30.0463  -43.1133 H         1 UNK         0.0828 
    109 H109       19.8568  -30.9105  -42.8304 H         1 UNK         0.0828 
    110 H110       22.0672  -33.6956  -42.5711 H         1 UNK         0.2931 
    111 H111       21.5230  -35.8004  -42.5580 H         1 UNK         0.0412 
    112 H112       22.8777  -34.5786  -39.9923 H         1 UNK         0.3472 
    113 H113       22.8507  -35.9597  -38.9241 H         1 UNK         0.3472 
    114 H114       18.9108  -35.2750  -41.0822 H         1 UNK         0.0970 
    115 H115       19.3012  -36.6432  -42.0755 H         1 UNK         0.0970 
    116 H116       16.5796  -34.1695  -42.8028 H         1 UNK         0.0612 
    117 H117       17.7509  -33.4871  -41.7006 H         1 UNK         0.0612 
@<TRIPOS>BOND
     1    1    2 1    
     2    1   62 1    
     3    1   63 1    
     4    1   64 1    
     5    2    3 2    
     6    2    4 am   BACKBONE|DICT|INTERRES
     7    4    5 1    
     8    4   65 1    
     9    5    6 1    
    10    5   25 1    
    11    5   66 1    
    12    6    7 1    
    13    6   67 1    
    14    6   68 1    
    15    7    8 1    
    16    8    9 1    
    17    8   69 1    
    18    8   70 1    
    19    9   10 ar   
    20    9   14 ar   
    21   10   11 ar   
    22   10   71 1    
    23   11   12 ar   
    24   11   61 1    
    25   12   13 ar   
    26   12   72 1    
    27   13   14 ar   
    28   13   15 1    
    29   14   73 1    
    30   15   16 1    
    31   15   74 1    
    32   15   75 1    
    33   16   17 1    
    34   17   18 1    
    35   17   76 1    
    36   17   77 1    
    37   18   19 1    
    38   18   27 1    
    39   18   78 1    
    40   19   20 am   BACKBONE|DICT|INTERRES
    41   19   79 1    
    42   20   21 2    
    43   20   22 1    
    44   22   23 1    
    45   22   24 1    
    46   22   80 1    
    47   23   81 1    
    48   23   82 1    
    49   23   83 1    
    50   24   25 am   BACKBONE|DICT|INTERRES
    51   24   84 1    
    52   25   26 2    
    53   27   28 2    
    54   27   29 am   BACKBONE|DICT|INTERRES
    55   29   30 1    
    56   29   85 1    
    57   30   31 1    
    58   30   32 1    
    59   30   86 1    
    60   31   87 1    
    61   31   88 1    
    62   31   89 1    
    63   32   33 2    
    64   32   34 am   BACKBONE|DICT|INTERRES
    65   34   35 1    
    66   34   90 1    
    67   35   36 1    
    68   35   37 1    
    69   35   91 1    
    70   36   92 1    
    71   36   93 1    
    72   36   94 1    
    73   37   38 2    
    74   37   39 am   BACKBONE|DICT|INTERRES
    75   39   40 1    
    76   39   95 1    
    77   40   41 1    
    78   40   42 1    
    79   40   96 1    
    80   41   97 1    
    81   41   98 1    
    82   41   99 1    
    83   42   43 2    
    84   42   44 am   BACKBONE|DICT|INTERRES
    85   44   45 1    
    86   44  100 1    
    87   45   46 1    
    88   45   47 1    
    89   45  101 1    
    90   46  102 1    
    91   46  103 1    
    92   46  104 1    
    93   47   48 2    
    94   47   49 am   BACKBONE|DICT|INTERRES
    95   49   50 1    
    96   49  105 1    
    97   50   51 1    
    98   50   52 1    
    99   50  106 1    
   100   51  107 1    
   101   51  108 1    
   102   51  109 1    
   103   52   53 2    
   104   52   54 am   BACKBONE|DICT|INTERRES
   105   54   55 1    
   106   54  110 1    
   107   55   56 1    
   108   55   59 1    
   109   55  111 1    
   110   56   57 am   BACKBONE|DICT|INTERRES
   111   56   58 2    
   112   57  112 1    
   113   57  113 1    
   114   59   60 1    
   115   59  114 1    
   116   59  115 1    
   117   60   61 1    
   118   61  116 1    
   119   61  117 1    
@<TRIPOS>SUBSTRUCTURE
     1 UNK         1 GROUP             0       ****    0 ROOT    
