@<TRIPOS>MOLECULE
3R8
117   119    1
SMALL
USER_CHARGES


@<TRIPOS>ATOM
      1 CA         15.6425  -24.6747  -48.6688 C.3       0 UNK        -0.2013 
      2 C          16.7161  -25.6255  -48.1609 C.2       0 UNK         0.4866 
      3 O          17.8870  -25.4703  -48.5095 O.2       0 UNK        -0.5176 
      4 N          16.3254  -26.6146  -47.3483 N.am      1 UNK        -0.4884 
      5 CA         17.2196  -27.5765  -46.6964 C.3       1 UNK         0.0853 
      6 C6         16.4607  -28.8436  -46.2226 C.3       10 UNK        -0.0849 
      7 S7         14.9003  -28.5153  -45.3210 S.3       10 UNK        -0.2776 
      8 C8         14.7942  -29.9515  -44.2043 C.3       10 UNK         0.0316 
      9 C9         15.8827  -29.9005  -43.1461 C.ar      10 UNK        -0.0863 
     10 C10        16.9976  -30.7358  -43.2370 C.ar      10 UNK        -0.1009 
     11 C11        18.0511  -30.6171  -42.3258 C.ar      10 UNK        -0.0712 
     12 C12        17.9556  -29.6892  -41.2828 C.ar      10 UNK        -0.0894 
     13 C13        16.8319  -28.8624  -41.1702 C.ar      10 UNK        -0.0745 
     14 C14        15.7967  -28.9801  -42.1008 C.ar      10 UNK        -0.0972 
     15 C15        16.7248  -27.8191  -40.0686 C.3       10 UNK         0.0209 
     16 S16        16.8892  -26.1371  -40.7524 S.3       10 UNK        -0.2568 
     17 C17        18.5676  -25.6723  -40.2246 C.3       10 UNK        -0.0983 
     18 CA         19.6989  -26.4302  -40.9600 C.3       3 UNK         0.0876 
     19 N          19.6435  -26.2880  -42.4229 N.am      3 UNK        -0.4424 
     20 C          20.4157  -26.9786  -43.2728 C.2       2 UNK         0.4918 
     21 O          21.1935  -27.8658  -42.9187 O.2       2 UNK        -0.4875 
     22 CA         20.3714  -26.5525  -44.7483 C.3       2 UNK         0.0481 
     23 CB         21.7351  -26.7636  -45.4330 C.3       2 UNK        -0.1831 
     24 N          19.3461  -27.2605  -45.5140 N.am      2 UNK        -0.4498 
     25 C          18.0586  -26.8965  -45.5874 C.2       1 UNK         0.5027 
     26 O          17.5547  -26.0246  -44.8736 O.2       1 UNK        -0.4969 
     27 C          21.0641  -26.0118  -40.3759 C.2       3 UNK         0.5005 
     28 O          21.5172  -26.6166  -39.4037 O.2       3 UNK        -0.5279 
     29 N          21.7129  -25.0127  -40.9950 N.am      4 UNK        -0.4463 
     30 CA         23.0311  -24.4905  -40.6143 C.3       4 UNK         0.0283 
     31 CB         23.3467  -23.2507  -41.4664 C.3       4 UNK        -0.1875 
     32 C          24.1740  -25.5180  -40.7229 C.2       4 UNK         0.4949 
     33 O          25.1852  -25.3663  -40.0379 O.2       4 UNK        -0.5039 
     34 N          23.9900  -26.5472  -41.5607 N.am      5 UNK        -0.4663 
     35 CA         24.9109  -27.6744  -41.7149 C.3       5 UNK         0.0242 
     36 CB         24.8291  -28.1780  -43.1628 C.3       5 UNK        -0.1982 
     37 C          24.6539  -28.8096  -40.7034 C.2       5 UNK         0.5017 
     38 O          25.3945  -29.7940  -40.7189 O.2       5 UNK        -0.5012 
     39 N          23.6336  -28.6639  -39.8422 N.am      6 UNK        -0.4439 
     40 CA         23.2622  -29.5648  -38.7473 C.3       6 UNK         0.0297 
     41 CB         24.2878  -29.4449  -37.5961 C.3       6 UNK        -0.2006 
     42 C          23.0109  -31.0076  -39.2299 C.2       6 UNK         0.4892 
     43 O          22.2445  -31.1986  -40.1745 O.2       6 UNK        -0.5089 
     44 N          23.6511  -31.9906  -38.5818 N.am      7 UNK        -0.4243 
     45 CA         23.5275  -33.4198  -38.8782 C.3       7 UNK         0.0196 
     46 CB         24.1947  -34.2255  -37.7515 C.3       7 UNK        -0.2007 
     47 C          24.0995  -33.8350  -40.2456 C.2       7 UNK         0.5020 
     48 O          23.6674  -34.8557  -40.7820 O.2       7 UNK        -0.5147 
     49 N          25.0505  -33.0600  -40.7895 N.am      8 UNK        -0.4734 
     50 CA         25.6118  -33.2867  -42.1257 C.3       8 UNK         0.0238 
     51 CB         26.9390  -32.5255  -42.2752 C.3       8 UNK        -0.1912 
     52 C          24.6264  -32.8934  -43.2386 C.2       8 UNK         0.5038 
     53 O          24.5685  -33.5792  -44.2602 O.2       8 UNK        -0.5046 
     54 N          23.8550  -31.8243  -42.9968 N.am      9 UNK        -0.4200 
     55 CA         22.8141  -31.2823  -43.8802 C.3       9 UNK         0.0839 
     56 C          23.3427  -30.8035  -45.2705 C.2       9 UNK         0.5513 
     57 N          22.4662  -30.5953  -46.2435 N.am      9 UNK        -0.7519 
     58 O          24.5341  -30.5759  -45.4692 O.2       9 UNK        -0.4960 
     59 C59        21.5821  -32.2314  -43.9552 C.3       10 UNK        -0.0876 
     60 S60        20.0211  -31.3085  -44.1493 S.3       10 UNK        -0.2414 
     61 C61        19.2985  -31.4757  -42.4844 C.3       10 UNK         0.0169 
     62 H62        15.8641  -23.6559  -48.3523 H         1 UNK         0.0903 
     63 H63        15.6083  -24.6940  -49.7577 H         1 UNK         0.0903 
     64 H64        14.6536  -24.9386  -48.2939 H         1 UNK         0.0903 
     65 H65        15.3580  -26.6797  -47.0621 H         1 UNK         0.3096 
     66 H66        17.9261  -27.9069  -47.4618 H         1 UNK         0.1121 
     67 H67        16.2007  -29.4465  -47.0940 H         1 UNK         0.0849 
     68 H68        17.1228  -29.4735  -45.6287 H         1 UNK         0.0849 
     69 H69        14.8533  -30.8727  -44.7862 H         1 UNK         0.0865 
     70 H70        13.8165  -29.9564  -43.7202 H         1 UNK         0.0865 
     71 H71        17.0710  -31.4486  -44.0471 H         1 UNK         0.1346 
     72 H72        18.7634  -29.6046  -40.5695 H         1 UNK         0.1412 
     73 H73        14.9388  -28.3244  -42.0338 H         1 UNK         0.1426 
     74 H74        17.4677  -27.9923  -39.2886 H         1 UNK         0.0716 
     75 H75        15.7506  -27.9081  -39.5858 H         1 UNK         0.0716 
     76 H76        18.6357  -25.8299  -39.1460 H         1 UNK         0.0695 
     77 H77        18.6715  -24.5962  -40.3772 H         1 UNK         0.0695 
     78 H78        19.5945  -27.4918  -40.7395 H         1 UNK         0.0983 
     79 H79        18.9720  -25.6285  -42.7931 H         1 UNK         0.3095 
     80 H80        20.1599  -25.4813  -44.7819 H         1 UNK         0.0454 
     81 H81        21.7330  -26.3737  -46.4510 H         1 UNK         0.0851 
     82 H82        22.0087  -27.8183  -45.4793 H         1 UNK         0.0851 
     83 H83        22.5292  -26.2470  -44.8922 H         1 UNK         0.0851 
     84 H84        19.6747  -28.0179  -46.0952 H         1 UNK         0.2976 
     85 H85        21.2616  -24.5711  -41.7832 H         1 UNK         0.3116 
     86 H86        22.9729  -24.1816  -39.5685 H         1 UNK         0.0646 
     87 H87        24.3094  -22.8200  -41.1868 H         1 UNK         0.0847 
     88 H88        22.5963  -22.4716  -41.3307 H         1 UNK         0.0847 
     89 H89        23.3956  -23.4915  -42.5291 H         1 UNK         0.0847 
     90 H90        23.1158  -26.6111  -42.0648 H         1 UNK         0.3040 
     91 H91        25.9334  -27.3322  -41.5398 H         1 UNK         0.1015 
     92 H92        25.1596  -27.4134  -43.8658 H         1 UNK         0.0786 
     93 H93        23.8116  -28.4556  -43.4324 H         1 UNK         0.0786 
     94 H94        25.4641  -29.0516  -43.3169 H         1 UNK         0.0786 
     95 H95        23.0503  -27.8372  -39.9235 H         1 UNK         0.3172 
     96 H96        22.3035  -29.2040  -38.3721 H         1 UNK         0.0595 
     97 H97        25.2780  -29.7978  -37.8878 H         1 UNK         0.0839 
     98 H98        23.9720  -30.0095  -36.7179 H         1 UNK         0.0839 
     99 H99        24.3934  -28.4073  -37.2784 H         1 UNK         0.0839 
    100 H100       24.2706  -31.7375  -37.8258 H         1 UNK         0.2998 
    101 H101       22.4629  -33.6640  -38.8886 H         1 UNK         0.0822 
    102 H102       25.2610  -34.0079  -37.6762 H         1 UNK         0.0787 
    103 H103       23.7376  -34.0120  -36.7850 H         1 UNK         0.0787 
    104 H104       24.0930  -35.2979  -37.9252 H         1 UNK         0.0787 
    105 H105       25.3359  -32.2187  -40.3048 H         1 UNK         0.3055 
    106 H106       25.8219  -34.3535  -42.2346 H         1 UNK         0.1106 
    107 H107       27.3963  -32.7324  -43.2438 H         1 UNK         0.0828 
    108 H108       26.8008  -31.4463  -42.2086 H         1 UNK         0.0828 
    109 H109       27.6560  -32.8211  -41.5092 H         1 UNK         0.0828 
    110 H110       23.9840  -31.3358  -42.1214 H         1 UNK         0.2931 
    111 H111       22.5005  -30.3736  -43.3659 H         1 UNK         0.0412 
    112 H112       21.4847  -30.7661  -46.0826 H         1 UNK         0.3472 
    113 H113       22.7895  -30.2777  -47.1436 H         1 UNK         0.3472 
    114 H114       21.6869  -32.9509  -44.7693 H         1 UNK         0.0970 
    115 H115       21.5103  -32.8321  -43.0466 H         1 UNK         0.0970 
    116 H116       19.0454  -32.5203  -42.2994 H         1 UNK         0.0612 
    117 H117       20.0515  -31.1943  -41.7469 H         1 UNK         0.0612 
@<TRIPOS>BOND
     1    1    2 1    
     2    1   62 1    
     3    1   63 1    
     4    1   64 1    
     5    2    3 2    
     6    2    4 am   BACKBONE|DICT|INTERRES
     7    4    5 1    
     8    4   65 1    
     9    5    6 1    
    10    5   25 1    
    11    5   66 1    
    12    6    7 1    
    13    6   67 1    
    14    6   68 1    
    15    7    8 1    
    16    8    9 1    
    17    8   69 1    
    18    8   70 1    
    19    9   10 ar   
    20    9   14 ar   
    21   10   11 ar   
    22   10   71 1    
    23   11   12 ar   
    24   11   61 1    
    25   12   13 ar   
    26   12   72 1    
    27   13   14 ar   
    28   13   15 1    
    29   14   73 1    
    30   15   16 1    
    31   15   74 1    
    32   15   75 1    
    33   16   17 1    
    34   17   18 1    
    35   17   76 1    
    36   17   77 1    
    37   18   19 1    
    38   18   27 1    
    39   18   78 1    
    40   19   20 am   BACKBONE|DICT|INTERRES
    41   19   79 1    
    42   20   21 2    
    43   20   22 1    
    44   22   23 1    
    45   22   24 1    
    46   22   80 1    
    47   23   81 1    
    48   23   82 1    
    49   23   83 1    
    50   24   25 am   BACKBONE|DICT|INTERRES
    51   24   84 1    
    52   25   26 2    
    53   27   28 2    
    54   27   29 am   BACKBONE|DICT|INTERRES
    55   29   30 1    
    56   29   85 1    
    57   30   31 1    
    58   30   32 1    
    59   30   86 1    
    60   31   87 1    
    61   31   88 1    
    62   31   89 1    
    63   32   33 2    
    64   32   34 am   BACKBONE|DICT|INTERRES
    65   34   35 1    
    66   34   90 1    
    67   35   36 1    
    68   35   37 1    
    69   35   91 1    
    70   36   92 1    
    71   36   93 1    
    72   36   94 1    
    73   37   38 2    
    74   37   39 am   BACKBONE|DICT|INTERRES
    75   39   40 1    
    76   39   95 1    
    77   40   41 1    
    78   40   42 1    
    79   40   96 1    
    80   41   97 1    
    81   41   98 1    
    82   41   99 1    
    83   42   43 2    
    84   42   44 am   BACKBONE|DICT|INTERRES
    85   44   45 1    
    86   44  100 1    
    87   45   46 1    
    88   45   47 1    
    89   45  101 1    
    90   46  102 1    
    91   46  103 1    
    92   46  104 1    
    93   47   48 2    
    94   47   49 am   BACKBONE|DICT|INTERRES
    95   49   50 1    
    96   49  105 1    
    97   50   51 1    
    98   50   52 1    
    99   50  106 1    
   100   51  107 1    
   101   51  108 1    
   102   51  109 1    
   103   52   53 2    
   104   52   54 am   BACKBONE|DICT|INTERRES
   105   54   55 1    
   106   54  110 1    
   107   55   56 1    
   108   55   59 1    
   109   55  111 1    
   110   56   57 am   BACKBONE|DICT|INTERRES
   111   56   58 2    
   112   57  112 1    
   113   57  113 1    
   114   59   60 1    
   115   59  114 1    
   116   59  115 1    
   117   60   61 1    
   118   61  116 1    
   119   61  117 1    
@<TRIPOS>SUBSTRUCTURE
     1 UNK         1 GROUP             0       ****    0 ROOT    
