@<TRIPOS>MOLECULE
3R8
117   119    1
SMALL
USER_CHARGES


@<TRIPOS>ATOM
      1 CA         14.0885  -22.9698  -46.6577 C.3       0 UNK        -0.2013 
      2 C          15.4780  -23.5877  -46.6159 C.2       0 UNK         0.4866 
      3 O          16.4521  -22.9316  -46.9852 O.2       0 UNK        -0.5176 
      4 N          15.5788  -24.8456  -46.1676 N.am      1 UNK        -0.4884 
      5 CA         16.8364  -25.5957  -46.0465 C.3       1 UNK         0.0853 
      6 C6         16.5881  -27.1279  -46.0449 C.3       10 UNK        -0.0849 
      7 S7         15.4922  -27.7115  -44.6986 S.3       10 UNK        -0.2776 
      8 C8         15.9415  -29.4742  -44.5629 C.3       10 UNK         0.0316 
      9 C9         17.2614  -29.6894  -43.8321 C.ar      10 UNK        -0.0863 
     10 C10        18.4464  -29.8548  -44.5542 C.ar      10 UNK        -0.1009 
     11 C11        19.6646  -30.0534  -43.8992 C.ar      10 UNK        -0.0712 
     12 C12        19.6835  -30.1085  -42.4997 C.ar      10 UNK        -0.0894 
     13 C13        18.5076  -29.9430  -41.7621 C.ar      10 UNK        -0.0745 
     14 C14        17.2982  -29.7376  -42.4344 C.ar      10 UNK        -0.0972 
     15 C15        18.5558  -29.9524  -40.2391 C.3       10 UNK         0.0209 
     16 S16        18.5059  -28.2694  -39.5345 S.3       10 UNK        -0.2568 
     17 C17        20.0880  -27.5617  -40.1036 C.3       10 UNK        -0.0983 
     18 CA         20.0063  -26.8680  -41.4928 C.3       3 UNK         0.0876 
     19 N          19.3164  -25.5821  -41.5104 N.am      3 UNK        -0.4424 
     20 C          18.0280  -25.4347  -41.8338 C.2       2 UNK         0.4918 
     21 O          17.1714  -26.3084  -41.7039 O.2       2 UNK        -0.4875 
     22 CA         17.6272  -24.1260  -42.5426 C.3       2 UNK         0.0481 
     23 CB         18.7553  -23.0738  -42.6526 C.3       2 UNK        -0.1831 
     24 N          17.0902  -24.4489  -43.8719 N.am      2 UNK        -0.4498 
     25 C          17.6971  -25.1646  -44.8380 C.2       1 UNK         0.5027 
     26 O          18.8782  -25.5197  -44.7938 O.2       1 UNK        -0.4969 
     27 C          21.3898  -26.5923  -42.0996 C.2       3 UNK         0.5005 
     28 O          22.3634  -26.4613  -41.3567 O.2       3 UNK        -0.5279 
     29 N          21.4327  -26.4327  -43.4321 N.am      4 UNK        -0.4463 
     30 CA         22.5621  -25.9289  -44.2298 C.3       4 UNK         0.0283 
     31 CB         22.2362  -26.0834  -45.7245 C.3       4 UNK        -0.1875 
     32 C          23.9606  -26.5077  -43.9328 C.2       4 UNK         0.4949 
     33 O          24.9363  -25.7641  -44.0419 O.2       4 UNK        -0.5039 
     34 N          24.0456  -27.7917  -43.5599 N.am      5 UNK        -0.4663 
     35 CA         25.2917  -28.4516  -43.1492 C.3       5 UNK         0.0242 
     36 CB         25.7420  -29.4444  -44.2371 C.3       5 UNK        -0.1982 
     37 C          25.1708  -29.1014  -41.7586 C.2       5 UNK         0.5017 
     38 O          25.9584  -29.9941  -41.4392 O.2       5 UNK        -0.5012 
     39 N          24.2128  -28.6302  -40.9440 N.am      6 UNK        -0.4439 
     40 CA         23.9512  -29.0359  -39.5593 C.3       6 UNK         0.0297 
     41 CB         25.0292  -28.4375  -38.6262 C.3       6 UNK        -0.2006 
     42 C          23.7585  -30.5597  -39.4132 C.2       6 UNK         0.4892 
     43 O          22.9085  -31.1312  -40.0989 O.2       6 UNK        -0.5089 
     44 N          24.5546  -31.1932  -38.5413 N.am      7 UNK        -0.4243 
     45 CA         24.5201  -32.6222  -38.2156 C.3       7 UNK         0.0196 
     46 CB         25.4774  -32.8842  -37.0409 C.3       7 UNK        -0.2007 
     47 C          24.8343  -33.5721  -39.3875 C.2       7 UNK         0.5020 
     48 O          24.5551  -34.7656  -39.2706 O.2       7 UNK        -0.5147 
     49 N          25.3892  -33.0536  -40.4933 N.am      8 UNK        -0.4734 
     50 CA         25.6322  -33.8178  -41.7210 C.3       8 UNK         0.0238 
     51 CB         26.6233  -33.0523  -42.6117 C.3       8 UNK        -0.1912 
     52 C          24.3469  -34.1432  -42.5066 C.2       8 UNK         0.5038 
     53 O          24.3938  -35.0152  -43.3759 O.2       8 UNK        -0.5046 
     54 N          23.2399  -33.4515  -42.2070 N.am      9 UNK        -0.4200 
     55 CA         21.9432  -33.6117  -42.8810 C.3       9 UNK         0.0839 
     56 C          20.7096  -33.4643  -41.9502 C.2       9 UNK         0.5513 
     57 N          20.8249  -32.9001  -40.7546 N.am      9 UNK        -0.7519 
     58 O          19.6251  -33.9183  -42.3054 O.2       9 UNK        -0.4960 
     59 C59        21.8390  -32.7624  -44.1773 C.3       10 UNK        -0.0876 
     60 S60        22.3259  -31.0145  -43.9569 S.3       10 UNK        -0.2414 
     61 C61        20.9379  -30.1330  -44.7375 C.3       10 UNK         0.0169 
     62 H62        13.3235  -23.6610  -46.3043 H         1 UNK         0.0903 
     63 H63        14.0552  -22.0782  -46.0322 H         1 UNK         0.0903 
     64 H64        13.8377  -22.6800  -47.6777 H         1 UNK         0.0903 
     65 H65        14.7501  -25.3458  -45.8745 H         1 UNK         0.3096 
     66 H66        17.4397  -25.3707  -46.9294 H         1 UNK         0.1121 
     67 H67        16.1400  -27.4249  -46.9943 H         1 UNK         0.0849 
     68 H68        17.5412  -27.6549  -45.9963 H         1 UNK         0.0849 
     69 H69        15.1458  -29.9955  -44.0287 H         1 UNK         0.0865 
     70 H70        15.9749  -29.9203  -45.5582 H         1 UNK         0.0865 
     71 H71        18.4235  -29.8136  -45.6346 H         1 UNK         0.1346 
     72 H72        20.6166  -30.2451  -41.9711 H         1 UNK         0.1412 
     73 H73        16.3886  -29.5932  -41.8673 H         1 UNK         0.1426 
     74 H74        19.4511  -30.4642  -39.8831 H         1 UNK         0.0716 
     75 H75        17.7074  -30.5203  -39.8549 H         1 UNK         0.0716 
     76 H76        20.8154  -28.3746  -40.1266 H         1 UNK         0.0695 
     77 H77        20.4441  -26.8589  -39.3485 H         1 UNK         0.0695 
     78 H78        19.4931  -27.5255  -42.1924 H         1 UNK         0.0983 
     79 H79        19.9263  -24.7864  -41.6341 H         1 UNK         0.3095 
     80 H80        16.8115  -23.6897  -41.9646 H         1 UNK         0.0454 
     81 H81        19.1171  -22.7772  -41.6673 H         1 UNK         0.0851 
     82 H82        18.3923  -22.1689  -43.1399 H         1 UNK         0.0851 
     83 H83        19.6077  -23.4322  -43.2310 H         1 UNK         0.0851 
     84 H84        16.1100  -24.2474  -44.0075 H         1 UNK         0.2976 
     85 H85        20.5500  -26.4801  -43.9325 H         1 UNK         0.3116 
     86 H86        22.6217  -24.8599  -44.0163 H         1 UNK         0.0646 
     87 H87        21.3295  -25.5418  -45.9941 H         1 UNK         0.0847 
     88 H88        22.0999  -27.1280  -46.0040 H         1 UNK         0.0847 
     89 H89        23.0409  -25.6848  -46.3441 H         1 UNK         0.0847 
     90 H90        23.2011  -28.3440  -43.4997 H         1 UNK         0.3040 
     91 H91        26.0869  -27.7112  -43.0396 H         1 UNK         0.1015 
     92 H92        26.7243  -29.8581  -44.0054 H         1 UNK         0.0786 
     93 H93        25.8210  -28.9573  -45.2089 H         1 UNK         0.0786 
     94 H94        25.0536  -30.2816  -44.3370 H         1 UNK         0.0786 
     95 H95        23.6269  -27.8696  -41.2822 H         1 UNK         0.3172 
     96 H96        22.9981  -28.5852  -39.2831 H         1 UNK         0.0595 
     97 H97        26.0247  -28.8284  -38.8412 H         1 UNK         0.0839 
     98 H98        24.8059  -28.6370  -37.5772 H         1 UNK         0.0839 
     99 H99        25.0757  -27.3537  -38.7345 H         1 UNK         0.0839 
    100 H100       25.2427  -30.6411  -38.0503 H         1 UNK         0.2998 
    101 H101       23.5048  -32.8549  -37.8875 H         1 UNK         0.0822 
    102 H102       25.2057  -32.2932  -36.1660 H         1 UNK         0.0787 
    103 H103       25.4512  -33.9326  -36.7398 H         1 UNK         0.0787 
    104 H104       26.5095  -32.6464  -37.3019 H         1 UNK         0.0787 
    105 H105       25.5799  -32.0584  -40.5295 H         1 UNK         0.3055 
    106 H106       26.0905  -34.7702  -41.4445 H         1 UNK         0.1106 
    107 H107       27.5368  -32.8009  -42.0726 H         1 UNK         0.0828 
    108 H108       26.9110  -33.6506  -43.4772 H         1 UNK         0.0828 
    109 H109       26.1891  -32.1275  -42.9898 H         1 UNK         0.0828 
    110 H110       23.2819  -32.7376  -41.4904 H         1 UNK         0.2931 
    111 H111       21.8822  -34.6552  -43.1969 H         1 UNK         0.0412 
    112 H112       20.0093  -32.8601  -40.1663 H         1 UNK         0.3472 
    113 H113       21.6659  -32.4035  -40.4751 H         1 UNK         0.3472 
    114 H114       22.4981  -33.1870  -44.9357 H         1 UNK         0.0970 
    115 H115       20.8343  -32.8239  -44.6000 H         1 UNK         0.0970 
    116 H116       20.7297  -30.5954  -45.7037 H         1 UNK         0.0612 
    117 H117       21.2624  -29.1145  -44.9484 H         1 UNK         0.0612 
@<TRIPOS>BOND
     1    1    2 1    
     2    1   62 1    
     3    1   63 1    
     4    1   64 1    
     5    2    3 2    
     6    2    4 am   BACKBONE|DICT|INTERRES
     7    4    5 1    
     8    4   65 1    
     9    5    6 1    
    10    5   25 1    
    11    5   66 1    
    12    6    7 1    
    13    6   67 1    
    14    6   68 1    
    15    7    8 1    
    16    8    9 1    
    17    8   69 1    
    18    8   70 1    
    19    9   10 ar   
    20    9   14 ar   
    21   10   11 ar   
    22   10   71 1    
    23   11   12 ar   
    24   11   61 1    
    25   12   13 ar   
    26   12   72 1    
    27   13   14 ar   
    28   13   15 1    
    29   14   73 1    
    30   15   16 1    
    31   15   74 1    
    32   15   75 1    
    33   16   17 1    
    34   17   18 1    
    35   17   76 1    
    36   17   77 1    
    37   18   19 1    
    38   18   27 1    
    39   18   78 1    
    40   19   20 am   BACKBONE|DICT|INTERRES
    41   19   79 1    
    42   20   21 2    
    43   20   22 1    
    44   22   23 1    
    45   22   24 1    
    46   22   80 1    
    47   23   81 1    
    48   23   82 1    
    49   23   83 1    
    50   24   25 am   BACKBONE|DICT|INTERRES
    51   24   84 1    
    52   25   26 2    
    53   27   28 2    
    54   27   29 am   BACKBONE|DICT|INTERRES
    55   29   30 1    
    56   29   85 1    
    57   30   31 1    
    58   30   32 1    
    59   30   86 1    
    60   31   87 1    
    61   31   88 1    
    62   31   89 1    
    63   32   33 2    
    64   32   34 am   BACKBONE|DICT|INTERRES
    65   34   35 1    
    66   34   90 1    
    67   35   36 1    
    68   35   37 1    
    69   35   91 1    
    70   36   92 1    
    71   36   93 1    
    72   36   94 1    
    73   37   38 2    
    74   37   39 am   BACKBONE|DICT|INTERRES
    75   39   40 1    
    76   39   95 1    
    77   40   41 1    
    78   40   42 1    
    79   40   96 1    
    80   41   97 1    
    81   41   98 1    
    82   41   99 1    
    83   42   43 2    
    84   42   44 am   BACKBONE|DICT|INTERRES
    85   44   45 1    
    86   44  100 1    
    87   45   46 1    
    88   45   47 1    
    89   45  101 1    
    90   46  102 1    
    91   46  103 1    
    92   46  104 1    
    93   47   48 2    
    94   47   49 am   BACKBONE|DICT|INTERRES
    95   49   50 1    
    96   49  105 1    
    97   50   51 1    
    98   50   52 1    
    99   50  106 1    
   100   51  107 1    
   101   51  108 1    
   102   51  109 1    
   103   52   53 2    
   104   52   54 am   BACKBONE|DICT|INTERRES
   105   54   55 1    
   106   54  110 1    
   107   55   56 1    
   108   55   59 1    
   109   55  111 1    
   110   56   57 am   BACKBONE|DICT|INTERRES
   111   56   58 2    
   112   57  112 1    
   113   57  113 1    
   114   59   60 1    
   115   59  114 1    
   116   59  115 1    
   117   60   61 1    
   118   61  116 1    
   119   61  117 1    
@<TRIPOS>SUBSTRUCTURE
     1 UNK         1 GROUP             0       ****    0 ROOT    
