@<TRIPOS>MOLECULE
3R8
117   119    1
SMALL
USER_CHARGES


@<TRIPOS>ATOM
      1 CA         22.1497  -22.0314  -48.2281 C.3       0 UNK        -0.2013 
      2 C          21.9000  -23.1710  -47.2515 C.2       0 UNK         0.4866 
      3 O          22.5172  -23.2106  -46.1872 O.2       0 UNK        -0.5176 
      4 N          21.0063  -24.1026  -47.6082 N.am      1 UNK        -0.4884 
      5 CA         20.5877  -25.2271  -46.7648 C.3       1 UNK         0.0853 
      6 C6         19.9673  -26.3697  -47.6294 C.3       10 UNK        -0.0849 
      7 S7         18.7476  -27.4816  -46.8411 S.3       10 UNK        -0.2776 
      8 C8         19.8188  -28.6952  -45.9905 C.3       10 UNK         0.0316 
      9 C9         19.0942  -29.6406  -45.0255 C.ar      10 UNK        -0.0863 
     10 C10        19.8109  -30.7063  -44.4696 C.ar      10 UNK        -0.1009 
     11 C11        19.2034  -31.5937  -43.5742 C.ar      10 UNK        -0.0712 
     12 C12        17.8677  -31.4009  -43.2139 C.ar      10 UNK        -0.0894 
     13 C13        17.1418  -30.3308  -43.7402 C.ar      10 UNK        -0.0745 
     14 C14        17.7532  -29.4676  -44.6537 C.ar      10 UNK        -0.0972 
     15 C15        15.7076  -30.0814  -43.2955 C.3       10 UNK         0.0209 
     16 S16        15.5186  -28.4539  -42.4954 S.3       10 UNK        -0.2568 
     17 C17        16.5775  -28.6193  -41.0150 C.3       10 UNK        -0.0983 
     18 CA         18.0509  -28.1795  -41.2373 C.3       3 UNK         0.0876 
     19 N          18.1582  -26.8758  -41.8981 N.am      3 UNK        -0.4424 
     20 C          19.2920  -26.3191  -42.3381 C.2       2 UNK         0.4918 
     21 O          20.4233  -26.7731  -42.1318 O.2       2 UNK        -0.4875 
     22 CA         19.1422  -25.0590  -43.1954 C.3       2 UNK         0.0481 
     23 CB         19.6597  -23.8067  -42.4689 C.3       2 UNK        -0.1831 
     24 N          19.9061  -25.2892  -44.4133 N.am      2 UNK        -0.4498 
     25 C          19.6973  -24.7187  -45.6047 C.2       1 UNK         0.5027 
     26 O          18.8432  -23.8532  -45.8162 O.2       1 UNK        -0.4969 
     27 C          18.8335  -28.2139  -39.9121 C.2       3 UNK         0.5005 
     28 O          18.5485  -27.4063  -39.0252 O.2       3 UNK        -0.5279 
     29 N          19.8097  -29.1305  -39.8167 N.am      4 UNK        -0.4463 
     30 CA         20.7234  -29.3489  -38.6851 C.3       4 UNK         0.0283 
     31 CB         19.9509  -29.7397  -37.4072 C.3       4 UNK        -0.1875 
     32 C          21.7204  -28.1981  -38.4335 C.2       4 UNK         0.4949 
     33 O          22.4333  -28.2392  -37.4298 O.2       4 UNK        -0.5039 
     34 N          21.7724  -27.2087  -39.3351 N.am      5 UNK        -0.4663 
     35 CA         22.6526  -26.0438  -39.2517 C.3       5 UNK         0.0242 
     36 CB         21.8069  -24.7602  -39.2652 C.3       5 UNK        -0.1982 
     37 C          23.6720  -26.0513  -40.3954 C.2       5 UNK         0.5017 
     38 O          24.8659  -25.9016  -40.1335 O.2       5 UNK        -0.5012 
     39 N          23.1976  -26.2424  -41.6354 N.am      6 UNK        -0.4439 
     40 CA         24.0496  -26.3492  -42.8236 C.3       6 UNK         0.0297 
     41 CB         23.2273  -26.0224  -44.0772 C.3       6 UNK        -0.2006 
     42 C          24.6849  -27.7418  -42.9545 C.2       6 UNK         0.4892 
     43 O          25.8273  -27.8488  -43.4016 O.2       6 UNK        -0.5089 
     44 N          23.9352  -28.7747  -42.5568 N.am      7 UNK        -0.4243 
     45 CA         24.3392  -30.1735  -42.5329 C.3       7 UNK         0.0196 
     46 CB         24.2421  -30.7830  -43.9440 C.3       7 UNK        -0.2007 
     47 C          23.4151  -30.9065  -41.5588 C.2       7 UNK         0.5020 
     48 O          22.2717  -30.4825  -41.3720 O.2       7 UNK        -0.5147 
     49 N          23.9196  -31.9985  -40.9746 N.am      8 UNK        -0.4734 
     50 CA         23.1744  -32.8635  -40.0531 C.3       8 UNK         0.0238 
     51 CB         24.1266  -33.3467  -38.9460 C.3       8 UNK        -0.1912 
     52 C          22.5136  -34.0644  -40.7540 C.2       8 UNK         0.5038 
     53 O          21.6805  -34.7242  -40.1326 O.2       8 UNK        -0.5046 
     54 N          22.8944  -34.3329  -42.0133 N.am      9 UNK        -0.4200 
     55 CA         22.4385  -35.4666  -42.8419 C.3       9 UNK         0.0839 
     56 C          22.8824  -36.8682  -42.3157 C.2       9 UNK         0.5513 
     57 N          23.8949  -36.9625  -41.4616 N.am      9 UNK        -0.7519 
     58 O          22.3284  -37.8916  -42.7095 O.2       9 UNK        -0.4960 
     59 C59        20.9198  -35.4032  -43.1842 C.3       10 UNK        -0.0876 
     60 S60        20.4717  -33.9712  -44.2237 S.3       10 UNK        -0.2414 
     61 C61        19.9926  -32.7449  -42.9701 C.3       10 UNK         0.0169 
     62 H62        21.5496  -22.1293  -49.1326 H         1 UNK         0.0903 
     63 H63        21.9056  -21.0777  -47.7608 H         1 UNK         0.0903 
     64 H64        23.1997  -22.0098  -48.5187 H         1 UNK         0.0903 
     65 H65        20.5047  -23.9956  -48.4786 H         1 UNK         0.3096 
     66 H66        21.4938  -25.6360  -46.3143 H         1 UNK         0.1121 
     67 H67        20.7634  -26.9725  -48.0696 H         1 UNK         0.0849 
     68 H68        19.4408  -25.9330  -48.4798 H         1 UNK         0.0849 
     69 H69        20.3388  -29.2851  -46.7470 H         1 UNK         0.0865 
     70 H70        20.5860  -28.1604  -45.4303 H         1 UNK         0.0865 
     71 H71        20.8483  -30.8536  -44.7362 H         1 UNK         0.1346 
     72 H72        17.3982  -32.0735  -42.5089 H         1 UNK         0.1412 
     73 H73        17.1720  -28.6434  -45.0406 H         1 UNK         0.1426 
     74 H74        15.3644  -30.8591  -42.6113 H         1 UNK         0.0716 
     75 H75        15.0530  -30.1255  -44.1669 H         1 UNK         0.0716 
     76 H76        16.5377  -29.6526  -40.6649 H         1 UNK         0.0695 
     77 H77        16.1174  -28.0178  -40.2284 H         1 UNK         0.0695 
     78 H78        18.5193  -28.8969  -41.9117 H         1 UNK         0.0983 
     79 H79        17.2783  -26.4279  -42.1080 H         1 UNK         0.3095 
     80 H80        18.0887  -24.9214  -43.4487 H         1 UNK         0.0454 
     81 H81        20.7342  -23.8597  -42.2916 H         1 UNK         0.0851 
     82 H82        19.1679  -23.6796  -41.5037 H         1 UNK         0.0851 
     83 H83        19.4666  -22.9062  -43.0520 H         1 UNK         0.0851 
     84 H84        20.6018  -26.0157  -44.3215 H         1 UNK         0.2976 
     85 H85        20.0129  -29.7049  -40.6261 H         1 UNK         0.3116 
     86 H86        21.3339  -30.2086  -38.9583 H         1 UNK         0.0646 
     87 H87        19.3759  -28.9045  -37.0067 H         1 UNK         0.0847 
     88 H88        20.6341  -30.0645  -36.6216 H         1 UNK         0.0847 
     89 H89        19.2625  -30.5637  -37.5946 H         1 UNK         0.0847 
     90 H90        21.1592  -27.2637  -40.1388 H         1 UNK         0.3040 
     91 H91        23.2197  -26.0562  -38.3180 H         1 UNK         0.1015 
     92 H92        21.1564  -24.7129  -40.1367 H         1 UNK         0.0786 
     93 H93        22.4391  -23.8712  -39.2745 H         1 UNK         0.0786 
     94 H94        21.1746  -24.6998  -38.3792 H         1 UNK         0.0786 
     95 H95        22.1977  -26.3664  -41.7735 H         1 UNK         0.3172 
     96 H96        24.8544  -25.6146  -42.7483 H         1 UNK         0.0595 
     97 H97        22.4330  -26.7518  -44.2338 H         1 UNK         0.0839 
     98 H98        23.8577  -26.0303  -44.9676 H         1 UNK         0.0839 
     99 H99        22.7809  -25.0300  -44.0087 H         1 UNK         0.0839 
    100 H100       23.0141  -28.6091  -42.1698 H         1 UNK         0.2998 
    101 H101       25.3662  -30.2414  -42.1675 H         1 UNK         0.0822 
    102 H102       24.9014  -30.2715  -44.6454 H         1 UNK         0.0787 
    103 H103       24.5308  -31.8346  -43.9405 H         1 UNK         0.0787 
    104 H104       23.2270  -30.7235  -44.3374 H         1 UNK         0.0787 
    105 H105       24.8758  -32.2613  -41.1712 H         1 UNK         0.3055 
    106 H106       22.3711  -32.2945  -39.5805 H         1 UNK         0.1106 
    107 H107       23.6018  -33.9743  -38.2240 H         1 UNK         0.0828 
    108 H108       24.9532  -33.9340  -39.3475 H         1 UNK         0.0828 
    109 H109       24.5485  -32.5070  -38.3933 H         1 UNK         0.0828 
    110 H110       23.5841  -33.7330  -42.4386 H         1 UNK         0.2931 
    111 H111       22.9777  -35.3610  -43.7840 H         1 UNK         0.0412 
    112 H112       24.1822  -37.8725  -41.1363 H         1 UNK         0.3472 
    113 H113       24.3743  -36.1372  -41.1405 H         1 UNK         0.3472 
    114 H114       20.3093  -35.4234  -42.2807 H         1 UNK         0.0970 
    115 H115       20.6222  -36.2858  -43.7529 H         1 UNK         0.0970 
    116 H116       19.4164  -33.2327  -42.1826 H         1 UNK         0.0612 
    117 H117       20.8899  -32.3503  -42.4991 H         1 UNK         0.0612 
@<TRIPOS>BOND
     1    1    2 1    
     2    1   62 1    
     3    1   63 1    
     4    1   64 1    
     5    2    3 2    
     6    2    4 am   BACKBONE|DICT|INTERRES
     7    4    5 1    
     8    4   65 1    
     9    5    6 1    
    10    5   25 1    
    11    5   66 1    
    12    6    7 1    
    13    6   67 1    
    14    6   68 1    
    15    7    8 1    
    16    8    9 1    
    17    8   69 1    
    18    8   70 1    
    19    9   10 ar   
    20    9   14 ar   
    21   10   11 ar   
    22   10   71 1    
    23   11   12 ar   
    24   11   61 1    
    25   12   13 ar   
    26   12   72 1    
    27   13   14 ar   
    28   13   15 1    
    29   14   73 1    
    30   15   16 1    
    31   15   74 1    
    32   15   75 1    
    33   16   17 1    
    34   17   18 1    
    35   17   76 1    
    36   17   77 1    
    37   18   19 1    
    38   18   27 1    
    39   18   78 1    
    40   19   20 am   BACKBONE|DICT|INTERRES
    41   19   79 1    
    42   20   21 2    
    43   20   22 1    
    44   22   23 1    
    45   22   24 1    
    46   22   80 1    
    47   23   81 1    
    48   23   82 1    
    49   23   83 1    
    50   24   25 am   BACKBONE|DICT|INTERRES
    51   24   84 1    
    52   25   26 2    
    53   27   28 2    
    54   27   29 am   BACKBONE|DICT|INTERRES
    55   29   30 1    
    56   29   85 1    
    57   30   31 1    
    58   30   32 1    
    59   30   86 1    
    60   31   87 1    
    61   31   88 1    
    62   31   89 1    
    63   32   33 2    
    64   32   34 am   BACKBONE|DICT|INTERRES
    65   34   35 1    
    66   34   90 1    
    67   35   36 1    
    68   35   37 1    
    69   35   91 1    
    70   36   92 1    
    71   36   93 1    
    72   36   94 1    
    73   37   38 2    
    74   37   39 am   BACKBONE|DICT|INTERRES
    75   39   40 1    
    76   39   95 1    
    77   40   41 1    
    78   40   42 1    
    79   40   96 1    
    80   41   97 1    
    81   41   98 1    
    82   41   99 1    
    83   42   43 2    
    84   42   44 am   BACKBONE|DICT|INTERRES
    85   44   45 1    
    86   44  100 1    
    87   45   46 1    
    88   45   47 1    
    89   45  101 1    
    90   46  102 1    
    91   46  103 1    
    92   46  104 1    
    93   47   48 2    
    94   47   49 am   BACKBONE|DICT|INTERRES
    95   49   50 1    
    96   49  105 1    
    97   50   51 1    
    98   50   52 1    
    99   50  106 1    
   100   51  107 1    
   101   51  108 1    
   102   51  109 1    
   103   52   53 2    
   104   52   54 am   BACKBONE|DICT|INTERRES
   105   54   55 1    
   106   54  110 1    
   107   55   56 1    
   108   55   59 1    
   109   55  111 1    
   110   56   57 am   BACKBONE|DICT|INTERRES
   111   56   58 2    
   112   57  112 1    
   113   57  113 1    
   114   59   60 1    
   115   59  114 1    
   116   59  115 1    
   117   60   61 1    
   118   61  116 1    
   119   61  117 1    
@<TRIPOS>SUBSTRUCTURE
     1 UNK         1 GROUP             0       ****    0 ROOT    
