@<TRIPOS>MOLECULE
3R8
117   119    1
SMALL
USER_CHARGES


@<TRIPOS>ATOM
      1 CA         17.5197  -24.3872  -45.9660 C.3       0 UNK        -0.2013 
      2 C          15.9961  -24.3447  -46.0265 C.2       0 UNK         0.4866 
      3 O          15.4308  -23.2728  -46.2347 O.2       0 UNK        -0.5176 
      4 N          15.2854  -25.4702  -45.8686 N.am      1 UNK        -0.4884 
      5 CA         15.7933  -26.8092  -45.5435 C.3       1 UNK         0.0853 
      6 C6         14.7560  -27.8834  -45.9681 C.3       10 UNK        -0.0849 
      7 S7         15.3142  -29.6265  -45.9419 S.3       10 UNK        -0.2776 
      8 C8         16.6803  -29.6661  -47.1494 C.3       10 UNK         0.0316 
      9 C9         18.0438  -29.5327  -46.4788 C.ar      10 UNK        -0.0863 
     10 C10        18.5151  -30.5493  -45.6406 C.ar      10 UNK        -0.1009 
     11 C11        19.7822  -30.4646  -45.0536 C.ar      10 UNK        -0.0712 
     12 C12        20.5779  -29.3432  -45.3056 C.ar      10 UNK        -0.0894 
     13 C13        20.1245  -28.3226  -46.1482 C.ar      10 UNK        -0.0745 
     14 C14        18.8596  -28.4259  -46.7341 C.ar      10 UNK        -0.0972 
     15 C15        21.0196  -27.1366  -46.4832 C.3       10 UNK         0.0209 
     16 S16        20.7443  -25.7208  -45.3714 S.3       10 UNK        -0.2568 
     17 C17        21.6680  -26.2325  -43.8860 C.3       10 UNK        -0.0983 
     18 CA         20.7833  -26.3686  -42.6207 C.3       3 UNK         0.0876 
     19 N          19.6139  -27.2220  -42.8403 N.am      3 UNK        -0.4424 
     20 C          18.5884  -27.3544  -41.9893 C.2       2 UNK         0.4918 
     21 O          18.4913  -26.7364  -40.9280 O.2       2 UNK        -0.4875 
     22 CA         17.4892  -28.3402  -42.4201 C.3       2 UNK         0.0481 
     23 CB         16.3867  -28.5362  -41.3584 C.3       2 UNK        -0.1831 
     24 N          16.9268  -27.9956  -43.7268 N.am      2 UNK        -0.4498 
     25 C          16.2071  -26.9144  -44.0559 C.2       1 UNK         0.5027 
     26 O          15.8778  -26.0344  -43.2568 O.2       1 UNK        -0.4969 
     27 C          21.6323  -26.9112  -41.4548 C.2       3 UNK         0.5005 
     28 O          22.1655  -28.0155  -41.5682 O.2       3 UNK        -0.5279 
     29 N          21.7876  -26.1240  -40.3817 N.am      4 UNK        -0.4463 
     30 CA         22.5709  -26.4885  -39.1923 C.3       4 UNK         0.0283 
     31 CB         22.3101  -25.4578  -38.0819 C.3       4 UNK        -0.1875 
     32 C          24.0849  -26.6352  -39.4470 C.2       4 UNK         0.4949 
     33 O          24.7731  -27.2673  -38.6462 O.2       4 UNK        -0.5039 
     34 N          24.5775  -26.0464  -40.5450 N.am      5 UNK        -0.4663 
     35 CA         25.9657  -26.1487  -40.9990 C.3       5 UNK         0.0242 
     36 CB         26.2844  -24.9306  -41.8825 C.3       5 UNK        -0.1982 
     37 C          26.2698  -27.4553  -41.7579 C.2       5 UNK         0.5017 
     38 O          27.4469  -27.7612  -41.9557 O.2       5 UNK        -0.5012 
     39 N          25.2330  -28.1851  -42.1941 N.am      6 UNK        -0.4439 
     40 CA         25.3605  -29.4508  -42.9188 C.3       6 UNK         0.0297 
     41 CB         24.1451  -29.6135  -43.8464 C.3       6 UNK        -0.2006 
     42 C          25.4676  -30.6424  -41.9532 C.2       6 UNK         0.4892 
     43 O          25.2404  -30.4972  -40.7503 O.2       6 UNK        -0.5089 
     44 N          25.7922  -31.8156  -42.5108 N.am      7 UNK        -0.4243 
     45 CA         25.7522  -33.0982  -41.8070 C.3       7 UNK         0.0196 
     46 CB         26.4908  -34.1563  -42.6425 C.3       7 UNK        -0.2007 
     47 C          24.3003  -33.5350  -41.5480 C.2       7 UNK         0.5020 
     48 O          23.4276  -33.2688  -42.3786 O.2       7 UNK        -0.5147 
     49 N          24.0774  -34.2071  -40.4102 N.am      8 UNK        -0.4734 
     50 CA         22.8081  -34.7417  -39.8853 C.3       8 UNK         0.0238 
     51 CB         22.1959  -35.7883  -40.8380 C.3       8 UNK        -0.1912 
     52 C          21.7671  -33.6749  -39.4925 C.2       8 UNK         0.5038 
     53 O          21.1879  -33.7752  -38.4098 O.2       8 UNK        -0.5046 
     54 N          21.5459  -32.6885  -40.3658 N.am      9 UNK        -0.4200 
     55 CA         20.6668  -31.5319  -40.1563 C.3       9 UNK         0.0839 
     56 C          21.1780  -30.5616  -39.0540 C.2       9 UNK         0.5513 
     57 N          20.2880  -29.7580  -38.4860 N.am      9 UNK        -0.7519 
     58 O          22.3573  -30.5191  -38.7130 O.2       9 UNK        -0.4960 
     59 C59        20.4007  -30.7885  -41.4895 C.3       10 UNK        -0.0876 
     60 S60        19.4197  -31.8107  -42.6407 S.3       10 UNK        -0.2414 
     61 C61        20.3129  -31.6228  -44.2156 C.3       10 UNK         0.0169 
     62 H62        17.9375  -23.4001  -46.1623 H         1 UNK         0.0903 
     63 H63        17.9251  -25.0676  -46.7139 H         1 UNK         0.0903 
     64 H64        17.8629  -24.6972  -44.9797 H         1 UNK         0.0903 
     65 H65        14.2784  -25.3923  -45.8859 H         1 UNK         0.3096 
     66 H66        16.6898  -26.9616  -46.1385 H         1 UNK         0.1121 
     67 H67        13.8643  -27.8096  -45.3423 H         1 UNK         0.0849 
     68 H68        14.4145  -27.6787  -46.9845 H         1 UNK         0.0849 
     69 H69        16.6463  -30.6195  -47.6789 H         1 UNK         0.0865 
     70 H70        16.5312  -28.8969  -47.9089 H         1 UNK         0.0865 
     71 H71        17.9009  -31.4213  -45.4588 H         1 UNK         0.1346 
     72 H72        21.5657  -29.2829  -44.8756 H         1 UNK         0.1412 
     73 H73        18.5246  -27.6510  -47.4104 H         1 UNK         0.1426 
     74 H74        20.8258  -26.8120  -47.5068 H         1 UNK         0.0716 
     75 H75        22.0706  -27.4290  -46.4603 H         1 UNK         0.0716 
     76 H76        22.1929  -27.1647  -44.0963 H         1 UNK         0.0695 
     77 H77        22.4491  -25.4891  -43.7160 H         1 UNK         0.0695 
     78 H78        20.4158  -25.3740  -42.3589 H         1 UNK         0.0983 
     79 H79        19.6165  -27.7592  -43.6956 H         1 UNK         0.3095 
     80 H80        17.9711  -29.3055  -42.5612 H         1 UNK         0.0454 
     81 H81        15.8693  -27.6052  -41.1260 H         1 UNK         0.0851 
     82 H82        15.6427  -29.2607  -41.6892 H         1 UNK         0.0851 
     83 H83        16.8104  -28.9100  -40.4257 H         1 UNK         0.0851 
     84 H84        17.1097  -28.6702  -44.4602 H         1 UNK         0.2976 
     85 H85        21.3115  -25.2332  -40.3533 H         1 UNK         0.3116 
     86 H86        22.2121  -27.4600  -38.8460 H         1 UNK         0.0646 
     87 H87        22.8511  -25.7198  -37.1714 H         1 UNK         0.0847 
     88 H88        21.2521  -25.4102  -37.8234 H         1 UNK         0.0847 
     89 H89        22.6322  -24.4577  -38.3746 H         1 UNK         0.0847 
     90 H90        23.9424  -25.5260  -41.1317 H         1 UNK         0.3040 
     91 H91        26.6246  -26.1208  -40.1280 H         1 UNK         0.1015 
     92 H92        26.1359  -23.9966  -41.3401 H         1 UNK         0.0786 
     93 H93        25.6599  -24.9047  -42.7765 H         1 UNK         0.0786 
     94 H94        27.3242  -24.9483  -42.2125 H         1 UNK         0.0786 
     95 H95        24.2962  -27.9323  -41.8996 H         1 UNK         0.3172 
     96 H96        26.2615  -29.4268  -43.5356 H         1 UNK         0.0595 
     97 H97        24.2345  -30.5040  -44.4696 H         1 UNK         0.0839 
     98 H98        24.0419  -28.7612  -44.5179 H         1 UNK         0.0839 
     99 H99        23.2225  -29.7120  -43.2754 H         1 UNK         0.0839 
    100 H100       25.9312  -31.8563  -43.5099 H         1 UNK         0.2998 
    101 H101       26.2675  -32.9833  -40.8507 H         1 UNK         0.0822 
    102 H102       26.0150  -34.3093  -43.6123 H         1 UNK         0.0787 
    103 H103       27.5284  -33.8711  -42.8179 H         1 UNK         0.0787 
    104 H104       26.5027  -35.1196  -42.1307 H         1 UNK         0.0787 
    105 H105       24.8702  -34.3459  -39.7976 H         1 UNK         0.3055 
    106 H106       23.0708  -35.2625  -38.9626 H         1 UNK         0.1106 
    107 H107       21.8806  -35.3482  -41.7845 H         1 UNK         0.0828 
    108 H108       22.9046  -36.5864  -41.0589 H         1 UNK         0.0828 
    109 H109       21.3157  -36.2516  -40.3905 H         1 UNK         0.0828 
    110 H110       22.0872  -32.7017  -41.2256 H         1 UNK         0.2931 
    111 H111       19.7139  -31.9272  -39.7976 H         1 UNK         0.0412 
    112 H112       19.3142  -29.7899  -38.7428 H         1 UNK         0.3472 
    113 H113       20.5939  -29.1238  -37.7654 H         1 UNK         0.3472 
    114 H114       21.3436  -30.4932  -41.9508 H         1 UNK         0.0970 
    115 H115       19.8539  -29.8647  -41.3093 H         1 UNK         0.0970 
    116 H116       21.3841  -31.5253  -44.0319 H         1 UNK         0.0612 
    117 H117       20.1930  -32.5449  -44.7858 H         1 UNK         0.0612 
@<TRIPOS>BOND
     1    1    2 1    
     2    1   62 1    
     3    1   63 1    
     4    1   64 1    
     5    2    3 2    
     6    2    4 am   BACKBONE|DICT|INTERRES
     7    4    5 1    
     8    4   65 1    
     9    5    6 1    
    10    5   25 1    
    11    5   66 1    
    12    6    7 1    
    13    6   67 1    
    14    6   68 1    
    15    7    8 1    
    16    8    9 1    
    17    8   69 1    
    18    8   70 1    
    19    9   10 ar   
    20    9   14 ar   
    21   10   11 ar   
    22   10   71 1    
    23   11   12 ar   
    24   11   61 1    
    25   12   13 ar   
    26   12   72 1    
    27   13   14 ar   
    28   13   15 1    
    29   14   73 1    
    30   15   16 1    
    31   15   74 1    
    32   15   75 1    
    33   16   17 1    
    34   17   18 1    
    35   17   76 1    
    36   17   77 1    
    37   18   19 1    
    38   18   27 1    
    39   18   78 1    
    40   19   20 am   BACKBONE|DICT|INTERRES
    41   19   79 1    
    42   20   21 2    
    43   20   22 1    
    44   22   23 1    
    45   22   24 1    
    46   22   80 1    
    47   23   81 1    
    48   23   82 1    
    49   23   83 1    
    50   24   25 am   BACKBONE|DICT|INTERRES
    51   24   84 1    
    52   25   26 2    
    53   27   28 2    
    54   27   29 am   BACKBONE|DICT|INTERRES
    55   29   30 1    
    56   29   85 1    
    57   30   31 1    
    58   30   32 1    
    59   30   86 1    
    60   31   87 1    
    61   31   88 1    
    62   31   89 1    
    63   32   33 2    
    64   32   34 am   BACKBONE|DICT|INTERRES
    65   34   35 1    
    66   34   90 1    
    67   35   36 1    
    68   35   37 1    
    69   35   91 1    
    70   36   92 1    
    71   36   93 1    
    72   36   94 1    
    73   37   38 2    
    74   37   39 am   BACKBONE|DICT|INTERRES
    75   39   40 1    
    76   39   95 1    
    77   40   41 1    
    78   40   42 1    
    79   40   96 1    
    80   41   97 1    
    81   41   98 1    
    82   41   99 1    
    83   42   43 2    
    84   42   44 am   BACKBONE|DICT|INTERRES
    85   44   45 1    
    86   44  100 1    
    87   45   46 1    
    88   45   47 1    
    89   45  101 1    
    90   46  102 1    
    91   46  103 1    
    92   46  104 1    
    93   47   48 2    
    94   47   49 am   BACKBONE|DICT|INTERRES
    95   49   50 1    
    96   49  105 1    
    97   50   51 1    
    98   50   52 1    
    99   50  106 1    
   100   51  107 1    
   101   51  108 1    
   102   51  109 1    
   103   52   53 2    
   104   52   54 am   BACKBONE|DICT|INTERRES
   105   54   55 1    
   106   54  110 1    
   107   55   56 1    
   108   55   59 1    
   109   55  111 1    
   110   56   57 am   BACKBONE|DICT|INTERRES
   111   56   58 2    
   112   57  112 1    
   113   57  113 1    
   114   59   60 1    
   115   59  114 1    
   116   59  115 1    
   117   60   61 1    
   118   61  116 1    
   119   61  117 1    
@<TRIPOS>SUBSTRUCTURE
     1 UNK         1 GROUP             0       ****    0 ROOT    
