@<TRIPOS>MOLECULE
3R8
117   119    1
SMALL
USER_CHARGES


@<TRIPOS>ATOM
      1 CA         15.2649  -28.9791  -39.6369 C.3       0 UNK        -0.2013 
      2 C          15.2391  -28.5526  -41.0969 C.2       0 UNK         0.4866 
      3 O          14.3911  -29.0184  -41.8581 O.2       0 UNK        -0.5176 
      4 N          16.1611  -27.6694  -41.4924 N.am      1 UNK        -0.4884 
      5 CA         16.2959  -27.1167  -42.8388 C.3       1 UNK         0.0853 
      6 C6         16.9281  -28.1316  -43.8301 C.3       10 UNK        -0.0849 
      7 S7         16.5699  -27.7384  -45.5755 S.3       10 UNK        -0.2776 
      8 C8         16.9023  -29.3426  -46.3731 C.3       10 UNK         0.0316 
      9 C9         18.3641  -29.7438  -46.2380 C.ar      10 UNK        -0.0863 
     10 C10        18.7468  -30.7304  -45.3245 C.ar      10 UNK        -0.1009 
     11 C11        20.0918  -31.0876  -45.1905 C.ar      10 UNK        -0.0712 
     12 C12        21.0578  -30.4406  -45.9654 C.ar      10 UNK        -0.0894 
     13 C13        20.6897  -29.4390  -46.8663 C.ar      10 UNK        -0.0745 
     14 C14        19.3377  -29.1148  -47.0182 C.ar      10 UNK        -0.0972 
     15 C15        21.7562  -28.6970  -47.6584 C.3       10 UNK         0.0209 
     16 S16        22.5909  -27.4256  -46.6507 S.3       10 UNK        -0.2568 
     17 C17        21.2414  -26.2254  -46.3558 C.3       10 UNK        -0.0983 
     18 CA         21.0685  -25.6741  -44.9108 C.3       3 UNK         0.0876 
     19 N          19.7073  -25.1755  -44.7201 N.am      3 UNK        -0.4424 
     20 C          19.3752  -24.0200  -44.1332 C.2       2 UNK         0.4918 
     21 O          20.1907  -23.1699  -43.7747 O.2       2 UNK        -0.4875 
     22 CA         17.8729  -23.7647  -43.9061 C.3       2 UNK         0.0481 
     23 CB         17.2984  -22.9091  -45.0464 C.3       2 UNK        -0.1831 
     24 N          17.0914  -25.0002  -43.7883 N.am      2 UNK        -0.4498 
     25 C          17.1130  -25.8156  -42.7256 C.2       1 UNK         0.5027 
     26 O          17.7436  -25.5760  -41.6908 O.2       1 UNK        -0.4969 
     27 C          21.3665  -26.6651  -43.7626 C.2       3 UNK         0.5005 
     28 O          20.4560  -27.3332  -43.2666 O.2       3 UNK        -0.5279 
     29 N          22.6323  -26.6991  -43.3298 N.am      4 UNK        -0.4463 
     30 CA         23.0920  -27.3755  -42.1145 C.3       4 UNK         0.0283 
     31 CB         23.5241  -26.2894  -41.1072 C.3       4 UNK        -0.1875 
     32 C          24.2304  -28.3725  -42.3887 C.2       4 UNK         0.4949 
     33 O          24.9585  -28.7089  -41.4534 O.2       4 UNK        -0.5039 
     34 N          24.3799  -28.8067  -43.6499 N.am      5 UNK        -0.4663 
     35 CA         25.5315  -29.5527  -44.1768 C.3       5 UNK         0.0242 
     36 CB         25.3097  -29.8590  -45.6666 C.3       5 UNK        -0.1982 
     37 C          25.9112  -30.8373  -43.4197 C.2       5 UNK         0.5017 
     38 O          27.1036  -31.0993  -43.2590 O.2       5 UNK        -0.5012 
     39 N          24.9133  -31.5971  -42.9495 N.am      6 UNK        -0.4439 
     40 CA         25.1035  -32.8110  -42.1496 C.3       6 UNK         0.0297 
     41 CB         24.2206  -33.9470  -42.7008 C.3       6 UNK        -0.2006 
     42 C          24.8680  -32.5205  -40.6561 C.2       6 UNK         0.4892 
     43 O          24.1089  -33.2368  -40.0028 O.2       6 UNK        -0.5089 
     44 N          25.5428  -31.4756  -40.1533 N.am      7 UNK        -0.4243 
     45 CA         25.5842  -31.0095  -38.7627 C.3       7 UNK         0.0196 
     46 CB         26.2529  -32.0626  -37.8523 C.3       7 UNK        -0.2007 
     47 C          24.2089  -30.5520  -38.2441 C.2       7 UNK         0.5020 
     48 O          23.6625  -31.1587  -37.3212 O.2       7 UNK        -0.5147 
     49 N          23.6875  -29.4740  -38.8500 N.am      8 UNK        -0.4734 
     50 CA         22.4166  -28.8067  -38.5120 C.3       8 UNK         0.0238 
     51 CB         22.4618  -28.2024  -37.0915 C.3       8 UNK        -0.1912 
     52 C          21.1844  -29.6982  -38.7543 C.2       8 UNK         0.5038 
     53 O          20.2399  -29.6904  -37.9628 O.2       8 UNK        -0.5046 
     54 N          21.2339  -30.4517  -39.8565 N.am      9 UNK        -0.4200 
     55 CA         20.1890  -31.3709  -40.3214 C.3       9 UNK         0.0839 
     56 C          18.8690  -30.6993  -40.7994 C.2       9 UNK         0.5513 
     57 N          18.8703  -29.4285  -41.1805 N.am      9 UNK        -0.7519 
     58 O          17.8253  -31.3457  -40.8163 O.2       9 UNK        -0.4960 
     59 C59        20.7616  -32.3399  -41.3840 C.3       10 UNK        -0.0876 
     60 S60        21.4642  -31.4619  -42.8294 S.3       10 UNK        -0.2414 
     61 C61        20.5044  -32.1666  -44.2046 C.3       10 UNK         0.0169 
     62 H62        14.3189  -28.7340  -39.1551 H         1 UNK         0.0903 
     63 H63        15.4166  -30.0561  -39.5664 H         1 UNK         0.0903 
     64 H64        16.0665  -28.4900  -39.0835 H         1 UNK         0.0903 
     65 H65        16.7921  -27.2382  -40.8246 H         1 UNK         0.3096 
     66 H66        15.2943  -26.8473  -43.1830 H         1 UNK         0.1121 
     67 H67        16.5354  -29.1314  -43.6390 H         1 UNK         0.0849 
     68 H68        18.0080  -28.2089  -43.6917 H         1 UNK         0.0849 
     69 H69        16.2477  -30.1046  -45.9469 H         1 UNK         0.0865 
     70 H70        16.6408  -29.2747  -47.4301 H         1 UNK         0.0865 
     71 H71        17.9985  -31.2161  -44.7132 H         1 UNK         0.1346 
     72 H72        22.0993  -30.7022  -45.8471 H         1 UNK         0.1412 
     73 H73        19.0414  -28.3473  -47.7202 H         1 UNK         0.1426 
     74 H74        22.5024  -29.4072  -48.0180 H         1 UNK         0.0716 
     75 H75        21.3257  -28.2306  -48.5460 H         1 UNK         0.0716 
     76 H76        21.3960  -25.3873  -47.0369 H         1 UNK         0.0695 
     77 H77        20.3054  -26.6725  -46.6828 H         1 UNK         0.0695 
     78 H78        21.7715  -24.8452  -44.8008 H         1 UNK         0.0983 
     79 H79        18.9735  -25.8450  -44.9003 H         1 UNK         0.3095 
     80 H80        17.7694  -23.2025  -42.9755 H         1 UNK         0.0454 
     81 H81        17.3614  -23.4198  -46.0081 H         1 UNK         0.0851 
     82 H82        16.2531  -22.6573  -44.8667 H         1 UNK         0.0851 
     83 H83        17.8438  -21.9690  -45.1411 H         1 UNK         0.0851 
     84 H84        16.5563  -25.2809  -44.5995 H         1 UNK         0.2976 
     85 H85        23.3276  -26.1539  -43.8221 H         1 UNK         0.3116 
     86 H86        22.2827  -27.9582  -41.6712 H         1 UNK         0.0646 
     87 H87        23.9335  -26.7120  -40.1900 H         1 UNK         0.0847 
     88 H88        22.6809  -25.6598  -40.8223 H         1 UNK         0.0847 
     89 H89        24.2955  -25.6417  -41.5252 H         1 UNK         0.0847 
     90 H90        23.7013  -28.4940  -44.3311 H         1 UNK         0.3040 
     91 H91        26.3920  -28.8845  -44.1000 H         1 UNK         0.1015 
     92 H92        25.1954  -28.9446  -46.2484 H         1 UNK         0.0786 
     93 H93        24.4249  -30.4747  -45.8259 H         1 UNK         0.0786 
     94 H94        26.1602  -30.3987  -46.0861 H         1 UNK         0.0786 
     95 H95        23.9602  -31.2872  -43.0882 H         1 UNK         0.3172 
     96 H96        26.1363  -33.1557  -42.2318 H         1 UNK         0.0595 
     97 H97        24.4188  -34.8811  -42.1737 H         1 UNK         0.0839 
     98 H98        23.1587  -33.7381  -42.5916 H         1 UNK         0.0839 
     99 H99        24.4192  -34.1256  -43.7575 H         1 UNK         0.0839 
    100 H100       26.0797  -30.9207  -40.8074 H         1 UNK         0.2998 
    101 H101       26.2242  -30.1256  -38.7561 H         1 UNK         0.0822 
    102 H102       27.2501  -32.3196  -38.2095 H         1 UNK         0.0787 
    103 H103       26.3607  -31.6843  -36.8349 H         1 UNK         0.0787 
    104 H104       25.6701  -32.9826  -37.7949 H         1 UNK         0.0787 
    105 H105       24.2071  -29.0838  -39.6324 H         1 UNK         0.3055 
    106 H106       22.2995  -27.9736  -39.2025 H         1 UNK         0.1106 
    107 H107       21.5769  -27.5948  -36.8979 H         1 UNK         0.0828 
    108 H108       22.4977  -28.9729  -36.3210 H         1 UNK         0.0828 
    109 H109       23.3302  -27.5566  -36.9622 H         1 UNK         0.0828 
    110 H110       22.0552  -30.4020  -40.4390 H         1 UNK         0.2931 
    111 H111       19.9127  -31.9792  -39.4579 H         1 UNK         0.0412 
    112 H112       18.0093  -29.0185  -41.5007 H         1 UNK         0.3472 
    113 H113       19.7314  -28.9101  -41.2545 H         1 UNK         0.3472 
    114 H114       21.5562  -32.9364  -40.9344 H         1 UNK         0.0970 
    115 H115       20.0037  -33.0629  -41.6887 H         1 UNK         0.0970 
    116 H116       19.6202  -32.6856  -43.8340 H         1 UNK         0.0612 
    117 H117       21.1109  -32.9172  -44.7133 H         1 UNK         0.0612 
@<TRIPOS>BOND
     1    1    2 1    
     2    1   62 1    
     3    1   63 1    
     4    1   64 1    
     5    2    3 2    
     6    2    4 am   BACKBONE|DICT|INTERRES
     7    4    5 1    
     8    4   65 1    
     9    5    6 1    
    10    5   25 1    
    11    5   66 1    
    12    6    7 1    
    13    6   67 1    
    14    6   68 1    
    15    7    8 1    
    16    8    9 1    
    17    8   69 1    
    18    8   70 1    
    19    9   10 ar   
    20    9   14 ar   
    21   10   11 ar   
    22   10   71 1    
    23   11   12 ar   
    24   11   61 1    
    25   12   13 ar   
    26   12   72 1    
    27   13   14 ar   
    28   13   15 1    
    29   14   73 1    
    30   15   16 1    
    31   15   74 1    
    32   15   75 1    
    33   16   17 1    
    34   17   18 1    
    35   17   76 1    
    36   17   77 1    
    37   18   19 1    
    38   18   27 1    
    39   18   78 1    
    40   19   20 am   BACKBONE|DICT|INTERRES
    41   19   79 1    
    42   20   21 2    
    43   20   22 1    
    44   22   23 1    
    45   22   24 1    
    46   22   80 1    
    47   23   81 1    
    48   23   82 1    
    49   23   83 1    
    50   24   25 am   BACKBONE|DICT|INTERRES
    51   24   84 1    
    52   25   26 2    
    53   27   28 2    
    54   27   29 am   BACKBONE|DICT|INTERRES
    55   29   30 1    
    56   29   85 1    
    57   30   31 1    
    58   30   32 1    
    59   30   86 1    
    60   31   87 1    
    61   31   88 1    
    62   31   89 1    
    63   32   33 2    
    64   32   34 am   BACKBONE|DICT|INTERRES
    65   34   35 1    
    66   34   90 1    
    67   35   36 1    
    68   35   37 1    
    69   35   91 1    
    70   36   92 1    
    71   36   93 1    
    72   36   94 1    
    73   37   38 2    
    74   37   39 am   BACKBONE|DICT|INTERRES
    75   39   40 1    
    76   39   95 1    
    77   40   41 1    
    78   40   42 1    
    79   40   96 1    
    80   41   97 1    
    81   41   98 1    
    82   41   99 1    
    83   42   43 2    
    84   42   44 am   BACKBONE|DICT|INTERRES
    85   44   45 1    
    86   44  100 1    
    87   45   46 1    
    88   45   47 1    
    89   45  101 1    
    90   46  102 1    
    91   46  103 1    
    92   46  104 1    
    93   47   48 2    
    94   47   49 am   BACKBONE|DICT|INTERRES
    95   49   50 1    
    96   49  105 1    
    97   50   51 1    
    98   50   52 1    
    99   50  106 1    
   100   51  107 1    
   101   51  108 1    
   102   51  109 1    
   103   52   53 2    
   104   52   54 am   BACKBONE|DICT|INTERRES
   105   54   55 1    
   106   54  110 1    
   107   55   56 1    
   108   55   59 1    
   109   55  111 1    
   110   56   57 am   BACKBONE|DICT|INTERRES
   111   56   58 2    
   112   57  112 1    
   113   57  113 1    
   114   59   60 1    
   115   59  114 1    
   116   59  115 1    
   117   60   61 1    
   118   61  116 1    
   119   61  117 1    
@<TRIPOS>SUBSTRUCTURE
     1 UNK         1 GROUP             0       ****    0 ROOT    
