@<TRIPOS>MOLECULE
3R8
117   119    1
SMALL
USER_CHARGES


@<TRIPOS>ATOM
      1 CA         14.4065  -24.4052  -48.0717 C.3       0 UNK        -0.2013 
      2 C          15.2332  -25.2480  -47.1127 C.2       0 UNK         0.4866 
      3 O          15.0120  -25.1888  -45.9023 O.2       0 UNK        -0.5176 
      4 N          16.1874  -26.0268  -47.6434 N.am      1 UNK        -0.4884 
      5 CA         17.1214  -26.9127  -46.9321 C.3       1 UNK         0.0853 
      6 C6         16.4063  -27.9805  -46.0594 C.3       10 UNK        -0.0849 
      7 S7         17.4631  -29.4127  -45.6597 S.3       10 UNK        -0.2776 
      8 C8         16.4595  -30.2396  -44.3789 C.3       10 UNK         0.0316 
      9 C9         17.0012  -30.0050  -42.9731 C.ar      10 UNK        -0.0863 
     10 C10        17.3606  -31.0916  -42.1699 C.ar      10 UNK        -0.1009 
     11 C11        17.8672  -30.8918  -40.8812 C.ar      10 UNK        -0.0712 
     12 C12        18.0110  -29.5895  -40.3956 C.ar      10 UNK        -0.0894 
     13 C13        17.6528  -28.4922  -41.1866 C.ar      10 UNK        -0.0745 
     14 C14        17.1292  -28.7102  -42.4638 C.ar      10 UNK        -0.0972 
     15 C15        17.8054  -27.0655  -40.6741 C.3       10 UNK         0.0209 
     16 S16        19.4079  -26.7238  -39.8680 S.3       10 UNK        -0.2568 
     17 C17        20.7588  -26.9313  -41.0923 C.3       10 UNK        -0.0983 
     18 CA         20.4518  -27.3225  -42.5688 C.3       3 UNK         0.0876 
     19 N          19.5484  -26.4118  -43.2847 N.am      3 UNK        -0.4424 
     20 C          19.6695  -25.0949  -43.4982 C.2       2 UNK         0.4918 
     21 O          20.6141  -24.4220  -43.0823 O.2       2 UNK        -0.4875 
     22 CA         18.5561  -24.4155  -44.3251 C.3       2 UNK         0.0481 
     23 CB         19.0955  -23.2405  -45.1670 C.3       2 UNK        -0.1831 
     24 N          17.7655  -25.3259  -45.1681 N.am      2 UNK        -0.4498 
     25 C          18.1981  -26.1195  -46.1607 C.2       1 UNK         0.5027 
     26 O          19.3801  -26.2280  -46.4880 O.2       1 UNK        -0.4969 
     27 C          21.7814  -27.5578  -43.3175 C.2       3 UNK         0.5005 
     28 O          22.2149  -28.7049  -43.4250 O.2       3 UNK        -0.5279 
     29 N          22.4429  -26.4753  -43.7524 N.am      4 UNK        -0.4463 
     30 CA         23.8354  -26.3632  -44.2139 C.3       4 UNK         0.0283 
     31 CB         24.1599  -27.3212  -45.3778 C.3       4 UNK        -0.1875 
     32 C          24.8333  -26.5096  -43.0507 C.2       4 UNK         0.4949 
     33 O          25.6821  -25.6383  -42.8628 O.2       4 UNK        -0.5039 
     34 N          24.6662  -27.5702  -42.2584 N.am      5 UNK        -0.4663 
     35 CA         25.2812  -27.8048  -40.9592 C.3       5 UNK         0.0242 
     36 CB         26.6934  -28.3924  -41.1294 C.3       5 UNK        -0.1982 
     37 C          24.3669  -28.7714  -40.1999 C.2       5 UNK         0.5017 
     38 O          23.6690  -29.5674  -40.8345 O.2       5 UNK        -0.5012 
     39 N          24.4134  -28.7339  -38.8625 N.am      6 UNK        -0.4439 
     40 CA         23.6172  -29.6038  -37.9841 C.3       6 UNK         0.0297 
     41 CB         23.8048  -29.1629  -36.5236 C.3       6 UNK        -0.2006 
     42 C          23.9271  -31.1066  -38.1384 C.2       6 UNK         0.4892 
     43 O          23.0544  -31.9334  -37.8754 O.2       6 UNK        -0.5089 
     44 N          25.1539  -31.4262  -38.5715 N.am      7 UNK        -0.4243 
     45 CA         25.5949  -32.7797  -38.9085 C.3       7 UNK         0.0196 
     46 CB         27.1020  -32.8907  -38.6212 C.3       7 UNK        -0.2007 
     47 C          25.3020  -33.1613  -40.3724 C.2       7 UNK         0.5020 
     48 O          25.3926  -34.3448  -40.7001 O.2       7 UNK        -0.5147 
     49 N          24.9924  -32.1799  -41.2331 N.am      8 UNK        -0.4734 
     50 CA         24.7304  -32.3913  -42.6578 C.3       8 UNK         0.0238 
     51 CB         25.2205  -31.1860  -43.4794 C.3       8 UNK        -0.1912 
     52 C          23.2447  -32.6634  -42.9147 C.2       8 UNK         0.5038 
     53 O          22.9274  -33.6795  -43.5346 O.2       8 UNK        -0.5046 
     54 N          22.3718  -31.7655  -42.4315 N.am      9 UNK        -0.4200 
     55 CA         20.9129  -31.8012  -42.6389 C.3       9 UNK         0.0839 
     56 C          20.5141  -31.7772  -44.1453 C.2       9 UNK         0.5513 
     57 N          21.0455  -30.8335  -44.9106 N.am      9 UNK        -0.7519 
     58 O          19.7402  -32.6021  -44.6259 O.2       9 UNK        -0.4960 
     59 C59        20.2307  -32.9352  -41.8180 C.3       10 UNK        -0.0876 
     60 S60        20.0306  -32.4520  -40.0716 S.3       10 UNK        -0.2414 
     61 C61        18.2467  -32.0811  -40.0071 C.3       10 UNK         0.0169 
     62 H62        14.7029  -24.5565  -49.1095 H         1 UNK         0.0903 
     63 H63        14.5226  -23.3477  -47.8363 H         1 UNK         0.0903 
     64 H64        13.3512  -24.6607  -47.9800 H         1 UNK         0.0903 
     65 H65        16.3236  -25.9985  -48.6454 H         1 UNK         0.3096 
     66 H66        17.6506  -27.4479  -47.7232 H         1 UNK         0.1121 
     67 H67        15.5417  -28.3686  -46.6003 H         1 UNK         0.0849 
     68 H68        16.0050  -27.5432  -45.1451 H         1 UNK         0.0849 
     69 H69        15.4220  -29.9066  -44.4294 H         1 UNK         0.0865 
     70 H70        16.4438  -31.3069  -44.6054 H         1 UNK         0.0865 
     71 H71        17.2449  -32.0972  -42.5498 H         1 UNK         0.1346 
     72 H72        18.4062  -29.4308  -39.4016 H         1 UNK         0.1412 
     73 H73        16.8300  -27.8669  -43.0677 H         1 UNK         0.1426 
     74 H74        17.6329  -26.3328  -41.4620 H         1 UNK         0.0716 
     75 H75        17.0192  -26.8920  -39.9384 H         1 UNK         0.0716 
     76 H76        21.4165  -27.6882  -40.6594 H         1 UNK         0.0695 
     77 H77        21.3394  -26.0077  -41.0660 H         1 UNK         0.0695 
     78 H78        19.9558  -28.2930  -42.5589 H         1 UNK         0.0983 
     79 H79        18.7669  -26.8660  -43.7318 H         1 UNK         0.3095 
     80 H80        17.8564  -24.0032  -43.5970 H         1 UNK         0.0454 
     81 H81        18.2967  -22.7527  -45.7254 H         1 UNK         0.0851 
     82 H82        19.8520  -23.5686  -45.8806 H         1 UNK         0.0851 
     83 H83        19.5546  -22.4799  -44.5343 H         1 UNK         0.0851 
     84 H84        16.7561  -25.2723  -45.0516 H         1 UNK         0.2976 
     85 H85        21.9780  -25.5860  -43.5795 H         1 UNK         0.3116 
     86 H86        23.9348  -25.3452  -44.5938 H         1 UNK         0.0646 
     87 H87        23.4368  -27.2202  -46.1870 H         1 UNK         0.0847 
     88 H88        25.1447  -27.1025  -45.7918 H         1 UNK         0.0847 
     89 H89        24.1706  -28.3659  -45.0665 H         1 UNK         0.0847 
     90 H90        23.9163  -28.2212  -42.4861 H         1 UNK         0.3040 
     91 H91        25.3325  -26.8601  -40.4132 H         1 UNK         0.1015 
     92 H92        26.6739  -29.3510  -41.6475 H         1 UNK         0.0786 
     93 H93        27.1711  -28.5531  -40.1623 H         1 UNK         0.0786 
     94 H94        27.3370  -27.7207  -41.6976 H         1 UNK         0.0786 
     95 H95        25.0185  -28.0627  -38.4100 H         1 UNK         0.3172 
     96 H96        22.5667  -29.4639  -38.2494 H         1 UNK         0.0595 
     97 H97        23.2026  -29.7761  -35.8513 H         1 UNK         0.0839 
     98 H98        23.4950  -28.1280  -36.3771 H         1 UNK         0.0839 
     99 H99        24.8434  -29.2536  -36.2031 H         1 UNK         0.0839 
    100 H100       25.8119  -30.6787  -38.7356 H         1 UNK         0.2998 
    101 H101       25.0741  -33.4994  -38.2728 H         1 UNK         0.0822 
    102 H102       27.3235  -32.6753  -37.5757 H         1 UNK         0.0787 
    103 H103       27.4658  -33.8986  -38.8261 H         1 UNK         0.0787 
    104 H104       27.6832  -32.2033  -39.2373 H         1 UNK         0.0787 
    105 H105       24.8212  -31.2472  -40.8772 H         1 UNK         0.3055 
    106 H106       25.2884  -33.2655  -43.0021 H         1 UNK         0.1106 
    107 H107       26.2934  -31.0365  -43.3615 H         1 UNK         0.0828 
    108 H108       25.0328  -31.3407  -44.5428 H         1 UNK         0.0828 
    109 H109       24.7169  -30.2623  -43.1974 H         1 UNK         0.0828 
    110 H110       22.7287  -30.9463  -41.9494 H         1 UNK         0.2931 
    111 H111       20.5391  -30.8499  -42.2571 H         1 UNK         0.0412 
    112 H112       21.6336  -30.1189  -44.4883 H         1 UNK         0.3472 
    113 H113       20.8036  -30.7868  -45.8867 H         1 UNK         0.3472 
    114 H114       19.2512  -33.1966  -42.2168 H         1 UNK         0.0970 
    115 H115       20.8086  -33.8587  -41.8661 H         1 UNK         0.0970 
    116 H116       17.6816  -32.9673  -40.3000 H         1 UNK         0.0612 
    117 H117       17.9706  -31.8754  -38.9719 H         1 UNK         0.0612 
@<TRIPOS>BOND
     1    1    2 1    
     2    1   62 1    
     3    1   63 1    
     4    1   64 1    
     5    2    3 2    
     6    2    4 am   BACKBONE|DICT|INTERRES
     7    4    5 1    
     8    4   65 1    
     9    5    6 1    
    10    5   25 1    
    11    5   66 1    
    12    6    7 1    
    13    6   67 1    
    14    6   68 1    
    15    7    8 1    
    16    8    9 1    
    17    8   69 1    
    18    8   70 1    
    19    9   10 ar   
    20    9   14 ar   
    21   10   11 ar   
    22   10   71 1    
    23   11   12 ar   
    24   11   61 1    
    25   12   13 ar   
    26   12   72 1    
    27   13   14 ar   
    28   13   15 1    
    29   14   73 1    
    30   15   16 1    
    31   15   74 1    
    32   15   75 1    
    33   16   17 1    
    34   17   18 1    
    35   17   76 1    
    36   17   77 1    
    37   18   19 1    
    38   18   27 1    
    39   18   78 1    
    40   19   20 am   BACKBONE|DICT|INTERRES
    41   19   79 1    
    42   20   21 2    
    43   20   22 1    
    44   22   23 1    
    45   22   24 1    
    46   22   80 1    
    47   23   81 1    
    48   23   82 1    
    49   23   83 1    
    50   24   25 am   BACKBONE|DICT|INTERRES
    51   24   84 1    
    52   25   26 2    
    53   27   28 2    
    54   27   29 am   BACKBONE|DICT|INTERRES
    55   29   30 1    
    56   29   85 1    
    57   30   31 1    
    58   30   32 1    
    59   30   86 1    
    60   31   87 1    
    61   31   88 1    
    62   31   89 1    
    63   32   33 2    
    64   32   34 am   BACKBONE|DICT|INTERRES
    65   34   35 1    
    66   34   90 1    
    67   35   36 1    
    68   35   37 1    
    69   35   91 1    
    70   36   92 1    
    71   36   93 1    
    72   36   94 1    
    73   37   38 2    
    74   37   39 am   BACKBONE|DICT|INTERRES
    75   39   40 1    
    76   39   95 1    
    77   40   41 1    
    78   40   42 1    
    79   40   96 1    
    80   41   97 1    
    81   41   98 1    
    82   41   99 1    
    83   42   43 2    
    84   42   44 am   BACKBONE|DICT|INTERRES
    85   44   45 1    
    86   44  100 1    
    87   45   46 1    
    88   45   47 1    
    89   45  101 1    
    90   46  102 1    
    91   46  103 1    
    92   46  104 1    
    93   47   48 2    
    94   47   49 am   BACKBONE|DICT|INTERRES
    95   49   50 1    
    96   49  105 1    
    97   50   51 1    
    98   50   52 1    
    99   50  106 1    
   100   51  107 1    
   101   51  108 1    
   102   51  109 1    
   103   52   53 2    
   104   52   54 am   BACKBONE|DICT|INTERRES
   105   54   55 1    
   106   54  110 1    
   107   55   56 1    
   108   55   59 1    
   109   55  111 1    
   110   56   57 am   BACKBONE|DICT|INTERRES
   111   56   58 2    
   112   57  112 1    
   113   57  113 1    
   114   59   60 1    
   115   59  114 1    
   116   59  115 1    
   117   60   61 1    
   118   61  116 1    
   119   61  117 1    
@<TRIPOS>SUBSTRUCTURE
     1 UNK         1 GROUP             0       ****    0 ROOT    
