@<TRIPOS>MOLECULE
3R8
117   119    1
SMALL
USER_CHARGES


@<TRIPOS>ATOM
      1 CA         17.7071  -26.6581  -41.5057 C.3       0 UNK        -0.2013 
      2 C          17.2079  -26.2522  -42.8810 C.2       0 UNK         0.4866 
      3 O          16.8041  -25.1049  -43.0777 O.2       0 UNK        -0.5176 
      4 N          17.2460  -27.1779  -43.8478 N.am      1 UNK        -0.4884 
      5 CA         16.8257  -26.9717  -45.2420 C.3       1 UNK         0.0853 
      6 C6         16.3490  -28.2854  -45.9291 C.3       10 UNK        -0.0849 
      7 S7         15.2852  -29.3334  -44.8716 S.3       10 UNK        -0.2776 
      8 C8         16.3082  -30.8332  -44.6617 C.3       10 UNK         0.0316 
      9 C9         17.6866  -30.5339  -44.0823 C.ar      10 UNK        -0.0863 
     10 C10        17.8406  -30.2734  -42.7180 C.ar      10 UNK        -0.1009 
     11 C11        19.1034  -29.9878  -42.1886 C.ar      10 UNK        -0.0712 
     12 C12        20.2168  -29.9607  -43.0359 C.ar      10 UNK        -0.0894 
     13 C13        20.0798  -30.2466  -44.3984 C.ar      10 UNK        -0.0745 
     14 C14        18.8125  -30.5324  -44.9121 C.ar      10 UNK        -0.0972 
     15 C15        21.2953  -30.3006  -45.3165 C.3       10 UNK         0.0209 
     16 S16        21.6162  -28.7181  -46.1568 S.3       10 UNK        -0.2568 
     17 C17        22.5573  -27.8359  -44.8701 C.3       10 UNK        -0.0983 
     18 CA         22.9916  -26.3959  -45.2803 C.3       3 UNK         0.0876 
     19 N          21.8635  -25.5659  -45.7468 N.am      3 UNK        -0.4424 
     20 C          20.7654  -25.2461  -45.0458 C.2       2 UNK         0.4918 
     21 O          20.6150  -25.5318  -43.8549 O.2       2 UNK        -0.4875 
     22 CA         19.6605  -24.4383  -45.7560 C.3       2 UNK         0.0481 
     23 CB         19.9227  -24.1274  -47.2482 C.3       2 UNK        -0.1831 
     24 N          18.3704  -25.0946  -45.5337 N.am      2 UNK        -0.4498 
     25 C          17.9660  -26.2768  -46.0219 C.2       1 UNK         0.5027 
     26 O          18.4911  -26.8384  -46.9845 O.2       1 UNK        -0.4969 
     27 C          23.8116  -25.7479  -44.1363 C.2       3 UNK         0.5005 
     28 O          24.6421  -26.4290  -43.5326 O.2       3 UNK        -0.5279 
     29 N          23.5056  -24.4873  -43.7810 N.am      4 UNK        -0.4463 
     30 CA         23.8821  -23.7974  -42.5350 C.3       4 UNK         0.0283 
     31 CB         25.3917  -23.4771  -42.5271 C.3       4 UNK        -0.1875 
     32 C          23.4398  -24.5554  -41.2590 C.2       4 UNK         0.4949 
     33 O          24.0182  -24.3406  -40.1934 O.2       4 UNK        -0.5039 
     34 N          22.4603  -25.4650  -41.4077 N.am      5 UNK        -0.4663 
     35 CA         22.0428  -26.5108  -40.4656 C.3       5 UNK         0.0242 
     36 CB         21.2852  -25.8934  -39.2726 C.3       5 UNK        -0.1982 
     37 C          23.1783  -27.4662  -40.0228 C.2       5 UNK         0.5017 
     38 O          23.0560  -28.1021  -38.9751 O.2       5 UNK        -0.5012 
     39 N          24.2601  -27.5587  -40.8102 N.am      6 UNK        -0.4439 
     40 CA         25.4723  -28.3112  -40.4924 C.3       6 UNK         0.0297 
     41 CB         26.6951  -27.4414  -40.8414 C.3       6 UNK        -0.2006 
     42 C          25.4691  -29.6521  -41.2403 C.2       6 UNK         0.4892 
     43 O          26.2419  -29.8395  -42.1821 O.2       6 UNK        -0.5089 
     44 N          24.5880  -30.5606  -40.8119 N.am      7 UNK        -0.4243 
     45 CA         24.4405  -31.9146  -41.3415 C.3       7 UNK         0.0196 
     46 CB         23.6423  -31.8799  -42.6606 C.3       7 UNK        -0.2007 
     47 C          23.7504  -32.7928  -40.2892 C.2       7 UNK         0.5020 
     48 O          23.4307  -32.3134  -39.1988 O.2       7 UNK        -0.5147 
     49 N          23.5109  -34.0629  -40.6429 N.am      8 UNK        -0.4734 
     50 CA         22.7146  -35.0054  -39.8467 C.3       8 UNK         0.0238 
     51 CB         22.9680  -36.4359  -40.3504 C.3       8 UNK        -0.1912 
     52 C          21.2062  -34.6867  -39.8624 C.2       8 UNK         0.5038 
     53 O          20.5022  -35.0838  -38.9333 O.2       8 UNK        -0.5046 
     54 N          20.7504  -33.9787  -40.9069 N.am      9 UNK        -0.4200 
     55 CA         19.3795  -33.4704  -41.0985 C.3       9 UNK         0.0839 
     56 C          18.3006  -34.5688  -41.3422 C.2       9 UNK         0.5513 
     57 N          18.6739  -35.7920  -41.6995 N.am      9 UNK        -0.7519 
     58 O          17.1051  -34.3065  -41.2375 O.2       9 UNK        -0.4960 
     59 C59        18.9550  -32.4422  -40.0086 C.3       10 UNK        -0.0876 
     60 S60        20.1367  -31.0582  -39.8425 S.3       10 UNK        -0.2414 
     61 C61        19.2642  -29.7143  -40.6995 C.3       10 UNK         0.0169 
     62 H62        17.4662  -25.8947  -40.7662 H         1 UNK         0.0903 
     63 H63        17.2436  -27.5912  -41.1891 H         1 UNK         0.0903 
     64 H64        18.7891  -26.7834  -41.5236 H         1 UNK         0.0903 
     65 H65        17.6061  -28.1020  -43.6454 H         1 UNK         0.3096 
     66 H66        15.9751  -26.2859  -45.2443 H         1 UNK         0.1121 
     67 H67        15.7863  -28.0393  -46.8312 H         1 UNK         0.0849 
     68 H68        17.1919  -28.8810  -46.2772 H         1 UNK         0.0849 
     69 H69        15.7837  -31.5297  -44.0057 H         1 UNK         0.0865 
     70 H70        16.3991  -31.3388  -45.6244 H         1 UNK         0.0865 
     71 H71        16.9739  -30.2919  -42.0709 H         1 UNK         0.1346 
     72 H72        21.1923  -29.7405  -42.6259 H         1 UNK         0.1412 
     73 H73        18.7053  -30.7533  -45.9655 H         1 UNK         0.1426 
     74 H74        21.1415  -31.0682  -46.0764 H         1 UNK         0.0716 
     75 H75        22.1814  -30.6071  -44.7623 H         1 UNK         0.0716 
     76 H76        23.4323  -28.4454  -44.6351 H         1 UNK         0.0695 
     77 H77        21.9538  -27.8106  -43.9618 H         1 UNK         0.0695 
     78 H78        23.6778  -26.4816  -46.1242 H         1 UNK         0.0983 
     79 H79        21.9065  -25.2849  -46.7159 H         1 UNK         0.3095 
     80 H80        19.6015  -23.4833  -45.2324 H         1 UNK         0.0454 
     81 H81        20.0898  -25.0251  -47.8439 H         1 UNK         0.0851 
     82 H82        20.7969  -23.4862  -47.3669 H         1 UNK         0.0851 
     83 H83        19.0797  -23.5951  -47.6886 H         1 UNK         0.0851 
     84 H84        17.8743  -24.7791  -44.7043 H         1 UNK         0.2976 
     85 H85        22.8096  -24.0154  -44.3411 H         1 UNK         0.3116 
     86 H86        23.3392  -22.8512  -42.5302 H         1 UNK         0.0646 
     87 H87        25.9973  -24.3807  -42.4497 H         1 UNK         0.0847 
     88 H88        25.6529  -22.8399  -41.6813 H         1 UNK         0.0847 
     89 H89        25.6910  -22.9489  -43.4321 H         1 UNK         0.0847 
     90 H90        22.0065  -25.5092  -42.3153 H         1 UNK         0.3040 
     91 H91        21.3394  -27.1319  -41.0197 H         1 UNK         0.1015 
     92 H92        20.4692  -25.2543  -39.6098 H         1 UNK         0.0786 
     93 H93        21.9444  -25.2941  -38.6440 H         1 UNK         0.0786 
     94 H94        20.8471  -26.6676  -38.6413 H         1 UNK         0.0786 
     95 H95        24.2773  -27.0538  -41.6930 H         1 UNK         0.3172 
     96 H96        25.5191  -28.5275  -39.4230 H         1 UNK         0.0595 
     97 H97        26.7227  -27.1856  -41.9015 H         1 UNK         0.0839 
     98 H98        27.6244  -27.9617  -40.6064 H         1 UNK         0.0839 
     99 H99        26.6915  -26.5098  -40.2751 H         1 UNK         0.0839 
    100 H100       24.0090  -30.3601  -40.0033 H         1 UNK         0.2998 
    101 H101       25.4330  -32.3319  -41.5246 H         1 UNK         0.0822 
    102 H102       24.0810  -31.1829  -43.3747 H         1 UNK         0.0787 
    103 H103       23.6255  -32.8564  -43.1449 H         1 UNK         0.0787 
    104 H104       22.6086  -31.5813  -42.4893 H         1 UNK         0.0787 
    105 H105       23.8366  -34.3895  -41.5419 H         1 UNK         0.3055 
    106 H106       23.0459  -34.9435  -38.8073 H         1 UNK         0.1106 
    107 H107       22.4055  -37.1619  -39.7613 H         1 UNK         0.0828 
    108 H108       22.6680  -36.5595  -41.3917 H         1 UNK         0.0828 
    109 H109       24.0214  -36.7044  -40.2694 H         1 UNK         0.0828 
    110 H110       21.4122  -33.7171  -41.6208 H         1 UNK         0.2931 
    111 H111       19.4175  -32.9267  -42.0431 H         1 UNK         0.0412 
    112 H112       19.6500  -36.0202  -41.7975 H         1 UNK         0.3472 
    113 H113       17.9705  -36.4947  -41.8653 H         1 UNK         0.3472 
    114 H114       18.8641  -32.9324  -39.0383 H         1 UNK         0.0970 
    115 H115       17.9662  -32.0359  -40.2272 H         1 UNK         0.0970 
    116 H116       18.2964  -29.5596  -40.2207 H         1 UNK         0.0612 
    117 H117       19.8263  -28.7930  -40.5570 H         1 UNK         0.0612 
@<TRIPOS>BOND
     1    1    2 1    
     2    1   62 1    
     3    1   63 1    
     4    1   64 1    
     5    2    3 2    
     6    2    4 am   BACKBONE|DICT|INTERRES
     7    4    5 1    
     8    4   65 1    
     9    5    6 1    
    10    5   25 1    
    11    5   66 1    
    12    6    7 1    
    13    6   67 1    
    14    6   68 1    
    15    7    8 1    
    16    8    9 1    
    17    8   69 1    
    18    8   70 1    
    19    9   10 ar   
    20    9   14 ar   
    21   10   11 ar   
    22   10   71 1    
    23   11   12 ar   
    24   11   61 1    
    25   12   13 ar   
    26   12   72 1    
    27   13   14 ar   
    28   13   15 1    
    29   14   73 1    
    30   15   16 1    
    31   15   74 1    
    32   15   75 1    
    33   16   17 1    
    34   17   18 1    
    35   17   76 1    
    36   17   77 1    
    37   18   19 1    
    38   18   27 1    
    39   18   78 1    
    40   19   20 am   BACKBONE|DICT|INTERRES
    41   19   79 1    
    42   20   21 2    
    43   20   22 1    
    44   22   23 1    
    45   22   24 1    
    46   22   80 1    
    47   23   81 1    
    48   23   82 1    
    49   23   83 1    
    50   24   25 am   BACKBONE|DICT|INTERRES
    51   24   84 1    
    52   25   26 2    
    53   27   28 2    
    54   27   29 am   BACKBONE|DICT|INTERRES
    55   29   30 1    
    56   29   85 1    
    57   30   31 1    
    58   30   32 1    
    59   30   86 1    
    60   31   87 1    
    61   31   88 1    
    62   31   89 1    
    63   32   33 2    
    64   32   34 am   BACKBONE|DICT|INTERRES
    65   34   35 1    
    66   34   90 1    
    67   35   36 1    
    68   35   37 1    
    69   35   91 1    
    70   36   92 1    
    71   36   93 1    
    72   36   94 1    
    73   37   38 2    
    74   37   39 am   BACKBONE|DICT|INTERRES
    75   39   40 1    
    76   39   95 1    
    77   40   41 1    
    78   40   42 1    
    79   40   96 1    
    80   41   97 1    
    81   41   98 1    
    82   41   99 1    
    83   42   43 2    
    84   42   44 am   BACKBONE|DICT|INTERRES
    85   44   45 1    
    86   44  100 1    
    87   45   46 1    
    88   45   47 1    
    89   45  101 1    
    90   46  102 1    
    91   46  103 1    
    92   46  104 1    
    93   47   48 2    
    94   47   49 am   BACKBONE|DICT|INTERRES
    95   49   50 1    
    96   49  105 1    
    97   50   51 1    
    98   50   52 1    
    99   50  106 1    
   100   51  107 1    
   101   51  108 1    
   102   51  109 1    
   103   52   53 2    
   104   52   54 am   BACKBONE|DICT|INTERRES
   105   54   55 1    
   106   54  110 1    
   107   55   56 1    
   108   55   59 1    
   109   55  111 1    
   110   56   57 am   BACKBONE|DICT|INTERRES
   111   56   58 2    
   112   57  112 1    
   113   57  113 1    
   114   59   60 1    
   115   59  114 1    
   116   59  115 1    
   117   60   61 1    
   118   61  116 1    
   119   61  117 1    
@<TRIPOS>SUBSTRUCTURE
     1 UNK         1 GROUP             0       ****    0 ROOT    
