@<TRIPOS>MOLECULE
3R8
117   119    1
SMALL
USER_CHARGES


@<TRIPOS>ATOM
      1 CA         17.5767  -27.5049  -50.4575 C.3       0 UNK        -0.2013 
      2 C          18.5909  -27.5442  -49.3240 C.2       0 UNK         0.4866 
      3 O          19.7770  -27.3051  -49.5545 O.2       0 UNK        -0.5176 
      4 N          18.1369  -27.8533  -48.1033 N.am      1 UNK        -0.4884 
      5 CA         18.9618  -27.8924  -46.8922 C.3       1 UNK         0.0853 
      6 C6         18.2127  -28.5515  -45.7087 C.3       10 UNK        -0.0849 
      7 S7         17.8894  -30.3286  -45.9255 S.3       10 UNK        -0.2776 
      8 C8         16.3057  -30.5095  -45.0367 C.3       10 UNK         0.0316 
      9 C9         16.3852  -30.0369  -43.5877 C.ar      10 UNK        -0.0863 
     10 C10        16.9055  -30.8754  -42.5961 C.ar      10 UNK        -0.1009 
     11 C11        16.9552  -30.4566  -41.2586 C.ar      10 UNK        -0.0712 
     12 C12        16.4689  -29.1885  -40.9273 C.ar      10 UNK        -0.0894 
     13 C13        15.9513  -28.3364  -41.9073 C.ar      10 UNK        -0.0745 
     14 C14        15.9078  -28.7700  -43.2344 C.ar      10 UNK        -0.0972 
     15 C15        15.3941  -26.9690  -41.5270 C.3       10 UNK         0.0209 
     16 S16        16.5806  -25.9536  -40.5862 S.3       10 UNK        -0.2568 
     17 C17        17.7801  -25.4520  -41.8683 C.3       10 UNK        -0.0983 
     18 CA         19.0291  -26.3746  -41.9433 C.3       3 UNK         0.0876 
     19 N          19.7594  -26.2315  -43.2069 N.am      3 UNK        -0.4424 
     20 C          20.3629  -25.1283  -43.6792 C.2       2 UNK         0.4918 
     21 O          20.3996  -24.0513  -43.0852 O.2       2 UNK        -0.4875 
     22 CA         21.0451  -25.2425  -45.0602 C.3       2 UNK         0.0481 
     23 CB         22.5707  -25.3219  -44.8950 C.3       2 UNK        -0.1831 
     24 N          20.5845  -26.4046  -45.8291 N.am      2 UNK        -0.4498 
     25 C          19.4005  -26.4803  -46.4543 C.2       1 UNK         0.5027 
     26 O          18.6314  -25.5254  -46.5894 O.2       1 UNK        -0.4969 
     27 C          19.9879  -26.2767  -40.7352 C.2       3 UNK         0.5005 
     28 O          19.8266  -25.4163  -39.8667 O.2       3 UNK        -0.5279 
     29 N          20.9855  -27.1700  -40.7114 N.am      4 UNK        -0.4463 
     30 CA         21.9254  -27.3486  -39.6107 C.3       4 UNK         0.0283 
     31 CB         23.0816  -26.3377  -39.7177 C.3       4 UNK        -0.1875 
     32 C          22.4492  -28.7858  -39.6491 C.2       4 UNK         0.4949 
     33 O          22.6626  -29.3279  -40.7378 O.2       4 UNK        -0.5039 
     34 N          22.6849  -29.3593  -38.4621 N.am      5 UNK        -0.4663 
     35 CA         23.2496  -30.7022  -38.2721 C.3       5 UNK         0.0242 
     36 CB         23.0113  -31.1496  -36.8213 C.3       5 UNK        -0.1982 
     37 C          24.7443  -30.7943  -38.6285 C.2       5 UNK         0.5017 
     38 O          25.2374  -31.8876  -38.9022 O.2       5 UNK        -0.5012 
     39 N          25.4307  -29.6443  -38.6344 N.am      6 UNK        -0.4439 
     40 CA         26.8075  -29.4872  -39.1064 C.3       6 UNK         0.0297 
     41 CB         27.4249  -28.2564  -38.4202 C.3       6 UNK        -0.2006 
     42 C          26.9061  -29.3566  -40.6403 C.2       6 UNK         0.4892 
     43 O          28.0225  -29.3375  -41.1610 O.2       6 UNK        -0.5089 
     44 N          25.7620  -29.2419  -41.3288 N.am      7 UNK        -0.4243 
     45 CA         25.6529  -29.0706  -42.7734 C.3       7 UNK         0.0196 
     46 CB         25.1134  -27.6552  -43.0674 C.3       7 UNK        -0.2007 
     47 C          24.7918  -30.2076  -43.3469 C.2       7 UNK         0.5020 
     48 O          25.0553  -31.3735  -43.0493 O.2       7 UNK        -0.5147 
     49 N          23.7910  -29.8611  -44.1682 N.am      8 UNK        -0.4734 
     50 CA         22.9423  -30.7819  -44.9344 C.3       8 UNK         0.0238 
     51 CB         21.9702  -29.9643  -45.7992 C.3       8 UNK        -0.1912 
     52 C          22.1588  -31.8120  -44.1024 C.2       8 UNK         0.5038 
     53 O          21.8751  -32.8927  -44.6209 O.2       8 UNK        -0.5046 
     54 N          21.8272  -31.4701  -42.8502 N.am      9 UNK        -0.4200 
     55 CA         21.1637  -32.3748  -41.9000 C.3       9 UNK         0.0839 
     56 C          22.1566  -33.2511  -41.0779 C.2       9 UNK         0.5513 
     57 N          23.4650  -33.1525  -41.2807 N.am      9 UNK        -0.7519 
     58 O          21.7367  -34.0443  -40.2402 O.2       9 UNK        -0.4960 
     59 C59        20.1454  -31.6079  -41.0102 C.3       10 UNK        -0.0876 
     60 S60        18.6810  -32.6235  -40.6206 S.3       10 UNK        -0.2414 
     61 C61        17.4696  -31.3523  -40.1302 C.3       10 UNK         0.0169 
     62 H62        17.8530  -28.2186  -51.2332 H         1 UNK         0.0903 
     63 H63        16.5716  -27.7494  -50.1145 H         1 UNK         0.0903 
     64 H64        17.5505  -26.5106  -50.9026 H         1 UNK         0.0903 
     65 H65        17.1525  -28.0338  -47.9685 H         1 UNK         0.3096 
     66 H66        19.8547  -28.4775  -47.1212 H         1 UNK         0.1121 
     67 H67        18.7761  -28.4626  -44.7789 H         1 UNK         0.0849 
     68 H68        17.2704  -28.0274  -45.5433 H         1 UNK         0.0849 
     69 H69        15.5289  -29.9631  -45.5741 H         1 UNK         0.0865 
     70 H70        16.0056  -31.5581  -45.0622 H         1 UNK         0.0865 
     71 H71        17.2586  -31.8588  -42.8730 H         1 UNK         0.1346 
     72 H72        16.4834  -28.8621  -39.8961 H         1 UNK         0.1412 
     73 H73        15.4870  -28.1242  -43.9929 H         1 UNK         0.1426 
     74 H74        14.5046  -27.1187  -40.9137 H         1 UNK         0.0716 
     75 H75        15.0667  -26.4152  -42.4083 H         1 UNK         0.0716 
     76 H76        17.2667  -25.4438  -42.8310 H         1 UNK         0.0695 
     77 H77        18.0727  -24.4174  -41.6818 H         1 UNK         0.0695 
     78 H78        18.6631  -27.4025  -41.9424 H         1 UNK         0.0983 
     79 H79        19.8136  -27.0629  -43.7716 H         1 UNK         0.3095 
     80 H80        20.8108  -24.3355  -45.6216 H         1 UNK         0.0454 
     81 H81        22.8686  -26.2061  -44.3334 H         1 UNK         0.0851 
     82 H82        23.0757  -25.3481  -45.8607 H         1 UNK         0.0851 
     83 H83        22.9511  -24.4524  -44.3569 H         1 UNK         0.0851 
     84 H84        21.1829  -27.2165  -45.8120 H         1 UNK         0.2976 
     85 H85        21.0732  -27.8585  -41.4471 H         1 UNK         0.3116 
     86 H86        21.3990  -27.1961  -38.6657 H         1 UNK         0.0646 
     87 H87        23.7909  -26.4621  -38.8988 H         1 UNK         0.0847 
     88 H88        22.7162  -25.3117  -39.6719 H         1 UNK         0.0847 
     89 H89        23.6349  -26.4505  -40.6494 H         1 UNK         0.0847 
     90 H90        22.4723  -28.8399  -37.6213 H         1 UNK         0.3040 
     91 H91        22.7219  -31.3923  -38.9309 H         1 UNK         0.1015 
     92 H92        21.9480  -31.1665  -36.5809 H         1 UNK         0.0786 
     93 H93        23.5088  -30.4922  -36.1071 H         1 UNK         0.0786 
     94 H94        23.3935  -32.1583  -36.6570 H         1 UNK         0.0786 
     95 H95        24.9428  -28.8027  -38.3654 H         1 UNK         0.3172 
     96 H96        27.3862  -30.3663  -38.8146 H         1 UNK         0.0595 
     97 H97        27.4027  -28.3532  -37.3345 H         1 UNK         0.0839 
     98 H98        26.9012  -27.3378  -38.6880 H         1 UNK         0.0839 
     99 H99        28.4694  -28.1303  -38.7091 H         1 UNK         0.0839 
    100 H100       24.8830  -29.3464  -40.8378 H         1 UNK         0.2998 
    101 H101       26.6336  -29.1644  -43.2442 H         1 UNK         0.0822 
    102 H102       25.7403  -26.8947  -42.6012 H         1 UNK         0.0787 
    103 H103       25.1096  -27.4447  -44.1377 H         1 UNK         0.0787 
    104 H104       24.0999  -27.5218  -42.6883 H         1 UNK         0.0787 
    105 H105       23.6592  -28.8770  -44.3452 H         1 UNK         0.3055 
    106 H106       23.5999  -31.3477  -45.5981 H         1 UNK         0.1106 
    107 H107       21.2931  -29.3742  -45.1820 H         1 UNK         0.0828 
    108 H108       22.5015  -29.2924  -46.4734 H         1 UNK         0.0828 
    109 H109       21.3546  -30.6194  -46.4182 H         1 UNK         0.0828 
    110 H110       22.1621  -30.5935  -42.4696 H         1 UNK         0.2931 
    111 H111       20.5894  -33.0894  -42.4928 H         1 UNK         0.0412 
    112 H112       23.8507  -32.5078  -41.9625 H         1 UNK         0.3472 
    113 H113       24.0903  -33.7091  -40.7201 H         1 UNK         0.3472 
    114 H114       19.7940  -30.7145  -41.5286 H         1 UNK         0.0970 
    115 H115       20.6005  -31.2539  -40.0844 H         1 UNK         0.0970 
    116 H116       17.9175  -30.7433  -39.3431 H         1 UNK         0.0612 
    117 H117       16.6130  -31.8557  -39.6806 H         1 UNK         0.0612 
@<TRIPOS>BOND
     1    1    2 1    
     2    1   62 1    
     3    1   63 1    
     4    1   64 1    
     5    2    3 2    
     6    2    4 am   BACKBONE|DICT|INTERRES
     7    4    5 1    
     8    4   65 1    
     9    5    6 1    
    10    5   25 1    
    11    5   66 1    
    12    6    7 1    
    13    6   67 1    
    14    6   68 1    
    15    7    8 1    
    16    8    9 1    
    17    8   69 1    
    18    8   70 1    
    19    9   10 ar   
    20    9   14 ar   
    21   10   11 ar   
    22   10   71 1    
    23   11   12 ar   
    24   11   61 1    
    25   12   13 ar   
    26   12   72 1    
    27   13   14 ar   
    28   13   15 1    
    29   14   73 1    
    30   15   16 1    
    31   15   74 1    
    32   15   75 1    
    33   16   17 1    
    34   17   18 1    
    35   17   76 1    
    36   17   77 1    
    37   18   19 1    
    38   18   27 1    
    39   18   78 1    
    40   19   20 am   BACKBONE|DICT|INTERRES
    41   19   79 1    
    42   20   21 2    
    43   20   22 1    
    44   22   23 1    
    45   22   24 1    
    46   22   80 1    
    47   23   81 1    
    48   23   82 1    
    49   23   83 1    
    50   24   25 am   BACKBONE|DICT|INTERRES
    51   24   84 1    
    52   25   26 2    
    53   27   28 2    
    54   27   29 am   BACKBONE|DICT|INTERRES
    55   29   30 1    
    56   29   85 1    
    57   30   31 1    
    58   30   32 1    
    59   30   86 1    
    60   31   87 1    
    61   31   88 1    
    62   31   89 1    
    63   32   33 2    
    64   32   34 am   BACKBONE|DICT|INTERRES
    65   34   35 1    
    66   34   90 1    
    67   35   36 1    
    68   35   37 1    
    69   35   91 1    
    70   36   92 1    
    71   36   93 1    
    72   36   94 1    
    73   37   38 2    
    74   37   39 am   BACKBONE|DICT|INTERRES
    75   39   40 1    
    76   39   95 1    
    77   40   41 1    
    78   40   42 1    
    79   40   96 1    
    80   41   97 1    
    81   41   98 1    
    82   41   99 1    
    83   42   43 2    
    84   42   44 am   BACKBONE|DICT|INTERRES
    85   44   45 1    
    86   44  100 1    
    87   45   46 1    
    88   45   47 1    
    89   45  101 1    
    90   46  102 1    
    91   46  103 1    
    92   46  104 1    
    93   47   48 2    
    94   47   49 am   BACKBONE|DICT|INTERRES
    95   49   50 1    
    96   49  105 1    
    97   50   51 1    
    98   50   52 1    
    99   50  106 1    
   100   51  107 1    
   101   51  108 1    
   102   51  109 1    
   103   52   53 2    
   104   52   54 am   BACKBONE|DICT|INTERRES
   105   54   55 1    
   106   54  110 1    
   107   55   56 1    
   108   55   59 1    
   109   55  111 1    
   110   56   57 am   BACKBONE|DICT|INTERRES
   111   56   58 2    
   112   57  112 1    
   113   57  113 1    
   114   59   60 1    
   115   59  114 1    
   116   59  115 1    
   117   60   61 1    
   118   61  116 1    
   119   61  117 1    
@<TRIPOS>SUBSTRUCTURE
     1 UNK         1 GROUP             0       ****    0 ROOT    
