@<TRIPOS>MOLECULE
3R8
117   119    1
SMALL
USER_CHARGES


@<TRIPOS>ATOM
      1 CA         16.3339  -23.0251  -40.2714 C.3       0 UNK        -0.2013 
      2 C          16.8038  -23.7282  -41.5362 C.2       0 UNK         0.4866 
      3 O          17.9205  -23.4839  -41.9938 O.2       0 UNK        -0.5176 
      4 N          15.9582  -24.5933  -42.1099 N.am      1 UNK        -0.4884 
      5 CA         16.2738  -25.4102  -43.2844 C.3       1 UNK         0.0853 
      6 C6         14.9846  -25.9685  -43.9328 C.3       10 UNK        -0.0849 
      7 S7         15.2685  -26.6929  -45.5871 S.3       10 UNK        -0.2776 
      8 C8         14.7902  -28.4390  -45.3488 C.3       10 UNK         0.0316 
      9 C9         15.9798  -29.3915  -45.3873 C.ar      10 UNK        -0.0863 
     10 C10        16.3553  -30.1207  -44.2529 C.ar      10 UNK        -0.1009 
     11 C11        17.3762  -31.0773  -44.3261 C.ar      10 UNK        -0.0712 
     12 C12        18.0312  -31.2902  -45.5430 C.ar      10 UNK        -0.0894 
     13 C13        17.6846  -30.5475  -46.6748 C.ar      10 UNK        -0.0745 
     14 C14        16.6579  -29.6034  -46.5910 C.ar      10 UNK        -0.0972 
     15 C15        18.3851  -30.7881  -48.0029 C.3       10 UNK         0.0209 
     16 S16        19.7063  -29.5733  -48.3012 S.3       10 UNK        -0.2568 
     17 C17        21.0830  -30.2478  -47.3125 C.3       10 UNK        -0.0983 
     18 CA         21.5905  -29.2441  -46.2446 C.3       3 UNK         0.0876 
     19 N          20.5940  -28.9917  -45.1994 N.am      3 UNK        -0.4424 
     20 C          20.1605  -27.7883  -44.8154 C.2       2 UNK         0.4918 
     21 O          20.4684  -26.7255  -45.3602 O.2       2 UNK        -0.4875 
     22 CA         19.2937  -27.7695  -43.5558 C.3       2 UNK         0.0481 
     23 CB         20.1751  -27.6355  -42.2990 C.3       2 UNK        -0.1831 
     24 N          18.3387  -26.6747  -43.6491 N.am      2 UNK        -0.4498 
     25 C          17.2417  -26.5440  -42.8964 C.2       1 UNK         0.5027 
     26 O          16.9544  -27.2837  -41.9514 O.2       1 UNK        -0.4969 
     27 C          22.9109  -29.6976  -45.5822 C.2       3 UNK         0.5005 
     28 O          23.5549  -30.6356  -46.0558 O.2       3 UNK        -0.5279 
     29 N          23.2882  -29.0350  -44.4816 N.am      4 UNK        -0.4463 
     30 CA         24.5213  -29.2510  -43.7336 C.3       4 UNK         0.0283 
     31 CB         24.3458  -30.4097  -42.7349 C.3       4 UNK        -0.1875 
     32 C          24.8433  -27.9481  -43.0012 C.2       4 UNK         0.4949 
     33 O          23.9352  -27.3532  -42.4176 O.2       4 UNK        -0.5039 
     34 N          26.1189  -27.5404  -43.0121 N.am      5 UNK        -0.4663 
     35 CA         26.6005  -26.3065  -42.3740 C.3       5 UNK         0.0242 
     36 CB         28.0477  -26.0350  -42.8157 C.3       5 UNK        -0.1982 
     37 C          26.5002  -26.3276  -40.8383 C.2       5 UNK         0.5017 
     38 O          26.2962  -25.2787  -40.2274 O.2       5 UNK        -0.5012 
     39 N          26.6148  -27.5267  -40.2524 N.am      6 UNK        -0.4439 
     40 CA         26.4330  -27.7916  -38.8227 C.3       6 UNK         0.0297 
     41 CB         27.2758  -29.0228  -38.4433 C.3       6 UNK        -0.2006 
     42 C          24.9569  -28.0031  -38.4263 C.2       6 UNK         0.4892 
     43 O          24.6931  -28.2628  -37.2527 O.2       6 UNK        -0.5089 
     44 N          24.0351  -27.9454  -39.4025 N.am      7 UNK        -0.4243 
     45 CA         22.5911  -28.2127  -39.3173 C.3       7 UNK         0.0196 
     46 CB         21.8950  -27.2786  -38.3064 C.3       7 UNK        -0.2007 
     47 C          22.2196  -29.6920  -39.0867 C.2       7 UNK         0.5020 
     48 O          21.0326  -30.0176  -39.0675 O.2       7 UNK        -0.5147 
     49 N          23.2157  -30.5789  -38.9625 N.am      8 UNK        -0.4734 
     50 CA         23.0634  -32.0234  -38.7709 C.3       8 UNK         0.0238 
     51 CB         24.3076  -32.5542  -38.0330 C.3       8 UNK        -0.1912 
     52 C          22.8113  -32.7483  -40.1074 C.2       8 UNK         0.5038 
     53 O          23.5757  -33.6395  -40.4818 O.2       8 UNK        -0.5046 
     54 N          21.7588  -32.3280  -40.8174 N.am      9 UNK        -0.4200 
     55 CA         21.3419  -32.8679  -42.1202 C.3       9 UNK         0.0839 
     56 C          20.5958  -34.2333  -42.0652 C.2       9 UNK         0.5513 
     57 N          20.2406  -34.7539  -40.8967 N.am      9 UNK        -0.7519 
     58 O          20.3451  -34.8354  -43.1059 O.2       9 UNK        -0.4960 
     59 C59        20.5758  -31.8054  -42.9493 C.3       10 UNK        -0.0876 
     60 S60        19.0740  -31.1713  -42.1211 S.3       10 UNK        -0.2414 
     61 C61        17.7336  -31.9143  -43.1040 C.3       10 UNK         0.0169 
     62 H62        17.0042  -23.2557  -39.4437 H         1 UNK         0.0903 
     63 H63        16.3345  -21.9456  -40.4199 H         1 UNK         0.0903 
     64 H64        15.3264  -23.3273  -39.9860 H         1 UNK         0.0903 
     65 H65        15.0673  -24.7800  -41.6714 H         1 UNK         0.3096 
     66 H66        16.7651  -24.7611  -44.0135 H         1 UNK         0.1121 
     67 H67        14.2653  -25.1586  -44.0662 H         1 UNK         0.0849 
     68 H68        14.4970  -26.6845  -43.2690 H         1 UNK         0.0849 
     69 H69        14.2228  -28.5680  -44.4266 H         1 UNK         0.0865 
     70 H70        14.1033  -28.7143  -46.1506 H         1 UNK         0.0865 
     71 H71        15.8358  -29.9647  -43.3170 H         1 UNK         0.1346 
     72 H72        18.8002  -32.0457  -45.6170 H         1 UNK         0.1412 
     73 H73        16.3714  -29.0441  -47.4716 H         1 UNK         0.1426 
     74 H74        17.6579  -30.7155  -48.8130 H         1 UNK         0.0716 
     75 H75        18.7898  -31.8002  -48.0544 H         1 UNK         0.0716 
     76 H76        21.8776  -30.4910  -48.0204 H         1 UNK         0.0695 
     77 H77        20.7937  -31.1916  -46.8480 H         1 UNK         0.0695 
     78 H78        21.8316  -28.3131  -46.7626 H         1 UNK         0.0983 
     79 H79        20.2599  -29.8032  -44.7015 H         1 UNK         0.3095 
     80 H80        18.7316  -28.7010  -43.5113 H         1 UNK         0.0454 
     81 H81        20.9093  -28.4403  -42.2533 H         1 UNK         0.0851 
     82 H82        19.5851  -27.6945  -41.3845 H         1 UNK         0.0851 
     83 H83        20.7217  -26.6916  -42.2874 H         1 UNK         0.0851 
     84 H84        18.5116  -26.0345  -44.4143 H         1 UNK         0.2976 
     85 H85        22.7404  -28.2464  -44.1601 H         1 UNK         0.3116 
     86 H86        25.3324  -29.4835  -44.4273 H         1 UNK         0.0646 
     87 H87        25.2544  -30.5700  -42.1534 H         1 UNK         0.0847 
     88 H88        23.5367  -30.2141  -42.0308 H         1 UNK         0.0847 
     89 H89        24.1231  -31.3458  -43.2469 H         1 UNK         0.0847 
     90 H90        26.8034  -28.0877  -43.5158 H         1 UNK         0.3040 
     91 H91        25.9754  -25.4821  -42.7253 H         1 UNK         0.1015 
     92 H92        28.4234  -25.1106  -42.3742 H         1 UNK         0.0786 
     93 H93        28.1186  -25.9257  -43.8980 H         1 UNK         0.0786 
     94 H94        28.7214  -26.8376  -42.5131 H         1 UNK         0.0786 
     95 H95        26.7980  -28.3235  -40.8452 H         1 UNK         0.3172 
     96 H96        26.8029  -26.9378  -38.2509 H         1 UNK         0.0595 
     97 H97        26.9424  -29.9210  -38.9646 H         1 UNK         0.0839 
     98 H98        27.2145  -29.2268  -37.3733 H         1 UNK         0.0839 
     99 H99        28.3294  -28.8697  -38.6780 H         1 UNK         0.0839 
    100 H100       24.3541  -27.7021  -40.3333 H         1 UNK         0.2998 
    101 H101       22.2008  -27.9638  -40.3034 H         1 UNK         0.0822 
    102 H102       20.8103  -27.3718  -38.3747 H         1 UNK         0.0787 
    103 H103       22.1728  -27.5096  -37.2779 H         1 UNK         0.0787 
    104 H104       22.1416  -26.2340  -38.4964 H         1 UNK         0.0787 
    105 H105       24.1607  -30.2278  -38.9993 H         1 UNK         0.3055 
    106 H106       22.1943  -32.2090  -38.1350 H         1 UNK         0.1106 
    107 H107       24.4422  -32.0554  -37.0730 H         1 UNK         0.0828 
    108 H108       24.2163  -33.6223  -37.8302 H         1 UNK         0.0828 
    109 H109       25.2178  -32.4095  -38.6167 H         1 UNK         0.0828 
    110 H110       21.1777  -31.5931  -40.4280 H         1 UNK         0.2931 
    111 H111       22.2576  -33.0772  -42.6769 H         1 UNK         0.0412 
    112 H112       20.4345  -34.2638  -40.0386 H         1 UNK         0.3472 
    113 H113       19.7625  -35.6411  -40.8755 H         1 UNK         0.3472 
    114 H114       20.3345  -32.1973  -43.9373 H         1 UNK         0.0970 
    115 H115       21.2376  -30.9572  -43.1246 H         1 UNK         0.0970 
    116 H116       18.0070  -32.9281  -43.4007 H         1 UNK         0.0612 
    117 H117       16.8566  -32.0172  -42.4633 H         1 UNK         0.0612 
@<TRIPOS>BOND
     1    1    2 1    
     2    1   62 1    
     3    1   63 1    
     4    1   64 1    
     5    2    3 2    
     6    2    4 am   BACKBONE|DICT|INTERRES
     7    4    5 1    
     8    4   65 1    
     9    5    6 1    
    10    5   25 1    
    11    5   66 1    
    12    6    7 1    
    13    6   67 1    
    14    6   68 1    
    15    7    8 1    
    16    8    9 1    
    17    8   69 1    
    18    8   70 1    
    19    9   10 ar   
    20    9   14 ar   
    21   10   11 ar   
    22   10   71 1    
    23   11   12 ar   
    24   11   61 1    
    25   12   13 ar   
    26   12   72 1    
    27   13   14 ar   
    28   13   15 1    
    29   14   73 1    
    30   15   16 1    
    31   15   74 1    
    32   15   75 1    
    33   16   17 1    
    34   17   18 1    
    35   17   76 1    
    36   17   77 1    
    37   18   19 1    
    38   18   27 1    
    39   18   78 1    
    40   19   20 am   BACKBONE|DICT|INTERRES
    41   19   79 1    
    42   20   21 2    
    43   20   22 1    
    44   22   23 1    
    45   22   24 1    
    46   22   80 1    
    47   23   81 1    
    48   23   82 1    
    49   23   83 1    
    50   24   25 am   BACKBONE|DICT|INTERRES
    51   24   84 1    
    52   25   26 2    
    53   27   28 2    
    54   27   29 am   BACKBONE|DICT|INTERRES
    55   29   30 1    
    56   29   85 1    
    57   30   31 1    
    58   30   32 1    
    59   30   86 1    
    60   31   87 1    
    61   31   88 1    
    62   31   89 1    
    63   32   33 2    
    64   32   34 am   BACKBONE|DICT|INTERRES
    65   34   35 1    
    66   34   90 1    
    67   35   36 1    
    68   35   37 1    
    69   35   91 1    
    70   36   92 1    
    71   36   93 1    
    72   36   94 1    
    73   37   38 2    
    74   37   39 am   BACKBONE|DICT|INTERRES
    75   39   40 1    
    76   39   95 1    
    77   40   41 1    
    78   40   42 1    
    79   40   96 1    
    80   41   97 1    
    81   41   98 1    
    82   41   99 1    
    83   42   43 2    
    84   42   44 am   BACKBONE|DICT|INTERRES
    85   44   45 1    
    86   44  100 1    
    87   45   46 1    
    88   45   47 1    
    89   45  101 1    
    90   46  102 1    
    91   46  103 1    
    92   46  104 1    
    93   47   48 2    
    94   47   49 am   BACKBONE|DICT|INTERRES
    95   49   50 1    
    96   49  105 1    
    97   50   51 1    
    98   50   52 1    
    99   50  106 1    
   100   51  107 1    
   101   51  108 1    
   102   51  109 1    
   103   52   53 2    
   104   52   54 am   BACKBONE|DICT|INTERRES
   105   54   55 1    
   106   54  110 1    
   107   55   56 1    
   108   55   59 1    
   109   55  111 1    
   110   56   57 am   BACKBONE|DICT|INTERRES
   111   56   58 2    
   112   57  112 1    
   113   57  113 1    
   114   59   60 1    
   115   59  114 1    
   116   59  115 1    
   117   60   61 1    
   118   61  116 1    
   119   61  117 1    
@<TRIPOS>SUBSTRUCTURE
     1 UNK         1 GROUP             0       ****    0 ROOT    
