@<TRIPOS>MOLECULE
3R8
117   119    1
SMALL
USER_CHARGES


@<TRIPOS>ATOM
      1 CA         17.7106  -27.4958  -39.5272 C.3       0 UNK        -0.2013 
      2 C          17.7536  -27.4404  -41.0457 C.2       0 UNK         0.4866 
      3 O          18.8360  -27.4566  -41.6349 O.2       0 UNK        -0.5176 
      4 N          16.5730  -27.3557  -41.6762 N.am      1 UNK        -0.4884 
      5 CA         16.3229  -27.2984  -43.1239 C.3       1 UNK         0.0853 
      6 C6         16.8472  -28.5542  -43.8770 C.3       10 UNK        -0.0849 
      7 S7         16.1340  -28.7225  -45.5476 S.3       10 UNK        -0.2776 
      8 C8         16.3758  -30.5014  -45.8768 C.3       10 UNK         0.0316 
      9 C9         17.8416  -30.9274  -45.9198 C.ar      10 UNK        -0.0863 
     10 C10        18.2399  -32.1066  -45.2805 C.ar      10 UNK        -0.1009 
     11 C11        19.5707  -32.5320  -45.3344 C.ar      10 UNK        -0.0712 
     12 C12        20.5126  -31.7594  -46.0196 C.ar      10 UNK        -0.0894 
     13 C13        20.1292  -30.5855  -46.6743 C.ar      10 UNK        -0.0745 
     14 C14        18.7907  -30.1820  -46.6300 C.ar      10 UNK        -0.0972 
     15 C15        21.1558  -29.7818  -47.4638 C.3       10 UNK         0.0209 
     16 S16        21.3053  -28.0590  -46.8934 S.3       10 UNK        -0.2568 
     17 C17        22.0031  -28.2822  -45.2218 C.3       10 UNK        -0.0983 
     18 CA         22.0362  -26.9530  -44.4230 C.3       3 UNK         0.0876 
     19 N          20.6999  -26.3543  -44.3442 N.am      3 UNK        -0.4424 
     20 C          20.4153  -25.0523  -44.2100 C.2       2 UNK         0.4918 
     21 O          21.2636  -24.1797  -44.0308 O.2       2 UNK        -0.4875 
     22 CA         18.9282  -24.6711  -44.2710 C.3       2 UNK         0.0481 
     23 CB         18.5579  -24.3475  -45.7344 C.3       2 UNK        -0.1831 
     24 N          18.1296  -25.7704  -43.7201 N.am      2 UNK        -0.4498 
     25 C          16.8097  -25.9745  -43.7550 C.2       1 UNK         0.5027 
     26 O          15.9913  -25.1870  -44.2319 O.2       1 UNK        -0.4969 
     27 C          22.7045  -27.1485  -43.0429 C.2       3 UNK         0.5005 
     28 O          23.7514  -27.7942  -42.9797 O.2       3 UNK        -0.5279 
     29 N          22.1160  -26.5926  -41.9711 N.am      4 UNK        -0.4463 
     30 CA         22.4843  -26.7408  -40.5555 C.3       4 UNK         0.0283 
     31 CB         21.6035  -25.8051  -39.7132 C.3       4 UNK        -0.1875 
     32 C          23.9673  -26.5292  -40.1996 C.2       4 UNK         0.4949 
     33 O          24.4324  -27.1082  -39.2181 O.2       4 UNK        -0.5039 
     34 N          24.6872  -25.7305  -40.9993 N.am      5 UNK        -0.4663 
     35 CA         26.1373  -25.5403  -40.8989 C.3       5 UNK         0.0242 
     36 CB         26.5550  -24.3734  -41.8082 C.3       5 UNK        -0.1982 
     37 C          26.9496  -26.8062  -41.2400 C.2       5 UNK         0.5017 
     38 O          28.0637  -26.9523  -40.7355 O.2       5 UNK        -0.5012 
     39 N          26.3861  -27.6874  -42.0775 N.am      6 UNK        -0.4439 
     40 CA         26.9440  -28.9880  -42.4399 C.3       6 UNK         0.0297 
     41 CB         26.8072  -29.2062  -43.9569 C.3       6 UNK        -0.2006 
     42 C          26.2388  -30.1044  -41.6568 C.2       6 UNK         0.4892 
     43 O          26.9183  -30.8970  -41.0031 O.2       6 UNK        -0.5089 
     44 N          24.9006  -30.1418  -41.7184 N.am      7 UNK        -0.4243 
     45 CA         24.0539  -31.1119  -41.0270 C.3       7 UNK         0.0196 
     46 CB         24.1298  -32.4929  -41.7082 C.3       7 UNK        -0.2007 
     47 C          22.6122  -30.5972  -41.0199 C.2       7 UNK         0.5020 
     48 O          22.0854  -30.2609  -42.0796 O.2       7 UNK        -0.5147 
     49 N          21.9932  -30.5580  -39.8333 N.am      8 UNK        -0.4734 
     50 CA         20.6008  -30.1308  -39.6490 C.3       8 UNK         0.0238 
     51 CB         20.3803  -29.7600  -38.1731 C.3       8 UNK        -0.1912 
     52 C          19.5754  -31.1824  -40.1065 C.2       8 UNK         0.5038 
     53 O          18.4599  -30.8121  -40.4717 O.2       8 UNK        -0.5046 
     54 N          19.9692  -32.4638  -40.0712 N.am      9 UNK        -0.4200 
     55 CA         19.1903  -33.6245  -40.5395 C.3       9 UNK         0.0839 
     56 C          17.8759  -33.9007  -39.7455 C.2       9 UNK         0.5513 
     57 N          17.7278  -33.4012  -38.5242 N.am      9 UNK        -0.7519 
     58 O          16.9907  -34.6065  -40.2229 O.2       9 UNK        -0.4960 
     59 C59        18.9795  -33.6093  -42.0810 C.3       10 UNK        -0.0876 
     60 S60        20.5642  -33.6266  -42.9856 S.3       10 UNK        -0.2414 
     61 C61        19.9900  -33.8481  -44.6952 C.3       10 UNK         0.0169 
     62 H62        18.6875  -27.2692  -39.1028 H         1 UNK         0.0903 
     63 H63        16.9955  -26.7766  -39.1284 H         1 UNK         0.0903 
     64 H64        17.4190  -28.4928  -39.1984 H         1 UNK         0.0903 
     65 H65        15.7358  -27.3163  -41.1101 H         1 UNK         0.3096 
     66 H66        15.2354  -27.2972  -43.2200 H         1 UNK         0.1121 
     67 H67        16.5897  -29.4499  -43.3091 H         1 UNK         0.0849 
     68 H68        17.9359  -28.5576  -43.9528 H         1 UNK         0.0849 
     69 H69        15.9176  -30.7437  -46.8365 H         1 UNK         0.0865 
     70 H70        15.8287  -31.0718  -45.1244 H         1 UNK         0.0865 
     71 H71        17.5107  -32.7064  -44.7533 H         1 UNK         0.1346 
     72 H72        21.5425  -32.0869  -46.0590 H         1 UNK         0.1412 
     73 H73        18.4902  -29.2812  -47.1478 H         1 UNK         0.1426 
     74 H74        20.8633  -29.7775  -48.5146 H         1 UNK         0.0716 
     75 H75        22.1394  -30.2524  -47.4215 H         1 UNK         0.0716 
     76 H76        23.0069  -28.6968  -45.3326 H         1 UNK         0.0695 
     77 H77        21.4172  -29.0318  -44.6854 H         1 UNK         0.0695 
     78 H78        22.6808  -26.2591  -44.9670 H         1 UNK         0.0983 
     79 H79        19.9390  -26.9924  -44.5236 H         1 UNK         0.3095 
     80 H80        18.7726  -23.7874  -43.6501 H         1 UNK         0.0454 
     81 H81        18.5767  -25.2391  -46.3624 H         1 UNK         0.0851 
     82 H82        19.2575  -23.6303  -46.1663 H         1 UNK         0.0851 
     83 H83        17.5679  -23.9001  -45.8141 H         1 UNK         0.0851 
     84 H84        18.6435  -26.4334  -43.1407 H         1 UNK         0.2976 
     85 H85        21.2571  -26.0922  -42.1451 H         1 UNK         0.3116 
     86 H86        22.2442  -27.7657  -40.2789 H         1 UNK         0.0646 
     87 H87        20.5445  -25.9991  -39.8773 H         1 UNK         0.0847 
     88 H88        21.7915  -24.7567  -39.9482 H         1 UNK         0.0847 
     89 H89        21.7948  -25.9406  -38.6476 H         1 UNK         0.0847 
     90 H90        24.2191  -25.2936  -41.7802 H         1 UNK         0.3040 
     91 H91        26.3716  -25.2732  -39.8659 H         1 UNK         0.1015 
     92 H92        27.6276  -24.1873  -41.7358 H         1 UNK         0.0786 
     93 H93        26.0484  -23.4497  -41.5275 H         1 UNK         0.0786 
     94 H94        26.3296  -24.5769  -42.8559 H         1 UNK         0.0786 
     95 H95        25.4358  -27.5106  -42.4010 H         1 UNK         0.3172 
     96 H96        28.0075  -29.0236  -42.1940 H         1 UNK         0.0595 
     97 H97        25.7676  -29.1709  -44.2852 H         1 UNK         0.0839 
     98 H98        27.2083  -30.1779  -44.2480 H         1 UNK         0.0839 
     99 H99        27.3575  -28.4484  -44.5146 H         1 UNK         0.0839 
    100 H100       24.4007  -29.4332  -42.2541 H         1 UNK         0.2998 
    101 H101       24.4044  -31.2035  -39.9966 H         1 UNK         0.0822 
    102 H102       25.1361  -32.9094  -41.6666 H         1 UNK         0.0787 
    103 H103       23.4649  -33.2065  -41.2199 H         1 UNK         0.0787 
    104 H104       23.8324  -32.4378  -42.7564 H         1 UNK         0.0787 
    105 H105       22.4973  -30.8423  -39.0048 H         1 UNK         0.3055 
    106 H106       20.4240  -29.2412  -40.2584 H         1 UNK         0.1106 
    107 H107       19.3447  -29.4742  -37.9878 H         1 UNK         0.0828 
    108 H108       21.0048  -28.9153  -37.8812 H         1 UNK         0.0828 
    109 H109       20.6076  -30.5932  -37.5073 H         1 UNK         0.0828 
    110 H110       20.9018  -32.6650  -39.7445 H         1 UNK         0.2931 
    111 H111       19.8148  -34.4903  -40.3162 H         1 UNK         0.0412 
    112 H112       18.4488  -32.8289  -38.1155 H         1 UNK         0.3472 
    113 H113       16.8815  -33.5927  -38.0111 H         1 UNK         0.3472 
    114 H114       18.4068  -34.4823  -42.3986 H         1 UNK         0.0970 
    115 H115       18.4014  -32.7349  -42.3830 H         1 UNK         0.0970 
    116 H116       19.1699  -34.5670  -44.7239 H         1 UNK         0.0612 
    117 H117       20.7994  -34.2941  -45.2751 H         1 UNK         0.0612 
@<TRIPOS>BOND
     1    1    2 1    
     2    1   62 1    
     3    1   63 1    
     4    1   64 1    
     5    2    3 2    
     6    2    4 am   BACKBONE|DICT|INTERRES
     7    4    5 1    
     8    4   65 1    
     9    5    6 1    
    10    5   25 1    
    11    5   66 1    
    12    6    7 1    
    13    6   67 1    
    14    6   68 1    
    15    7    8 1    
    16    8    9 1    
    17    8   69 1    
    18    8   70 1    
    19    9   10 ar   
    20    9   14 ar   
    21   10   11 ar   
    22   10   71 1    
    23   11   12 ar   
    24   11   61 1    
    25   12   13 ar   
    26   12   72 1    
    27   13   14 ar   
    28   13   15 1    
    29   14   73 1    
    30   15   16 1    
    31   15   74 1    
    32   15   75 1    
    33   16   17 1    
    34   17   18 1    
    35   17   76 1    
    36   17   77 1    
    37   18   19 1    
    38   18   27 1    
    39   18   78 1    
    40   19   20 am   BACKBONE|DICT|INTERRES
    41   19   79 1    
    42   20   21 2    
    43   20   22 1    
    44   22   23 1    
    45   22   24 1    
    46   22   80 1    
    47   23   81 1    
    48   23   82 1    
    49   23   83 1    
    50   24   25 am   BACKBONE|DICT|INTERRES
    51   24   84 1    
    52   25   26 2    
    53   27   28 2    
    54   27   29 am   BACKBONE|DICT|INTERRES
    55   29   30 1    
    56   29   85 1    
    57   30   31 1    
    58   30   32 1    
    59   30   86 1    
    60   31   87 1    
    61   31   88 1    
    62   31   89 1    
    63   32   33 2    
    64   32   34 am   BACKBONE|DICT|INTERRES
    65   34   35 1    
    66   34   90 1    
    67   35   36 1    
    68   35   37 1    
    69   35   91 1    
    70   36   92 1    
    71   36   93 1    
    72   36   94 1    
    73   37   38 2    
    74   37   39 am   BACKBONE|DICT|INTERRES
    75   39   40 1    
    76   39   95 1    
    77   40   41 1    
    78   40   42 1    
    79   40   96 1    
    80   41   97 1    
    81   41   98 1    
    82   41   99 1    
    83   42   43 2    
    84   42   44 am   BACKBONE|DICT|INTERRES
    85   44   45 1    
    86   44  100 1    
    87   45   46 1    
    88   45   47 1    
    89   45  101 1    
    90   46  102 1    
    91   46  103 1    
    92   46  104 1    
    93   47   48 2    
    94   47   49 am   BACKBONE|DICT|INTERRES
    95   49   50 1    
    96   49  105 1    
    97   50   51 1    
    98   50   52 1    
    99   50  106 1    
   100   51  107 1    
   101   51  108 1    
   102   51  109 1    
   103   52   53 2    
   104   52   54 am   BACKBONE|DICT|INTERRES
   105   54   55 1    
   106   54  110 1    
   107   55   56 1    
   108   55   59 1    
   109   55  111 1    
   110   56   57 am   BACKBONE|DICT|INTERRES
   111   56   58 2    
   112   57  112 1    
   113   57  113 1    
   114   59   60 1    
   115   59  114 1    
   116   59  115 1    
   117   60   61 1    
   118   61  116 1    
   119   61  117 1    
@<TRIPOS>SUBSTRUCTURE
     1 UNK         1 GROUP             0       ****    0 ROOT    
