@<TRIPOS>MOLECULE
3R8
117   119    1
SMALL
USER_CHARGES


@<TRIPOS>ATOM
      1 CA         21.7212  -24.3932  -39.5720 C.3       0 UNK        -0.2013 
      2 C          20.5215  -24.4539  -40.5064 C.2       0 UNK         0.4866 
      3 O          19.6697  -23.5649  -40.4709 O.2       0 UNK        -0.5176 
      4 N          20.4448  -25.4993  -41.3353 N.am      1 UNK        -0.4884 
      5 CA         19.3908  -25.7057  -42.3317 C.3       1 UNK         0.0853 
      6 C6         19.2673  -27.1996  -42.7226 C.3       10 UNK        -0.0849 
      7 S7         18.8712  -28.2778  -41.3062 S.3       10 UNK        -0.2776 
      8 C8         17.4693  -29.2511  -41.9413 C.3       10 UNK         0.0316 
      9 C9         17.8947  -30.1971  -43.0563 C.ar      10 UNK        -0.0863 
     10 C10        18.5764  -31.3787  -42.7510 C.ar      10 UNK        -0.1009 
     11 C11        18.9561  -32.2614  -43.7666 C.ar      10 UNK        -0.0712 
     12 C12        18.6678  -31.9445  -45.0971 C.ar      10 UNK        -0.0894 
     13 C13        17.9938  -30.7622  -45.4194 C.ar      10 UNK        -0.0745 
     14 C14        17.5941  -29.9019  -44.3899 C.ar      10 UNK        -0.0972 
     15 C15        17.6824  -30.4453  -46.8804 C.3       10 UNK         0.0209 
     16 S16        18.0160  -28.7140  -47.3525 S.3       10 UNK        -0.2568 
     17 C17        19.8001  -28.5718  -46.9954 C.3       10 UNK        -0.0983 
     18 CA         20.3486  -27.1395  -47.2311 C.3       3 UNK         0.0876 
     19 N          19.5633  -26.1437  -46.4939 N.am      3 UNK        -0.4424 
     20 C          19.5133  -24.8270  -46.7344 C.2       2 UNK         0.4918 
     21 O          20.0849  -24.2785  -47.6759 O.2       2 UNK        -0.4875 
     22 CA         18.7264  -23.9745  -45.7159 C.3       2 UNK         0.0481 
     23 CB         17.3129  -23.6829  -46.2436 C.3       2 UNK        -0.1831 
     24 N          18.6318  -24.5876  -44.3811 N.am      2 UNK        -0.4498 
     25 C          19.6821  -24.8747  -43.5959 C.2       1 UNK         0.5027 
     26 O          20.8466  -24.6006  -43.8987 O.2       1 UNK        -0.4969 
     27 C          21.8605  -27.0868  -46.8955 C.2       3 UNK         0.5005 
     28 O          22.6238  -27.8497  -47.4887 O.2       3 UNK        -0.5279 
     29 N          22.2642  -26.2288  -45.9417 N.am      4 UNK        -0.4463 
     30 CA         23.6123  -26.0576  -45.3815 C.3       4 UNK         0.0283 
     31 CB         24.6599  -25.7359  -46.4689 C.3       4 UNK        -0.1875 
     32 C          24.0487  -27.2033  -44.4470 C.2       4 UNK         0.4949 
     33 O          25.2330  -27.3041  -44.1232 O.2       4 UNK        -0.5039 
     34 N          23.0904  -28.0240  -43.9964 N.am      5 UNK        -0.4663 
     35 CA         23.2787  -29.0245  -42.9463 C.3       5 UNK         0.0242 
     36 CB         22.1429  -30.0556  -43.0268 C.3       5 UNK        -0.1982 
     37 C          23.2976  -28.3414  -41.5700 C.2       5 UNK         0.5017 
     38 O          22.5526  -27.3806  -41.3580 O.2       5 UNK        -0.5012 
     39 N          24.1193  -28.8528  -40.6462 N.am      6 UNK        -0.4439 
     40 CA         24.3177  -28.3048  -39.2995 C.3       6 UNK         0.0297 
     41 CB         25.7101  -28.7258  -38.7928 C.3       6 UNK        -0.2006 
     42 C          23.1870  -28.7181  -38.3373 C.2       6 UNK         0.4892 
     43 O          23.4440  -29.3910  -37.3385 O.2       6 UNK        -0.5089 
     44 N          21.9489  -28.3461  -38.6939 N.am      7 UNK        -0.4243 
     45 CA         20.6646  -28.6709  -38.0507 C.3       7 UNK         0.0196 
     46 CB         20.6310  -28.1982  -36.5827 C.3       7 UNK        -0.2007 
     47 C          20.2335  -30.1479  -38.1867 C.2       7 UNK         0.5020 
     48 O          19.1098  -30.4822  -37.8100 O.2       7 UNK        -0.5147 
     49 N          21.1043  -30.9987  -38.7362 N.am      8 UNK        -0.4734 
     50 CA         20.9158  -32.4179  -39.0071 C.3       8 UNK         0.0238 
     51 CB         20.9849  -33.2269  -37.6974 C.3       8 UNK        -0.1912 
     52 C          22.0182  -32.8546  -39.9804 C.2       8 UNK         0.5038 
     53 O          23.0396  -32.1680  -40.0902 O.2       8 UNK        -0.5046 
     54 N          21.7930  -33.9857  -40.6533 N.am      9 UNK        -0.4200 
     55 CA         22.7325  -34.6088  -41.5958 C.3       9 UNK         0.0839 
     56 C          23.3831  -35.8608  -40.9560 C.2       9 UNK         0.5513 
     57 N          24.6329  -36.1494  -41.2906 N.am      9 UNK        -0.7519 
     58 O          22.7565  -36.5913  -40.1902 O.2       9 UNK        -0.4960 
     59 C59        22.0358  -34.9753  -42.9320 C.3       10 UNK        -0.0876 
     60 S60        21.4300  -33.4968  -43.8119 S.3       10 UNK        -0.2414 
     61 C61        19.6553  -33.5682  -43.4262 C.3       10 UNK         0.0169 
     62 H62        21.3979  -24.5136  -38.5384 H         1 UNK         0.0903 
     63 H63        22.4502  -25.1722  -39.7932 H         1 UNK         0.0903 
     64 H64        22.2209  -23.4294  -39.6644 H         1 UNK         0.0903 
     65 H65        21.2025  -26.1803  -41.3574 H         1 UNK         0.3096 
     66 H66        18.4397  -25.3716  -41.9104 H         1 UNK         0.1121 
     67 H67        20.1954  -27.5574  -43.1694 H         1 UNK         0.0849 
     68 H68        18.4968  -27.3270  -43.4838 H         1 UNK         0.0849 
     69 H69        16.6784  -28.5788  -42.2777 H         1 UNK         0.0865 
     70 H70        17.0445  -29.8302  -41.1199 H         1 UNK         0.0865 
     71 H71        18.8050  -31.6107  -41.7199 H         1 UNK         0.1346 
     72 H72        18.9681  -32.6264  -45.8811 H         1 UNK         0.1412 
     73 H73        17.0542  -28.9967  -44.6310 H         1 UNK         0.1426 
     74 H74        16.6296  -30.6611  -47.0661 H         1 UNK         0.0716 
     75 H75        18.2526  -31.0964  -47.5449 H         1 UNK         0.0716 
     76 H76        20.3258  -29.2936  -47.6236 H         1 UNK         0.0695 
     77 H77        19.9749  -28.8790  -45.9624 H         1 UNK         0.0695 
     78 H78        20.2590  -26.9133  -48.2959 H         1 UNK         0.0983 
     79 H79        19.0086  -26.5045  -45.7340 H         1 UNK         0.3095 
     80 H80        19.2538  -23.0245  -45.6078 H         1 UNK         0.0454 
     81 H81        17.3536  -23.2002  -47.2211 H         1 UNK         0.0851 
     82 H82        16.7696  -23.0124  -45.5776 H         1 UNK         0.0851 
     83 H83        16.7259  -24.5953  -46.3564 H         1 UNK         0.0851 
     84 H84        17.7040  -24.8391  -44.0692 H         1 UNK         0.2976 
     85 H85        21.5619  -25.6439  -45.4997 H         1 UNK         0.3116 
     86 H86        23.5418  -25.1777  -44.7401 H         1 UNK         0.0646 
     87 H87        24.8807  -26.6022  -47.0926 H         1 UNK         0.0847 
     88 H88        24.3241  -24.9282  -47.1190 H         1 UNK         0.0847 
     89 H89        25.6014  -25.4176  -46.0198 H         1 UNK         0.0847 
     90 H90        22.1431  -27.8461  -44.2884 H         1 UNK         0.3040 
     91 H91        24.2303  -29.5347  -43.1119 H         1 UNK         0.1015 
     92 H92        22.3171  -30.8788  -42.3348 H         1 UNK         0.0786 
     93 H93        22.0656  -30.4869  -44.0249 H         1 UNK         0.0786 
     94 H94        21.1737  -29.6272  -42.7744 H         1 UNK         0.0786 
     95 H95        24.6421  -29.6883  -40.8698 H         1 UNK         0.3172 
     96 H96        24.3067  -27.2141  -39.3582 H         1 UNK         0.0595 
     97 H97        25.9092  -28.3082  -37.8049 H         1 UNK         0.0839 
     98 H98        26.4987  -28.3705  -39.4564 H         1 UNK         0.0839 
     99 H99        25.8007  -29.8100  -38.7127 H         1 UNK         0.0839 
    100 H100       21.8741  -27.8528  -39.5789 H         1 UNK         0.2998 
    101 H101       19.9151  -28.0901  -38.5886 H         1 UNK         0.0822 
    102 H102       19.6281  -28.2990  -36.1660 H         1 UNK         0.0787 
    103 H103       20.9128  -27.1488  -36.4967 H         1 UNK         0.0787 
    104 H104       21.3006  -28.7810  -35.9500 H         1 UNK         0.0787 
    105 H105       22.0109  -30.6520  -39.0266 H         1 UNK         0.3055 
    106 H106       19.9442  -32.5600  -39.4852 H         1 UNK         0.1106 
    107 H107       21.9386  -33.0824  -37.1878 H         1 UNK         0.0828 
    108 H108       20.1915  -32.9401  -37.0072 H         1 UNK         0.0828 
    109 H109       20.8740  -34.2953  -37.8863 H         1 UNK         0.0828 
    110 H110       20.9680  -34.5284  -40.4442 H         1 UNK         0.2931 
    111 H111       23.5356  -33.9057  -41.8278 H         1 UNK         0.0412 
    112 H112       25.1522  -35.5617  -41.9248 H         1 UNK         0.3472 
    113 H113       25.0700  -36.9681  -40.8959 H         1 UNK         0.3472 
    114 H114       22.7369  -35.4828  -43.5976 H         1 UNK         0.0970 
    115 H115       21.2158  -35.6773  -42.7690 H         1 UNK         0.0970 
    116 H116       19.1988  -34.3875  -43.9834 H         1 UNK         0.0612 
    117 H117       19.5201  -33.8005  -42.3692 H         1 UNK         0.0612 
@<TRIPOS>BOND
     1    1    2 1    
     2    1   62 1    
     3    1   63 1    
     4    1   64 1    
     5    2    3 2    
     6    2    4 am   BACKBONE|DICT|INTERRES
     7    4    5 1    
     8    4   65 1    
     9    5    6 1    
    10    5   25 1    
    11    5   66 1    
    12    6    7 1    
    13    6   67 1    
    14    6   68 1    
    15    7    8 1    
    16    8    9 1    
    17    8   69 1    
    18    8   70 1    
    19    9   10 ar   
    20    9   14 ar   
    21   10   11 ar   
    22   10   71 1    
    23   11   12 ar   
    24   11   61 1    
    25   12   13 ar   
    26   12   72 1    
    27   13   14 ar   
    28   13   15 1    
    29   14   73 1    
    30   15   16 1    
    31   15   74 1    
    32   15   75 1    
    33   16   17 1    
    34   17   18 1    
    35   17   76 1    
    36   17   77 1    
    37   18   19 1    
    38   18   27 1    
    39   18   78 1    
    40   19   20 am   BACKBONE|DICT|INTERRES
    41   19   79 1    
    42   20   21 2    
    43   20   22 1    
    44   22   23 1    
    45   22   24 1    
    46   22   80 1    
    47   23   81 1    
    48   23   82 1    
    49   23   83 1    
    50   24   25 am   BACKBONE|DICT|INTERRES
    51   24   84 1    
    52   25   26 2    
    53   27   28 2    
    54   27   29 am   BACKBONE|DICT|INTERRES
    55   29   30 1    
    56   29   85 1    
    57   30   31 1    
    58   30   32 1    
    59   30   86 1    
    60   31   87 1    
    61   31   88 1    
    62   31   89 1    
    63   32   33 2    
    64   32   34 am   BACKBONE|DICT|INTERRES
    65   34   35 1    
    66   34   90 1    
    67   35   36 1    
    68   35   37 1    
    69   35   91 1    
    70   36   92 1    
    71   36   93 1    
    72   36   94 1    
    73   37   38 2    
    74   37   39 am   BACKBONE|DICT|INTERRES
    75   39   40 1    
    76   39   95 1    
    77   40   41 1    
    78   40   42 1    
    79   40   96 1    
    80   41   97 1    
    81   41   98 1    
    82   41   99 1    
    83   42   43 2    
    84   42   44 am   BACKBONE|DICT|INTERRES
    85   44   45 1    
    86   44  100 1    
    87   45   46 1    
    88   45   47 1    
    89   45  101 1    
    90   46  102 1    
    91   46  103 1    
    92   46  104 1    
    93   47   48 2    
    94   47   49 am   BACKBONE|DICT|INTERRES
    95   49   50 1    
    96   49  105 1    
    97   50   51 1    
    98   50   52 1    
    99   50  106 1    
   100   51  107 1    
   101   51  108 1    
   102   51  109 1    
   103   52   53 2    
   104   52   54 am   BACKBONE|DICT|INTERRES
   105   54   55 1    
   106   54  110 1    
   107   55   56 1    
   108   55   59 1    
   109   55  111 1    
   110   56   57 am   BACKBONE|DICT|INTERRES
   111   56   58 2    
   112   57  112 1    
   113   57  113 1    
   114   59   60 1    
   115   59  114 1    
   116   59  115 1    
   117   60   61 1    
   118   61  116 1    
   119   61  117 1    
@<TRIPOS>SUBSTRUCTURE
     1 UNK         1 GROUP             0       ****    0 ROOT    
