@<TRIPOS>MOLECULE
3R8
117   119    1
SMALL
USER_CHARGES


@<TRIPOS>ATOM
      1 CA         20.3502  -23.4566  -40.2811 C.3       0 UNK        -0.2013 
      2 C          19.3999  -23.6670  -41.4501 C.2       0 UNK         0.4866 
      3 O          19.0773  -22.7149  -42.1618 O.2       0 UNK        -0.5176 
      4 N          18.9500  -24.9112  -41.6512 N.am      1 UNK        -0.4884 
      5 CA         18.1427  -25.3411  -42.7981 C.3       1 UNK         0.0853 
      6 C6         17.3101  -26.6076  -42.4663 C.3       10 UNK        -0.0849 
      7 S7         18.2781  -27.9992  -41.7857 S.3       10 UNK        -0.2776 
      8 C8         17.0317  -29.3319  -41.7996 C.3       10 UNK         0.0316 
      9 C9         17.2629  -30.3409  -42.9193 C.ar      10 UNK        -0.0863 
     10 C10        17.2537  -31.7110  -42.6357 C.ar      10 UNK        -0.1009 
     11 C11        17.4866  -32.6485  -43.6467 C.ar      10 UNK        -0.0712 
     12 C12        17.7199  -32.2097  -44.9523 C.ar      10 UNK        -0.0894 
     13 C13        17.7438  -30.8448  -45.2465 C.ar      10 UNK        -0.0745 
     14 C14        17.4921  -29.9174  -44.2328 C.ar      10 UNK        -0.0972 
     15 C15        18.0807  -30.3700  -46.6509 C.3       10 UNK         0.0209 
     16 S16        19.7801  -30.8164  -47.1416 S.3       10 UNK        -0.2568 
     17 C17        20.8221  -30.0739  -45.8349 C.3       10 UNK        -0.0983 
     18 CA         21.2995  -28.6520  -46.2181 C.3       3 UNK         0.0876 
     19 N          20.2053  -27.6789  -46.1249 N.am      3 UNK        -0.4424 
     20 C          20.1160  -26.5631  -46.8581 C.2       2 UNK         0.4918 
     21 O          20.9292  -26.2528  -47.7290 O.2       2 UNK        -0.4875 
     22 CA         18.9275  -25.6206  -46.5793 C.3       2 UNK         0.0481 
     23 CB         17.8117  -25.8672  -47.6078 C.3       2 UNK        -0.1831 
     24 N          18.3475  -25.6639  -45.2272 N.am      2 UNK        -0.4498 
     25 C          19.0082  -25.4951  -44.0710 C.2       1 UNK         0.5027 
     26 O          20.2385  -25.4531  -43.9935 O.2       1 UNK        -0.4969 
     27 C          22.5494  -28.2264  -45.4106 C.2       3 UNK         0.5005 
     28 O          23.5907  -28.8695  -45.5579 O.2       3 UNK        -0.5279 
     29 N          22.4523  -27.1505  -44.6110 N.am      4 UNK        -0.4463 
     30 CA         23.4998  -26.5746  -43.7629 C.3       4 UNK         0.0283 
     31 CB         24.6512  -25.9953  -44.6174 C.3       4 UNK        -0.1875 
     32 C          23.9422  -27.5567  -42.6616 C.2       4 UNK         0.4949 
     33 O          23.0768  -28.1251  -41.9944 O.2       4 UNK        -0.5039 
     34 N          25.2607  -27.6990  -42.4502 N.am      5 UNK        -0.4663 
     35 CA         25.9136  -28.5942  -41.4801 C.3       5 UNK         0.0242 
     36 CB         25.7311  -30.0652  -41.9129 C.3       5 UNK        -0.1982 
     37 C          25.4869  -28.3473  -40.0167 C.2       5 UNK         0.5017 
     38 O          25.4109  -29.2934  -39.2327 O.2       5 UNK        -0.5012 
     39 N          25.2037  -27.0766  -39.6871 N.am      6 UNK        -0.4439 
     40 CA         24.6226  -26.5979  -38.4245 C.3       6 UNK         0.0297 
     41 CB         25.5878  -26.8223  -37.2399 C.3       6 UNK        -0.2006 
     42 C          23.2070  -27.1624  -38.1738 C.2       6 UNK         0.4892 
     43 O          22.8740  -27.5073  -37.0389 O.2       6 UNK        -0.5089 
     44 N          22.4113  -27.2275  -39.2526 N.am      7 UNK        -0.4243 
     45 CA         21.0597  -27.7835  -39.3546 C.3       7 UNK         0.0196 
     46 CB         20.0611  -27.0461  -38.4348 C.3       7 UNK        -0.2007 
     47 C          21.0647  -29.3088  -39.1575 C.2       7 UNK         0.5020 
     48 O          20.4451  -29.8163  -38.2202 O.2       7 UNK        -0.5147 
     49 N          21.7814  -30.0112  -40.0415 N.am      8 UNK        -0.4734 
     50 CA         21.9048  -31.4686  -40.0423 C.3       8 UNK         0.0238 
     51 CB         23.1872  -31.8733  -39.2920 C.3       8 UNK        -0.1912 
     52 C          21.8965  -32.0084  -41.4789 C.2       8 UNK         0.5038 
     53 O          21.9547  -31.2353  -42.4374 O.2       8 UNK        -0.5046 
     54 N          21.8303  -33.3369  -41.5923 N.am      9 UNK        -0.4200 
     55 CA         21.7717  -34.0934  -42.8467 C.3       9 UNK         0.0839 
     56 C          22.3074  -35.5360  -42.6517 C.2       9 UNK         0.5513 
     57 N          22.5761  -36.2495  -43.7367 N.am      9 UNK        -0.7519 
     58 O          22.4818  -36.0166  -41.5325 O.2       9 UNK        -0.4960 
     59 C59        20.3607  -34.0485  -43.4977 C.3       10 UNK        -0.0876 
     60 S60        19.0139  -34.5954  -42.3832 S.3       10 UNK        -0.2414 
     61 C61        17.5251  -34.1354  -43.3267 C.3       10 UNK         0.0169 
     62 H62        19.7895  -23.2665  -39.3663 H         1 UNK         0.0903 
     63 H63        20.9863  -24.3278  -40.1267 H         1 UNK         0.0903 
     64 H64        20.9995  -22.6013  -40.4672 H         1 UNK         0.0903 
     65 H65        19.2611  -25.6620  -41.0521 H         1 UNK         0.3096 
     66 H66        17.4327  -24.5396  -43.0166 H         1 UNK         0.1121 
     67 H67        16.5573  -26.3451  -41.7209 H         1 UNK         0.0849 
     68 H68        16.7436  -26.9446  -43.3354 H         1 UNK         0.0849 
     69 H69        17.0684  -29.8296  -40.8293 H         1 UNK         0.0865 
     70 H70        16.0268  -28.9174  -41.8892 H         1 UNK         0.0865 
     71 H71        17.0855  -32.0542  -41.6239 H         1 UNK         0.1346 
     72 H72        17.9220  -32.9273  -45.7359 H         1 UNK         0.1412 
     73 H73        17.5047  -28.8622  -44.4611 H         1 UNK         0.1426 
     74 H74        17.9526  -29.2911  -46.7432 H         1 UNK         0.0716 
     75 H75        17.3813  -30.8203  -47.3565 H         1 UNK         0.0716 
     76 H76        21.6730  -30.7465  -45.7090 H         1 UNK         0.0695 
     77 H77        20.3106  -30.0733  -44.8714 H         1 UNK         0.0695 
     78 H78        21.6352  -28.6896  -47.2572 H         1 UNK         0.0983 
     79 H79        19.5110  -27.8488  -45.4142 H         1 UNK         0.3095 
     80 H80        19.2972  -24.6038  -46.7252 H         1 UNK         0.0454 
     81 H81        18.1989  -25.8174  -48.6267 H         1 UNK         0.0851 
     82 H82        17.0240  -25.1178  -47.5299 H         1 UNK         0.0851 
     83 H83        17.3557  -26.8499  -47.4819 H         1 UNK         0.0851 
     84 H84        17.3385  -25.6971  -45.1932 H         1 UNK         0.2976 
     85 H85        21.5505  -26.6865  -44.5298 H         1 UNK         0.3116 
     86 H86        23.0299  -25.7386  -43.2427 H         1 UNK         0.0646 
     87 H87        24.2665  -25.3158  -45.3781 H         1 UNK         0.0847 
     88 H88        25.2174  -26.7734  -45.1307 H         1 UNK         0.0847 
     89 H89        25.3490  -25.4201  -44.0079 H         1 UNK         0.0847 
     90 H90        25.8864  -27.1714  -43.0435 H         1 UNK         0.3040 
     91 H91        26.9811  -28.3710  -41.5184 H         1 UNK         0.1015 
     92 H92        26.2880  -30.7423  -41.2640 H         1 UNK         0.0786 
     93 H93        26.0901  -30.2253  -42.9295 H         1 UNK         0.0786 
     94 H94        24.6838  -30.3669  -41.8806 H         1 UNK         0.0786 
     95 H95        25.3219  -26.3784  -40.4083 H         1 UNK         0.3172 
     96 H96        24.4978  -25.5202  -38.5395 H         1 UNK         0.0595 
     97 H97        25.2152  -26.3366  -36.3372 H         1 UNK         0.0839 
     98 H98        26.5741  -26.4072  -37.4461 H         1 UNK         0.0839 
     99 H99        25.7100  -27.8808  -37.0085 H         1 UNK         0.0839 
    100 H100       22.8365  -27.0203  -40.1474 H         1 UNK         0.2998 
    101 H101       20.7502  -27.6067  -40.3845 H         1 UNK         0.0822 
    102 H102       20.0791  -25.9704  -38.6009 H         1 UNK         0.0787 
    103 H103       19.0424  -27.3876  -38.6227 H         1 UNK         0.0787 
    104 H104       20.2692  -27.2232  -37.3793 H         1 UNK         0.0787 
    105 H105       22.2211  -29.5320  -40.8257 H         1 UNK         0.3055 
    106 H106       21.0418  -31.9063  -39.5350 H         1 UNK         0.1106 
    107 H107       23.2160  -31.4399  -38.2920 H         1 UNK         0.0828 
    108 H108       23.2567  -32.9552  -39.1757 H         1 UNK         0.0828 
    109 H109       24.0819  -31.5452  -39.8204 H         1 UNK         0.0828 
    110 H110       21.8299  -33.9180  -40.7648 H         1 UNK         0.2931 
    111 H111       22.4722  -33.6165  -43.5354 H         1 UNK         0.0412 
    112 H112       22.4470  -35.8671  -44.6606 H         1 UNK         0.3472 
    113 H113       22.9236  -37.1901  -43.6295 H         1 UNK         0.3472 
    114 H114       20.1637  -33.0221  -43.8091 H         1 UNK         0.0970 
    115 H115       20.3291  -34.6427  -44.4122 H         1 UNK         0.0970 
    116 H116       16.6413  -34.4035  -42.7461 H         1 UNK         0.0612 
    117 H117       17.4855  -34.7312  -44.2400 H         1 UNK         0.0612 
@<TRIPOS>BOND
     1    1    2 1    
     2    1   62 1    
     3    1   63 1    
     4    1   64 1    
     5    2    3 2    
     6    2    4 am   BACKBONE|DICT|INTERRES
     7    4    5 1    
     8    4   65 1    
     9    5    6 1    
    10    5   25 1    
    11    5   66 1    
    12    6    7 1    
    13    6   67 1    
    14    6   68 1    
    15    7    8 1    
    16    8    9 1    
    17    8   69 1    
    18    8   70 1    
    19    9   10 ar   
    20    9   14 ar   
    21   10   11 ar   
    22   10   71 1    
    23   11   12 ar   
    24   11   61 1    
    25   12   13 ar   
    26   12   72 1    
    27   13   14 ar   
    28   13   15 1    
    29   14   73 1    
    30   15   16 1    
    31   15   74 1    
    32   15   75 1    
    33   16   17 1    
    34   17   18 1    
    35   17   76 1    
    36   17   77 1    
    37   18   19 1    
    38   18   27 1    
    39   18   78 1    
    40   19   20 am   BACKBONE|DICT|INTERRES
    41   19   79 1    
    42   20   21 2    
    43   20   22 1    
    44   22   23 1    
    45   22   24 1    
    46   22   80 1    
    47   23   81 1    
    48   23   82 1    
    49   23   83 1    
    50   24   25 am   BACKBONE|DICT|INTERRES
    51   24   84 1    
    52   25   26 2    
    53   27   28 2    
    54   27   29 am   BACKBONE|DICT|INTERRES
    55   29   30 1    
    56   29   85 1    
    57   30   31 1    
    58   30   32 1    
    59   30   86 1    
    60   31   87 1    
    61   31   88 1    
    62   31   89 1    
    63   32   33 2    
    64   32   34 am   BACKBONE|DICT|INTERRES
    65   34   35 1    
    66   34   90 1    
    67   35   36 1    
    68   35   37 1    
    69   35   91 1    
    70   36   92 1    
    71   36   93 1    
    72   36   94 1    
    73   37   38 2    
    74   37   39 am   BACKBONE|DICT|INTERRES
    75   39   40 1    
    76   39   95 1    
    77   40   41 1    
    78   40   42 1    
    79   40   96 1    
    80   41   97 1    
    81   41   98 1    
    82   41   99 1    
    83   42   43 2    
    84   42   44 am   BACKBONE|DICT|INTERRES
    85   44   45 1    
    86   44  100 1    
    87   45   46 1    
    88   45   47 1    
    89   45  101 1    
    90   46  102 1    
    91   46  103 1    
    92   46  104 1    
    93   47   48 2    
    94   47   49 am   BACKBONE|DICT|INTERRES
    95   49   50 1    
    96   49  105 1    
    97   50   51 1    
    98   50   52 1    
    99   50  106 1    
   100   51  107 1    
   101   51  108 1    
   102   51  109 1    
   103   52   53 2    
   104   52   54 am   BACKBONE|DICT|INTERRES
   105   54   55 1    
   106   54  110 1    
   107   55   56 1    
   108   55   59 1    
   109   55  111 1    
   110   56   57 am   BACKBONE|DICT|INTERRES
   111   56   58 2    
   112   57  112 1    
   113   57  113 1    
   114   59   60 1    
   115   59  114 1    
   116   59  115 1    
   117   60   61 1    
   118   61  116 1    
   119   61  117 1    
@<TRIPOS>SUBSTRUCTURE
     1 UNK         1 GROUP             0       ****    0 ROOT    
