@<TRIPOS>MOLECULE
3R8
117   119    1
SMALL
USER_CHARGES


@<TRIPOS>ATOM
      1 CA         17.7496  -24.5278  -39.4513 C.3       0 UNK        -0.2013 
      2 C          17.9371  -24.2513  -40.9357 C.2       0 UNK         0.4866 
      3 O          18.0235  -23.0903  -41.3379 O.2       0 UNK        -0.5176 
      4 N          17.9901  -25.3098  -41.7524 N.am      1 UNK        -0.4884 
      5 CA         18.2371  -25.2455  -43.1965 C.3       1 UNK         0.0853 
      6 C6         17.9226  -26.5961  -43.8904 C.3       10 UNK        -0.0849 
      7 S7         16.1734  -27.0970  -43.7534 S.3       10 UNK        -0.2776 
      8 C8         16.2818  -28.7228  -42.9175 C.3       10 UNK         0.0316 
      9 C9         17.1135  -29.7909  -43.6364 C.ar      10 UNK        -0.0863 
     10 C10        17.6754  -30.8298  -42.8843 C.ar      10 UNK        -0.1009 
     11 C11        18.4225  -31.8405  -43.4986 C.ar      10 UNK        -0.0712 
     12 C12        18.6229  -31.7981  -44.8817 C.ar      10 UNK        -0.0894 
     13 C13        18.0838  -30.7626  -45.6476 C.ar      10 UNK        -0.0745 
     14 C14        17.3082  -29.7798  -45.0241 C.ar      10 UNK        -0.0972 
     15 C15        18.3367  -30.7134  -47.1494 C.3       10 UNK         0.0209 
     16 S16        20.0041  -30.0876  -47.5512 S.3       10 UNK        -0.2568 
     17 C17        19.8618  -28.3374  -47.0521 C.3       10 UNK        -0.0983 
     18 CA         21.1808  -27.6694  -46.5894 C.3       3 UNK         0.0876 
     19 N          20.9232  -26.2754  -46.2264 N.am      3 UNK        -0.4424 
     20 C          21.8205  -25.3696  -45.8114 C.2       2 UNK         0.4918 
     21 O          23.0386  -25.5517  -45.8193 O.2       2 UNK        -0.4875 
     22 CA         21.2447  -24.0454  -45.2701 C.3       2 UNK         0.0481 
     23 CB         21.1745  -22.9918  -46.3864 C.3       2 UNK        -0.1831 
     24 N          19.9113  -24.2291  -44.6792 N.am      2 UNK        -0.4498 
     25 C          19.6960  -24.8410  -43.5041 C.2       1 UNK         0.5027 
     26 O          20.5986  -25.1461  -42.7222 O.2       1 UNK        -0.4969 
     27 C          21.8493  -28.4059  -45.4065 C.2       3 UNK         0.5005 
     28 O          21.3228  -28.3723  -44.2925 O.2       3 UNK        -0.5279 
     29 N          23.0201  -29.0039  -45.6742 N.am      4 UNK        -0.4463 
     30 CA         23.9135  -29.6834  -44.7257 C.3       4 UNK         0.0283 
     31 CB         23.2286  -30.9176  -44.1038 C.3       4 UNK        -0.1875 
     32 C          24.5372  -28.7597  -43.6571 C.2       4 UNK         0.4949 
     33 O          25.0592  -29.2681  -42.6635 O.2       4 UNK        -0.5039 
     34 N          24.4963  -27.4353  -43.8771 N.am      5 UNK        -0.4663 
     35 CA         25.0502  -26.3365  -43.0705 C.3       5 UNK         0.0242 
     36 CB         26.5899  -26.4015  -43.0221 C.3       5 UNK        -0.1982 
     37 C          24.4494  -26.2023  -41.6595 C.2       5 UNK         0.5017 
     38 O          23.8982  -25.1513  -41.3333 O.2       5 UNK        -0.5012 
     39 N          24.5837  -27.2569  -40.8490 N.am      6 UNK        -0.4439 
     40 CA         24.0391  -27.3649  -39.4952 C.3       6 UNK         0.0297 
     41 CB         24.9636  -28.2648  -38.6583 C.3       6 UNK        -0.2006 
     42 C          22.6042  -27.9188  -39.4808 C.2       6 UNK         0.4892 
     43 O          21.9116  -27.7402  -38.4791 O.2       6 UNK        -0.5089 
     44 N          22.2009  -28.6016  -40.5657 N.am      7 UNK        -0.4243 
     45 CA         20.8978  -29.2464  -40.7905 C.3       7 UNK         0.0196 
     46 CB         19.7667  -28.2008  -40.7994 C.3       7 UNK        -0.2007 
     47 C          20.5873  -30.4259  -39.8454 C.2       7 UNK         0.5020 
     48 O          19.4373  -30.8616  -39.7811 O.2       7 UNK        -0.5147 
     49 N          21.6029  -30.9354  -39.1341 N.am      8 UNK        -0.4734 
     50 CA         21.4892  -32.0997  -38.2520 C.3       8 UNK         0.0238 
     51 CB         22.6639  -32.1108  -37.2598 C.3       8 UNK        -0.1912 
     52 C          21.4283  -33.4137  -39.0460 C.2       8 UNK         0.5038 
     53 O          20.6347  -34.2911  -38.7046 O.2       8 UNK        -0.5046 
     54 N          22.2603  -33.5055  -40.0938 N.am      9 UNK        -0.4200 
     55 CA         22.3446  -34.6217  -41.0525 C.3       9 UNK         0.0839 
     56 C          22.7779  -35.9892  -40.4392 C.2       9 UNK         0.5513 
     57 N          23.4305  -36.0134  -39.2832 N.am      9 UNK        -0.7519 
     58 O          22.5518  -37.0426  -41.0299 O.2       9 UNK        -0.4960 
     59 C59        21.0816  -34.7298  -41.9535 C.3       10 UNK        -0.0876 
     60 S60        20.7751  -33.1936  -42.8908 S.3       10 UNK        -0.2414 
     61 C61        18.9795  -32.9970  -42.6764 C.3       10 UNK         0.0169 
     62 H62        16.8366  -24.0530  -39.0930 H         1 UNK         0.0903 
     63 H63        17.6829  -25.5950  -39.2397 H         1 UNK         0.0903 
     64 H64        18.5891  -24.1232  -38.8864 H         1 UNK         0.0903 
     65 H65        17.9185  -26.2387  -41.3663 H         1 UNK         0.3096 
     66 H66        17.5794  -24.4779  -43.6112 H         1 UNK         0.1121 
     67 H67        18.5702  -27.3877  -43.5073 H         1 UNK         0.0849 
     68 H68        18.1352  -26.5303  -44.9577 H         1 UNK         0.0849 
     69 H69        16.6644  -28.5630  -41.9094 H         1 UNK         0.0865 
     70 H70        15.2691  -29.1092  -42.7958 H         1 UNK         0.0865 
     71 H71        17.5212  -30.8597  -41.8139 H         1 UNK         0.1346 
     72 H72        19.2083  -32.5699  -45.3626 H         1 UNK         0.1412 
     73 H73        16.8707  -28.9960  -45.6260 H         1 UNK         0.1426 
     74 H74        17.5892  -30.0940  -47.6477 H         1 UNK         0.0716 
     75 H75        18.2277  -31.7154  -47.5670 H         1 UNK         0.0716 
     76 H76        19.1239  -28.2549  -46.2567 H         1 UNK         0.0695 
     77 H77        19.4484  -27.7896  -47.9004 H         1 UNK         0.0695 
     78 H78        21.8720  -27.6587  -47.4347 H         1 UNK         0.0983 
     79 H79        19.9524  -26.0133  -46.1821 H         1 UNK         0.3095 
     80 H80        21.9230  -23.6773  -44.4972 H         1 UNK         0.0454 
     81 H81        20.5084  -23.2970  -47.1943 H         1 UNK         0.0851 
     82 H82        22.1597  -22.8233  -46.8237 H         1 UNK         0.0851 
     83 H83        20.8238  -22.0327  -46.0052 H         1 UNK         0.0851 
     84 H84        19.1209  -23.9650  -45.2509 H         1 UNK         0.2976 
     85 H85        23.3655  -28.9587  -46.6237 H         1 UNK         0.3116 
     86 H86        24.7527  -30.0467  -45.3204 H         1 UNK         0.0646 
     87 H87        22.4174  -30.6358  -43.4335 H         1 UNK         0.0847 
     88 H88        22.8125  -31.5704  -44.8711 H         1 UNK         0.0847 
     89 H89        23.9345  -31.5129  -43.5236 H         1 UNK         0.0847 
     90 H90        23.9967  -27.1219  -44.7023 H         1 UNK         0.3040 
     91 H91        24.7829  -25.4218  -43.6031 H         1 UNK         0.1015 
     92 H92        26.9979  -25.5525  -42.4719 H         1 UNK         0.0786 
     93 H93        27.0169  -26.3715  -44.0245 H         1 UNK         0.0786 
     94 H94        26.9504  -27.3071  -42.5335 H         1 UNK         0.0786 
     95 H95        25.0099  -28.0887  -41.2544 H         1 UNK         0.3172 
     96 H96        24.0173  -26.3753  -39.0338 H         1 UNK         0.0595 
     97 H97        25.0392  -29.2700  -39.0751 H         1 UNK         0.0839 
     98 H98        24.5951  -28.3617  -37.6359 H         1 UNK         0.0839 
     99 H99        25.9704  -27.8508  -38.5993 H         1 UNK         0.0839 
    100 H100       22.8556  -28.6784  -41.3314 H         1 UNK         0.2998 
    101 H101       20.9437  -29.6769  -41.7919 H         1 UNK         0.0822 
    102 H102       18.8301  -28.6485  -41.1264 H         1 UNK         0.0787 
    103 H103       19.9989  -27.3911  -41.4885 H         1 UNK         0.0787 
    104 H104       19.5977  -27.7701  -39.8123 H         1 UNK         0.0787 
    105 H105       22.5096  -30.5016  -39.2192 H         1 UNK         0.3055 
    106 H106       20.5614  -32.0150  -37.6809 H         1 UNK         0.1106 
    107 H107       22.6701  -31.2103  -36.6453 H         1 UNK         0.0828 
    108 H108       22.5920  -32.9625  -36.5817 H         1 UNK         0.0828 
    109 H109       23.6276  -32.1772  -37.7660 H         1 UNK         0.0828 
    110 H110       22.8722  -32.7267  -40.2832 H         1 UNK         0.2931 
    111 H111       23.1739  -34.3597  -41.7107 H         1 UNK         0.0412 
    112 H112       23.6336  -35.1576  -38.7924 H         1 UNK         0.3472 
    113 H113       23.7176  -36.8989  -38.8963 H         1 UNK         0.3472 
    114 H114       21.1937  -35.5342  -42.6825 H         1 UNK         0.0970 
    115 H115       20.2077  -34.9858  -41.3523 H         1 UNK         0.0970 
    116 H116       18.7664  -32.8592  -41.6152 H         1 UNK         0.0612 
    117 H117       18.4786  -33.9167  -42.9814 H         1 UNK         0.0612 
@<TRIPOS>BOND
     1    1    2 1    
     2    1   62 1    
     3    1   63 1    
     4    1   64 1    
     5    2    3 2    
     6    2    4 am   BACKBONE|DICT|INTERRES
     7    4    5 1    
     8    4   65 1    
     9    5    6 1    
    10    5   25 1    
    11    5   66 1    
    12    6    7 1    
    13    6   67 1    
    14    6   68 1    
    15    7    8 1    
    16    8    9 1    
    17    8   69 1    
    18    8   70 1    
    19    9   10 ar   
    20    9   14 ar   
    21   10   11 ar   
    22   10   71 1    
    23   11   12 ar   
    24   11   61 1    
    25   12   13 ar   
    26   12   72 1    
    27   13   14 ar   
    28   13   15 1    
    29   14   73 1    
    30   15   16 1    
    31   15   74 1    
    32   15   75 1    
    33   16   17 1    
    34   17   18 1    
    35   17   76 1    
    36   17   77 1    
    37   18   19 1    
    38   18   27 1    
    39   18   78 1    
    40   19   20 am   BACKBONE|DICT|INTERRES
    41   19   79 1    
    42   20   21 2    
    43   20   22 1    
    44   22   23 1    
    45   22   24 1    
    46   22   80 1    
    47   23   81 1    
    48   23   82 1    
    49   23   83 1    
    50   24   25 am   BACKBONE|DICT|INTERRES
    51   24   84 1    
    52   25   26 2    
    53   27   28 2    
    54   27   29 am   BACKBONE|DICT|INTERRES
    55   29   30 1    
    56   29   85 1    
    57   30   31 1    
    58   30   32 1    
    59   30   86 1    
    60   31   87 1    
    61   31   88 1    
    62   31   89 1    
    63   32   33 2    
    64   32   34 am   BACKBONE|DICT|INTERRES
    65   34   35 1    
    66   34   90 1    
    67   35   36 1    
    68   35   37 1    
    69   35   91 1    
    70   36   92 1    
    71   36   93 1    
    72   36   94 1    
    73   37   38 2    
    74   37   39 am   BACKBONE|DICT|INTERRES
    75   39   40 1    
    76   39   95 1    
    77   40   41 1    
    78   40   42 1    
    79   40   96 1    
    80   41   97 1    
    81   41   98 1    
    82   41   99 1    
    83   42   43 2    
    84   42   44 am   BACKBONE|DICT|INTERRES
    85   44   45 1    
    86   44  100 1    
    87   45   46 1    
    88   45   47 1    
    89   45  101 1    
    90   46  102 1    
    91   46  103 1    
    92   46  104 1    
    93   47   48 2    
    94   47   49 am   BACKBONE|DICT|INTERRES
    95   49   50 1    
    96   49  105 1    
    97   50   51 1    
    98   50   52 1    
    99   50  106 1    
   100   51  107 1    
   101   51  108 1    
   102   51  109 1    
   103   52   53 2    
   104   52   54 am   BACKBONE|DICT|INTERRES
   105   54   55 1    
   106   54  110 1    
   107   55   56 1    
   108   55   59 1    
   109   55  111 1    
   110   56   57 am   BACKBONE|DICT|INTERRES
   111   56   58 2    
   112   57  112 1    
   113   57  113 1    
   114   59   60 1    
   115   59  114 1    
   116   59  115 1    
   117   60   61 1    
   118   61  116 1    
   119   61  117 1    
@<TRIPOS>SUBSTRUCTURE
     1 UNK         1 GROUP             0       ****    0 ROOT    
