@<TRIPOS>MOLECULE
3R8
117   119    1
SMALL
USER_CHARGES


@<TRIPOS>ATOM
      1 CA         14.2662  -28.7653  -41.6566 C.3       0 UNK        -0.2013 
      2 C          15.3616  -27.7142  -41.5584 C.2       0 UNK         0.4866 
      3 O          15.7790  -27.3657  -40.4544 O.2       0 UNK        -0.5176 
      4 N          15.8340  -27.2085  -42.7070 N.am      1 UNK        -0.4884 
      5 CA         16.9080  -26.2096  -42.8127 C.3       1 UNK         0.0853 
      6 C6         16.8761  -25.4891  -44.1912 C.3       10 UNK        -0.0849 
      7 S7         17.8183  -26.2367  -45.5721 S.3       10 UNK        -0.2776 
      8 C8         16.7812  -27.6434  -46.0936 C.3       10 UNK         0.0316 
      9 C9         17.3953  -28.9616  -45.6423 C.ar      10 UNK        -0.0863 
     10 C10        16.7467  -29.7867  -44.7180 C.ar      10 UNK        -0.1009 
     11 C11        17.3449  -30.9755  -44.2895 C.ar      10 UNK        -0.0712 
     12 C12        18.5985  -31.3336  -44.7948 C.ar      10 UNK        -0.0894 
     13 C13        19.2561  -30.5298  -45.7292 C.ar      10 UNK        -0.0745 
     14 C14        18.6306  -29.3553  -46.1647 C.ar      10 UNK        -0.0972 
     15 C15        20.6197  -30.9830  -46.2568 C.3       10 UNK         0.0209 
     16 S16        21.6472  -29.6721  -47.0117 S.3       10 UNK        -0.2568 
     17 C17        22.5029  -28.9397  -45.5771 C.3       10 UNK        -0.0983 
     18 CA         21.7364  -27.7225  -44.9817 C.3       3 UNK         0.0876 
     19 N          20.6956  -28.1286  -44.0330 N.am      3 UNK        -0.4424 
     20 C          20.8798  -28.6169  -42.7974 C.2       2 UNK         0.4918 
     21 O          21.9849  -28.8506  -42.3074 O.2       2 UNK        -0.4875 
     22 CA         19.6127  -28.8663  -41.9607 C.3       2 UNK         0.0481 
     23 CB         19.8474  -28.6723  -40.4496 C.3       2 UNK        -0.1831 
     24 N          18.4417  -28.0919  -42.3860 N.am      2 UNK        -0.4498 
     25 C          18.3034  -26.7563  -42.4256 C.2       1 UNK         0.5027 
     26 O          19.2185  -25.9646  -42.1904 O.2       1 UNK        -0.4969 
     27 C          22.6367  -26.6080  -44.3904 C.2       3 UNK         0.5005 
     28 O          23.8455  -26.5810  -44.6362 O.2       3 UNK        -0.5279 
     29 N          22.0145  -25.6981  -43.6192 N.am      4 UNK        -0.4463 
     30 CA         22.5995  -24.5209  -42.9733 C.3       4 UNK         0.0283 
     31 CB         22.9126  -23.4341  -44.0269 C.3       4 UNK        -0.1875 
     32 C          23.7943  -24.8908  -42.0751 C.2       4 UNK         0.4949 
     33 O          23.5892  -25.4809  -41.0144 O.2       4 UNK        -0.5039 
     34 N          25.0129  -24.5563  -42.5204 N.am      5 UNK        -0.4663 
     35 CA         26.2773  -24.8060  -41.8247 C.3       5 UNK         0.0242 
     36 CB         27.4041  -24.0606  -42.5589 C.3       5 UNK        -0.1982 
     37 C          26.6366  -26.2941  -41.6568 C.2       5 UNK         0.5017 
     38 O          27.4603  -26.6044  -40.7952 O.2       5 UNK        -0.5012 
     39 N          26.0321  -27.1846  -42.4600 N.am      6 UNK        -0.4439 
     40 CA         26.1953  -28.6378  -42.3360 C.3       6 UNK         0.0297 
     41 CB         25.5750  -29.3339  -43.5542 C.3       6 UNK        -0.2006 
     42 C          25.5861  -29.1959  -41.0365 C.2       6 UNK         0.4892 
     43 O          26.1624  -30.1136  -40.4515 O.2       6 UNK        -0.5089 
     44 N          24.4543  -28.6111  -40.6137 N.am      7 UNK        -0.4243 
     45 CA         23.6945  -28.8903  -39.3923 C.3       7 UNK         0.0196 
     46 CB         24.4572  -28.3495  -38.1645 C.3       7 UNK        -0.2007 
     47 C          23.2815  -30.3691  -39.2427 C.2       7 UNK         0.5020 
     48 O          23.4526  -30.9440  -38.1654 O.2       7 UNK        -0.5147 
     49 N          22.7437  -30.9661  -40.3149 N.am      8 UNK        -0.4734 
     50 CA         22.3019  -32.3612  -40.3316 C.3       8 UNK         0.0238 
     51 CB         23.4870  -33.2731  -40.6985 C.3       8 UNK        -0.1912 
     52 C          21.1420  -32.5655  -41.3133 C.2       8 UNK         0.5038 
     53 O          21.1616  -31.9960  -42.4055 O.2       8 UNK        -0.5046 
     54 N          20.1976  -33.4269  -40.9206 N.am      9 UNK        -0.4200 
     55 CA         19.1290  -33.9857  -41.7586 C.3       9 UNK         0.0839 
     56 C          19.2380  -35.5316  -41.7570 C.2       9 UNK         0.5513 
     57 N          18.8688  -36.1808  -42.8523 N.am      9 UNK        -0.7519 
     58 O          19.6206  -36.1488  -40.7641 O.2       9 UNK        -0.4960 
     59 C59        17.7160  -33.5443  -41.2883 C.3       10 UNK        -0.0876 
     60 S60        17.3610  -31.7894  -41.6366 S.3       10 UNK        -0.2414 
     61 C61        16.6307  -31.8893  -43.3035 C.3       10 UNK         0.0169 
     62 H62        14.6423  -29.7294  -41.3146 H         1 UNK         0.0903 
     63 H63        13.4213  -28.4868  -41.0273 H         1 UNK         0.0903 
     64 H64        13.9011  -28.8839  -42.6764 H         1 UNK         0.0903 
     65 H65        15.4238  -27.5005  -43.5807 H         1 UNK         0.3096 
     66 H66        16.6852  -25.4487  -42.0605 H         1 UNK         0.1121 
     67 H67        15.8475  -25.3166  -44.5126 H         1 UNK         0.0849 
     68 H68        17.2931  -24.4892  -44.0587 H         1 UNK         0.0849 
     69 H69        15.7609  -27.5277  -45.7267 H         1 UNK         0.0865 
     70 H70        16.7116  -27.6423  -47.1825 H         1 UNK         0.0865 
     71 H71        15.7732  -29.5144  -44.3379 H         1 UNK         0.1346 
     72 H72        19.0672  -32.2480  -44.4635 H         1 UNK         0.1412 
     73 H73        19.1083  -28.7222  -46.8989 H         1 UNK         0.1426 
     74 H74        21.1873  -31.4617  -45.4568 H         1 UNK         0.0716 
     75 H75        20.4469  -31.7511  -47.0114 H         1 UNK         0.0716 
     76 H76        22.6773  -29.7103  -44.8260 H         1 UNK         0.0695 
     77 H77        23.4896  -28.6552  -45.9450 H         1 UNK         0.0695 
     78 H78        21.2146  -27.2246  -45.8007 H         1 UNK         0.0983 
     79 H79        19.7427  -28.0056  -44.3472 H         1 UNK         0.3095 
     80 H80        19.3626  -29.9110  -42.1288 H         1 UNK         0.0454 
     81 H81        20.2536  -27.6849  -40.2276 H         1 UNK         0.0851 
     82 H82        18.9213  -28.7902  -39.8869 H         1 UNK         0.0851 
     83 H83        20.5456  -29.4118  -40.0644 H         1 UNK         0.0851 
     84 H84        17.6348  -28.6435  -42.6423 H         1 UNK         0.2976 
     85 H85        21.0373  -25.8588  -43.3990 H         1 UNK         0.3116 
     86 H86        21.8317  -24.1224  -42.3081 H         1 UNK         0.0646 
     87 H87        23.3349  -22.5424  -43.5614 H         1 UNK         0.0847 
     88 H88        22.0045  -23.1214  -44.5424 H         1 UNK         0.0847 
     89 H89        23.6145  -23.7793  -44.7868 H         1 UNK         0.0847 
     90 H90        25.0772  -24.1115  -43.4248 H         1 UNK         0.3040 
     91 H91        26.1875  -24.3882  -40.8194 H         1 UNK         0.1015 
     92 H92        27.2106  -22.9885  -42.6012 H         1 UNK         0.0786 
     93 H93        27.5274  -24.4220  -43.5807 H         1 UNK         0.0786 
     94 H94        28.3592  -24.1944  -42.0488 H         1 UNK         0.0786 
     95 H95        25.3702  -26.8477  -43.1527 H         1 UNK         0.3172 
     96 H96        27.2653  -28.8563  -42.3280 H         1 UNK         0.0595 
     97 H97        25.9939  -28.9614  -44.4891 H         1 UNK         0.0839 
     98 H98        25.7494  -30.4101  -43.5210 H         1 UNK         0.0839 
     99 H99        24.4977  -29.1802  -43.5807 H         1 UNK         0.0839 
    100 H100       24.0575  -27.8874  -41.1997 H         1 UNK         0.2998 
    101 H101       22.7679  -28.3216  -39.4788 H         1 UNK         0.0822 
    102 H102       24.6960  -27.2923  -38.2832 H         1 UNK         0.0787 
    103 H103       23.8603  -28.4466  -37.2568 H         1 UNK         0.0787 
    104 H104       25.3917  -28.8877  -38.0016 H         1 UNK         0.0787 
    105 H105       22.5752  -30.4274  -41.1624 H         1 UNK         0.3055 
    106 H106       21.9467  -32.6326  -39.3344 H         1 UNK         0.1106 
    107 H107       24.2946  -33.1877  -39.9711 H         1 UNK         0.0828 
    108 H108       23.1844  -34.3207  -40.7253 H         1 UNK         0.0828 
    109 H109       23.8941  -33.0237  -41.6793 H         1 UNK         0.0828 
    110 H110       20.3030  -33.8906  -40.0289 H         1 UNK         0.2931 
    111 H111       19.2708  -33.6630  -42.7896 H         1 UNK         0.0412 
    112 H112       18.5452  -35.6877  -43.6701 H         1 UNK         0.3472 
    113 H113       18.9207  -37.1879  -42.8646 H         1 UNK         0.3472 
    114 H114       17.6077  -33.7078  -40.2146 H         1 UNK         0.0970 
    115 H115       16.9366  -34.1514  -41.7534 H         1 UNK         0.0970 
    116 H116       16.6716  -32.9113  -43.6821 H         1 UNK         0.0612 
    117 H117       15.5723  -31.6336  -43.2369 H         1 UNK         0.0612 
@<TRIPOS>BOND
     1    1    2 1    
     2    1   62 1    
     3    1   63 1    
     4    1   64 1    
     5    2    3 2    
     6    2    4 am   BACKBONE|DICT|INTERRES
     7    4    5 1    
     8    4   65 1    
     9    5    6 1    
    10    5   25 1    
    11    5   66 1    
    12    6    7 1    
    13    6   67 1    
    14    6   68 1    
    15    7    8 1    
    16    8    9 1    
    17    8   69 1    
    18    8   70 1    
    19    9   10 ar   
    20    9   14 ar   
    21   10   11 ar   
    22   10   71 1    
    23   11   12 ar   
    24   11   61 1    
    25   12   13 ar   
    26   12   72 1    
    27   13   14 ar   
    28   13   15 1    
    29   14   73 1    
    30   15   16 1    
    31   15   74 1    
    32   15   75 1    
    33   16   17 1    
    34   17   18 1    
    35   17   76 1    
    36   17   77 1    
    37   18   19 1    
    38   18   27 1    
    39   18   78 1    
    40   19   20 am   BACKBONE|DICT|INTERRES
    41   19   79 1    
    42   20   21 2    
    43   20   22 1    
    44   22   23 1    
    45   22   24 1    
    46   22   80 1    
    47   23   81 1    
    48   23   82 1    
    49   23   83 1    
    50   24   25 am   BACKBONE|DICT|INTERRES
    51   24   84 1    
    52   25   26 2    
    53   27   28 2    
    54   27   29 am   BACKBONE|DICT|INTERRES
    55   29   30 1    
    56   29   85 1    
    57   30   31 1    
    58   30   32 1    
    59   30   86 1    
    60   31   87 1    
    61   31   88 1    
    62   31   89 1    
    63   32   33 2    
    64   32   34 am   BACKBONE|DICT|INTERRES
    65   34   35 1    
    66   34   90 1    
    67   35   36 1    
    68   35   37 1    
    69   35   91 1    
    70   36   92 1    
    71   36   93 1    
    72   36   94 1    
    73   37   38 2    
    74   37   39 am   BACKBONE|DICT|INTERRES
    75   39   40 1    
    76   39   95 1    
    77   40   41 1    
    78   40   42 1    
    79   40   96 1    
    80   41   97 1    
    81   41   98 1    
    82   41   99 1    
    83   42   43 2    
    84   42   44 am   BACKBONE|DICT|INTERRES
    85   44   45 1    
    86   44  100 1    
    87   45   46 1    
    88   45   47 1    
    89   45  101 1    
    90   46  102 1    
    91   46  103 1    
    92   46  104 1    
    93   47   48 2    
    94   47   49 am   BACKBONE|DICT|INTERRES
    95   49   50 1    
    96   49  105 1    
    97   50   51 1    
    98   50   52 1    
    99   50  106 1    
   100   51  107 1    
   101   51  108 1    
   102   51  109 1    
   103   52   53 2    
   104   52   54 am   BACKBONE|DICT|INTERRES
   105   54   55 1    
   106   54  110 1    
   107   55   56 1    
   108   55   59 1    
   109   55  111 1    
   110   56   57 am   BACKBONE|DICT|INTERRES
   111   56   58 2    
   112   57  112 1    
   113   57  113 1    
   114   59   60 1    
   115   59  114 1    
   116   59  115 1    
   117   60   61 1    
   118   61  116 1    
   119   61  117 1    
@<TRIPOS>SUBSTRUCTURE
     1 UNK         1 GROUP             0       ****    0 ROOT    
