@<TRIPOS>MOLECULE
3R8
117   119    1
SMALL
USER_CHARGES


@<TRIPOS>ATOM
      1 CA         16.2035  -28.1676  -39.9972 C.3       0 UNK        -0.2013 
      2 C          16.5540  -26.9888  -40.8915 C.2       0 UNK         0.4866 
      3 O          16.6209  -25.8551  -40.4177 O.2       0 UNK        -0.5176 
      4 N          16.7873  -27.2491  -42.1833 N.am      1 UNK        -0.4884 
      5 CA         17.0464  -26.2315  -43.2149 C.3       1 UNK         0.0853 
      6 C6         16.5742  -26.7079  -44.6142 C.3       10 UNK        -0.0849 
      7 S7         14.8114  -27.1854  -44.6319 S.3       10 UNK        -0.2776 
      8 C8         14.7692  -28.4391  -45.9552 C.3       10 UNK         0.0316 
      9 C9         15.6056  -29.6711  -45.6310 C.ar      10 UNK        -0.0863 
     10 C10        15.2879  -30.4732  -44.5309 C.ar      10 UNK        -0.1009 
     11 C11        16.0433  -31.6129  -44.2392 C.ar      10 UNK        -0.0712 
     12 C12        17.1258  -31.9482  -45.0586 C.ar      10 UNK        -0.0894 
     13 C13        17.4593  -31.1509  -46.1587 C.ar      10 UNK        -0.0745 
     14 C14        16.6883  -30.0194  -46.4442 C.ar      10 UNK        -0.0972 
     15 C15        18.6507  -31.5157  -47.0390 C.3       10 UNK         0.0209 
     16 S16        19.8892  -30.1796  -47.1574 S.3       10 UNK        -0.2568 
     17 C17        20.2613  -29.8809  -45.4015 C.3       10 UNK        -0.0983 
     18 CA         21.2813  -28.7317  -45.1890 C.3       3 UNK         0.0876 
     19 N          20.9204  -27.9467  -44.0087 N.am      3 UNK        -0.4424 
     20 C          21.4862  -26.8111  -43.5833 C.2       2 UNK         0.4918 
     21 O          22.4499  -26.2743  -44.1298 O.2       2 UNK        -0.4875 
     22 CA         20.8355  -26.1803  -42.3355 C.3       2 UNK         0.0481 
     23 CB         21.2816  -24.7240  -42.0900 C.3       2 UNK        -0.1831 
     24 N          19.3689  -26.3030  -42.3599 N.am      2 UNK        -0.4498 
     25 C          18.5255  -25.7820  -43.2679 C.2       1 UNK         0.5027 
     26 O          18.8788  -25.0033  -44.1546 O.2       1 UNK        -0.4969 
     27 C          22.7268  -29.2644  -45.1251 C.2       3 UNK         0.5005 
     28 O          23.4377  -29.2339  -46.1309 O.2       3 UNK        -0.5279 
     29 N          23.1395  -29.7145  -43.9323 N.am      4 UNK        -0.4463 
     30 CA         24.4896  -30.1998  -43.6419 C.3       4 UNK         0.0283 
     31 CB         24.4153  -31.1795  -42.4603 C.3       4 UNK        -0.1875 
     32 C          25.4989  -29.0702  -43.3587 C.2       4 UNK         0.4949 
     33 O          26.6863  -29.3624  -43.2120 O.2       4 UNK        -0.5039 
     34 N          25.0266  -27.8171  -43.2610 N.am      5 UNK        -0.4663 
     35 CA         25.7455  -26.5617  -42.9882 C.3       5 UNK         0.0242 
     36 CB         26.7988  -26.2631  -44.0728 C.3       5 UNK        -0.1982 
     37 C          26.3502  -26.4728  -41.5761 C.2       5 UNK         0.5017 
     38 O          26.0902  -25.5019  -40.8657 O.2       5 UNK        -0.5012 
     39 N          27.1185  -27.4954  -41.1851 N.am      6 UNK        -0.4439 
     40 CA         27.6680  -27.6894  -39.8402 C.3       6 UNK         0.0297 
     41 CB         28.9068  -28.5948  -39.9414 C.3       6 UNK        -0.2006 
     42 C          26.6417  -28.2856  -38.8556 C.2       6 UNK         0.4892 
     43 O          26.9255  -28.3577  -37.6592 O.2       6 UNK        -0.5089 
     44 N          25.4821  -28.7079  -39.3692 N.am      7 UNK        -0.4243 
     45 CA         24.3498  -29.2664  -38.6420 C.3       7 UNK         0.0196 
     46 CB         24.5685  -30.7768  -38.4161 C.3       7 UNK        -0.2007 
     47 C          23.0729  -28.9609  -39.4410 C.2       7 UNK         0.5020 
     48 O          23.1356  -28.2328  -40.4355 O.2       7 UNK        -0.5147 
     49 N          21.9432  -29.5156  -38.9851 N.am      8 UNK        -0.4734 
     50 CA         20.6180  -29.3927  -39.5967 C.3       8 UNK         0.0238 
     51 CB         19.5522  -29.7240  -38.5309 C.3       8 UNK        -0.1912 
     52 C          20.4968  -30.2300  -40.8888 C.2       8 UNK         0.5038 
     53 O          21.1751  -29.9315  -41.8712 O.2       8 UNK        -0.5046 
     54 N          19.6129  -31.2335  -40.8946 N.am      9 UNK        -0.4200 
     55 CA         19.3908  -32.1517  -42.0207 C.3       9 UNK         0.0839 
     56 C          20.6358  -33.0306  -42.3251 C.2       9 UNK         0.5513 
     57 N          20.8773  -33.3501  -43.5890 N.am      9 UNK        -0.7519 
     58 O          21.3521  -33.4619  -41.4242 O.2       9 UNK        -0.4960 
     59 C59        18.1447  -33.0405  -41.7802 C.3       10 UNK        -0.0876 
     60 S60        16.6130  -32.0684  -41.5581 S.3       10 UNK        -0.2414 
     61 C61        15.6662  -32.4914  -43.0550 C.3       10 UNK         0.0169 
     62 H62        16.7110  -28.0780  -39.0373 H         1 UNK         0.0903 
     63 H63        15.1302  -28.1877  -39.8111 H         1 UNK         0.0903 
     64 H64        16.4894  -29.1179  -40.4478 H         1 UNK         0.0903 
     65 H65        16.6898  -28.1953  -42.5256 H         1 UNK         0.3096 
     66 H66        16.4718  -25.3365  -42.9646 H         1 UNK         0.1121 
     67 H67        17.1871  -27.5460  -44.9500 H         1 UNK         0.0849 
     68 H68        16.7061  -25.9194  -45.3579 H         1 UNK         0.0849 
     69 H69        13.7351  -28.7474  -46.1147 H         1 UNK         0.0865 
     70 H70        15.0964  -27.9785  -46.8889 H         1 UNK         0.0865 
     71 H71        14.4477  -30.2088  -43.9029 H         1 UNK         0.1346 
     72 H72        17.7056  -32.8334  -44.8400 H         1 UNK         0.1412 
     73 H73        16.9425  -29.4058  -47.2981 H         1 UNK         0.1426 
     74 H74        19.1445  -32.4163  -46.6712 H         1 UNK         0.0716 
     75 H75        18.2906  -31.7514  -48.0413 H         1 UNK         0.0716 
     76 H76        20.5871  -30.8112  -44.9335 H         1 UNK         0.0695 
     77 H77        19.3143  -29.6303  -44.9211 H         1 UNK         0.0695 
     78 H78        21.2283  -28.0414  -46.0339 H         1 UNK         0.0983 
     79 H79        20.1880  -28.3385  -43.4368 H         1 UNK         0.3095 
     80 H80        21.1771  -26.7693  -41.4855 H         1 UNK         0.0454 
     81 H81        20.8026  -24.3058  -41.2051 H         1 UNK         0.0851 
     82 H82        22.3593  -24.6717  -41.9294 H         1 UNK         0.0851 
     83 H83        21.0498  -24.0771  -42.9363 H         1 UNK         0.0851 
     84 H84        18.9592  -26.9025  -41.6583 H         1 UNK         0.2976 
     85 H85        22.4763  -29.7111  -43.1565 H         1 UNK         0.3116 
     86 H86        24.8613  -30.7492  -44.5092 H         1 UNK         0.0646 
     87 H87        23.7916  -32.0409  -42.7001 H         1 UNK         0.0847 
     88 H88        25.4026  -31.5585  -42.1933 H         1 UNK         0.0847 
     89 H89        23.9937  -30.7048  -41.5763 H         1 UNK         0.0847 
     90 H90        24.0291  -27.6996  -43.3906 H         1 UNK         0.3040 
     91 H91        24.9895  -25.7764  -43.0480 H         1 UNK         0.1015 
     92 H92        27.6016  -27.0008  -44.0831 H         1 UNK         0.0786 
     93 H93        27.2587  -25.2877  -43.9087 H         1 UNK         0.0786 
     94 H94        26.3479  -26.2455  -45.0651 H         1 UNK         0.0786 
     95 H95        27.2355  -28.2577  -41.8513 H         1 UNK         0.3172 
     96 H96        27.9811  -26.7216  -39.4432 H         1 UNK         0.0595 
     97 H97        28.6540  -29.5819  -40.3311 H         1 UNK         0.0839 
     98 H98        29.3685  -28.7385  -38.9634 H         1 UNK         0.0839 
     99 H99        29.6641  -28.1599  -40.5940 H         1 UNK         0.0839 
    100 H100       25.2869  -28.5173  -40.3438 H         1 UNK         0.2998 
    101 H101       24.2617  -28.7621  -37.6774 H         1 UNK         0.0822 
    102 H102       23.7722  -31.2126  -37.8123 H         1 UNK         0.0787 
    103 H103       25.5029  -30.9650  -37.8869 H         1 UNK         0.0787 
    104 H104       24.6060  -31.3267  -39.3565 H         1 UNK         0.0787 
    105 H105       22.0025  -30.1106  -38.1715 H         1 UNK         0.3055 
    106 H106       20.4750  -28.3517  -39.8905 H         1 UNK         0.1106 
    107 H107       18.5433  -29.6490  -38.9360 H         1 UNK         0.0828 
    108 H108       19.6740  -30.7291  -38.1247 H         1 UNK         0.0828 
    109 H109       19.6067  -29.0252  -37.6957 H         1 UNK         0.0828 
    110 H110       19.0902  -31.4303  -40.0552 H         1 UNK         0.2931 
    111 H111       19.1967  -31.5336  -42.8996 H         1 UNK         0.0412 
    112 H112       21.6697  -33.9371  -43.7976 H         1 UNK         0.3472 
    113 H113       20.2884  -33.0239  -44.3367 H         1 UNK         0.3472 
    114 H114       18.2854  -33.6560  -40.8896 H         1 UNK         0.0970 
    115 H115       18.0121  -33.7442  -42.6033 H         1 UNK         0.0970 
    116 H116       14.6049  -32.3709  -42.8320 H         1 UNK         0.0612 
    117 H117       15.7982  -33.5454  -43.3034 H         1 UNK         0.0612 
@<TRIPOS>BOND
     1    1    2 1    
     2    1   62 1    
     3    1   63 1    
     4    1   64 1    
     5    2    3 2    
     6    2    4 am   BACKBONE|DICT|INTERRES
     7    4    5 1    
     8    4   65 1    
     9    5    6 1    
    10    5   25 1    
    11    5   66 1    
    12    6    7 1    
    13    6   67 1    
    14    6   68 1    
    15    7    8 1    
    16    8    9 1    
    17    8   69 1    
    18    8   70 1    
    19    9   10 ar   
    20    9   14 ar   
    21   10   11 ar   
    22   10   71 1    
    23   11   12 ar   
    24   11   61 1    
    25   12   13 ar   
    26   12   72 1    
    27   13   14 ar   
    28   13   15 1    
    29   14   73 1    
    30   15   16 1    
    31   15   74 1    
    32   15   75 1    
    33   16   17 1    
    34   17   18 1    
    35   17   76 1    
    36   17   77 1    
    37   18   19 1    
    38   18   27 1    
    39   18   78 1    
    40   19   20 am   BACKBONE|DICT|INTERRES
    41   19   79 1    
    42   20   21 2    
    43   20   22 1    
    44   22   23 1    
    45   22   24 1    
    46   22   80 1    
    47   23   81 1    
    48   23   82 1    
    49   23   83 1    
    50   24   25 am   BACKBONE|DICT|INTERRES
    51   24   84 1    
    52   25   26 2    
    53   27   28 2    
    54   27   29 am   BACKBONE|DICT|INTERRES
    55   29   30 1    
    56   29   85 1    
    57   30   31 1    
    58   30   32 1    
    59   30   86 1    
    60   31   87 1    
    61   31   88 1    
    62   31   89 1    
    63   32   33 2    
    64   32   34 am   BACKBONE|DICT|INTERRES
    65   34   35 1    
    66   34   90 1    
    67   35   36 1    
    68   35   37 1    
    69   35   91 1    
    70   36   92 1    
    71   36   93 1    
    72   36   94 1    
    73   37   38 2    
    74   37   39 am   BACKBONE|DICT|INTERRES
    75   39   40 1    
    76   39   95 1    
    77   40   41 1    
    78   40   42 1    
    79   40   96 1    
    80   41   97 1    
    81   41   98 1    
    82   41   99 1    
    83   42   43 2    
    84   42   44 am   BACKBONE|DICT|INTERRES
    85   44   45 1    
    86   44  100 1    
    87   45   46 1    
    88   45   47 1    
    89   45  101 1    
    90   46  102 1    
    91   46  103 1    
    92   46  104 1    
    93   47   48 2    
    94   47   49 am   BACKBONE|DICT|INTERRES
    95   49   50 1    
    96   49  105 1    
    97   50   51 1    
    98   50   52 1    
    99   50  106 1    
   100   51  107 1    
   101   51  108 1    
   102   51  109 1    
   103   52   53 2    
   104   52   54 am   BACKBONE|DICT|INTERRES
   105   54   55 1    
   106   54  110 1    
   107   55   56 1    
   108   55   59 1    
   109   55  111 1    
   110   56   57 am   BACKBONE|DICT|INTERRES
   111   56   58 2    
   112   57  112 1    
   113   57  113 1    
   114   59   60 1    
   115   59  114 1    
   116   59  115 1    
   117   60   61 1    
   118   61  116 1    
   119   61  117 1    
@<TRIPOS>SUBSTRUCTURE
     1 UNK         1 GROUP             0       ****    0 ROOT    
