@<TRIPOS>MOLECULE
3R8
117   119    1
SMALL
USER_CHARGES


@<TRIPOS>ATOM
      1 CA         18.1409  -27.4578  -41.3594 C.3       0 UNK        -0.2013 
      2 C          17.7575  -26.3431  -42.3156 C.2       0 UNK         0.4866 
      3 O          17.7218  -25.1760  -41.9239 O.2       0 UNK        -0.5176 
      4 N          17.4674  -26.6922  -43.5741 N.am      1 UNK        -0.4884 
      5 CA         16.9454  -25.7917  -44.6116 C.3       1 UNK         0.0853 
      6 C6         16.1014  -26.5504  -45.6726 C.3       10 UNK        -0.0849 
      7 S7         14.7693  -27.5675  -44.9374 S.3       10 UNK        -0.2776 
      8 C8         15.2626  -29.2654  -45.3910 C.3       10 UNK         0.0316 
      9 C9         16.5422  -29.7017  -44.6900 C.ar      10 UNK        -0.0863 
     10 C10        16.4996  -30.2209  -43.3911 C.ar      10 UNK        -0.1009 
     11 C11        17.6787  -30.6005  -42.7397 C.ar      10 UNK        -0.0712 
     12 C12        18.9028  -30.4571  -43.3978 C.ar      10 UNK        -0.0894 
     13 C13        18.9559  -29.9396  -44.6939 C.ar      10 UNK        -0.0745 
     14 C14        17.7729  -29.5794  -45.3413 C.ar      10 UNK        -0.0972 
     15 C15        20.2957  -29.7228  -45.3736 C.3       10 UNK         0.0209 
     16 S16        21.1528  -28.3310  -44.5854 S.3       10 UNK        -0.2568 
     17 C17        21.9690  -27.5089  -45.9960 C.3       10 UNK        -0.0983 
     18 CA         22.4143  -26.0568  -45.6750 C.3       3 UNK         0.0876 
     19 N          21.2769  -25.2557  -45.2235 N.am      3 UNK        -0.4424 
     20 C          21.1532  -23.9315  -45.3506 C.2       2 UNK         0.4918 
     21 O          21.9817  -23.2271  -45.9303 O.2       2 UNK        -0.4875 
     22 CA         19.9083  -23.2770  -44.7114 C.3       2 UNK         0.0481 
     23 CB         19.3924  -22.0782  -45.5352 C.3       2 UNK        -0.1831 
     24 N          18.8103  -24.2057  -44.3973 N.am      2 UNK        -0.4498 
     25 C          18.0656  -24.9320  -45.2456 C.2       1 UNK         0.5027 
     26 O          18.2438  -24.9497  -46.4647 O.2       1 UNK        -0.4969 
     27 C          23.5493  -26.0318  -44.6286 C.2       3 UNK         0.5005 
     28 O          23.3064  -25.7473  -43.4525 O.2       3 UNK        -0.5279 
     29 N          24.7641  -26.4039  -45.0559 N.am      4 UNK        -0.4463 
     30 CA         25.9135  -26.6230  -44.1677 C.3       4 UNK         0.0283 
     31 CB         27.1999  -26.6874  -45.0066 C.3       4 UNK        -0.1875 
     32 C          25.7732  -27.8921  -43.3028 C.2       4 UNK         0.4949 
     33 O          26.3860  -27.9727  -42.2389 O.2       4 UNK        -0.5039 
     34 N          24.9630  -28.8535  -43.7674 N.am      5 UNK        -0.4663 
     35 CA         24.6834  -30.1295  -43.1034 C.3       5 UNK         0.0242 
     36 CB         24.2673  -31.1548  -44.1722 C.3       5 UNK        -0.1982 
     37 C          23.6101  -30.0393  -42.0030 C.2       5 UNK         0.5017 
     38 O          23.3098  -31.0641  -41.3900 O.2       5 UNK        -0.5012 
     39 N          23.0417  -28.8461  -41.7720 N.am      6 UNK        -0.4439 
     40 CA         21.9100  -28.5735  -40.8763 C.3       6 UNK         0.0297 
     41 CB         21.6150  -27.0648  -40.8922 C.3       6 UNK        -0.2006 
     42 C          22.0708  -29.0632  -39.4264 C.2       6 UNK         0.4892 
     43 O          21.0703  -29.4019  -38.7940 O.2       6 UNK        -0.5089 
     44 N          23.3160  -29.1047  -38.9337 N.am      7 UNK        -0.4243 
     45 CA         23.6691  -29.6179  -37.6084 C.3       7 UNK         0.0196 
     46 CB         25.1041  -29.1821  -37.2698 C.3       7 UNK        -0.2007 
     47 C          23.5298  -31.1469  -37.4801 C.2       7 UNK         0.5020 
     48 O          23.3534  -31.6352  -36.3635 O.2       7 UNK        -0.5147 
     49 N          23.6259  -31.8726  -38.6022 N.am      8 UNK        -0.4734 
     50 CA         23.5256  -33.3321  -38.6622 C.3       8 UNK         0.0238 
     51 CB         24.6833  -33.8838  -39.5112 C.3       8 UNK        -0.1912 
     52 C          22.1790  -33.7835  -39.2433 C.2       8 UNK         0.5038 
     53 O          21.5993  -34.7437  -38.7346 O.2       8 UNK        -0.5046 
     54 N          21.7185  -33.1038  -40.3027 N.am      9 UNK        -0.4200 
     55 CA         20.5077  -33.3767  -41.0957 C.3       9 UNK         0.0839 
     56 C          20.5560  -34.6944  -41.9249 C.2       9 UNK         0.5513 
     57 N          21.0310  -35.8013  -41.3706 N.am      9 UNK        -0.7519 
     58 O          20.1824  -34.7049  -43.0944 O.2       9 UNK        -0.4960 
     59 C59        19.2056  -33.2461  -40.2578 C.3       10 UNK        -0.0876 
     60 S60        17.7152  -32.9414  -41.2708 S.3       10 UNK        -0.2414 
     61 C61        17.6414  -31.1235  -41.3115 C.3       10 UNK         0.0169 
     62 H62        18.4814  -27.0533  -40.4071 H         1 UNK         0.0903 
     63 H63        17.2808  -28.0970  -41.1637 H         1 UNK         0.0903 
     64 H64        18.9398  -28.0653  -41.7807 H         1 UNK         0.0903 
     65 H65        17.5201  -27.6678  -43.8404 H         1 UNK         0.3096 
     66 H66        16.2685  -25.0847  -44.1258 H         1 UNK         0.1121 
     67 H67        15.6283  -25.8353  -46.3483 H         1 UNK         0.0849 
     68 H68        16.7363  -27.1697  -46.3055 H         1 UNK         0.0849 
     69 H69        15.3738  -29.3355  -46.4743 H         1 UNK         0.0865 
     70 H70        14.4532  -29.9483  -45.1282 H         1 UNK         0.0865 
     71 H71        15.5496  -30.3162  -42.8828 H         1 UNK         0.1346 
     72 H72        19.8219  -30.7181  -42.8938 H         1 UNK         0.1412 
     73 H73        17.8154  -29.1832  -46.3465 H         1 UNK         0.1426 
     74 H74        20.1596  -29.5327  -46.4391 H         1 UNK         0.0716 
     75 H75        20.9071  -30.6222  -45.2917 H         1 UNK         0.0716 
     76 H76        21.2703  -27.4858  -46.8339 H         1 UNK         0.0695 
     77 H77        22.8100  -28.1204  -46.3272 H         1 UNK         0.0695 
     78 H78        22.8050  -25.6122  -46.5932 H         1 UNK         0.0983 
     79 H79        20.5774  -25.7577  -44.6976 H         1 UNK         0.3095 
     80 H80        20.2444  -22.8886  -43.7492 H         1 UNK         0.0454 
     81 H81        18.5318  -21.6092  -45.0587 H         1 UNK         0.0851 
     82 H82        19.0988  -22.3751  -46.5425 H         1 UNK         0.0851 
     83 H83        20.1605  -21.3105  -45.6357 H         1 UNK         0.0851 
     84 H84        18.5842  -24.3060  -43.4099 H         1 UNK         0.2976 
     85 H85        24.9007  -26.6118  -46.0356 H         1 UNK         0.3116 
     86 H86        25.9919  -25.7702  -43.4897 H         1 UNK         0.0646 
     87 H87        28.0747  -26.8204  -44.3682 H         1 UNK         0.0847 
     88 H88        27.3525  -25.7681  -45.5724 H         1 UNK         0.0847 
     89 H89        27.1837  -27.5191  -45.7120 H         1 UNK         0.0847 
     90 H90        24.4933  -28.6943  -44.6463 H         1 UNK         0.3040 
     91 H91        25.5985  -30.4862  -42.6253 H         1 UNK         0.1015 
     92 H92        25.0427  -31.2766  -44.9287 H         1 UNK         0.0786 
     93 H93        23.3474  -30.8589  -44.6777 H         1 UNK         0.0786 
     94 H94        24.0942  -32.1374  -43.7305 H         1 UNK         0.0786 
     95 H95        23.3529  -28.0680  -42.3377 H         1 UNK         0.3172 
     96 H96        21.0472  -29.0976  -41.2906 H         1 UNK         0.0595 
     97 H97        22.4991  -26.4790  -40.6378 H         1 UNK         0.0839 
     98 H98        20.8383  -26.8023  -40.1735 H         1 UNK         0.0839 
     99 H99        21.2706  -26.7381  -41.8735 H         1 UNK         0.0839 
    100 H100       24.0746  -28.8014  -39.5273 H         1 UNK         0.2998 
    101 H101       22.9931  -29.1665  -36.8788 H         1 UNK         0.0822 
    102 H102       25.8279  -29.5918  -37.9756 H         1 UNK         0.0787 
    103 H103       25.2023  -28.0963  -37.2785 H         1 UNK         0.0787 
    104 H104       25.3909  -29.5234  -36.2740 H         1 UNK         0.0787 
    105 H105       23.7118  -31.3885  -39.4902 H         1 UNK         0.3055 
    106 H106       23.6096  -33.7613  -37.6611 H         1 UNK         0.1106 
    107 H107       24.6344  -34.9716  -39.5791 H         1 UNK         0.0828 
    108 H108       24.6656  -33.4918  -40.5290 H         1 UNK         0.0828 
    109 H109       25.6488  -33.6307  -39.0730 H         1 UNK         0.0828 
    110 H110       22.3019  -32.3568  -40.6733 H         1 UNK         0.2931 
    111 H111       20.5034  -32.5682  -41.8254 H         1 UNK         0.0412 
    112 H112       21.3146  -35.7816  -40.3977 H         1 UNK         0.3472 
    113 H113       21.0746  -36.6556  -41.9034 H         1 UNK         0.3472 
    114 H114       19.0420  -34.1479  -39.6651 H         1 UNK         0.0970 
    115 H115       19.3045  -32.4391  -39.5302 H         1 UNK         0.0970 
    116 H116       16.7285  -30.7981  -40.8108 H         1 UNK         0.0612 
    117 H117       18.4675  -30.6883  -40.7471 H         1 UNK         0.0612 
@<TRIPOS>BOND
     1    1    2 1    
     2    1   62 1    
     3    1   63 1    
     4    1   64 1    
     5    2    3 2    
     6    2    4 am   BACKBONE|DICT|INTERRES
     7    4    5 1    
     8    4   65 1    
     9    5    6 1    
    10    5   25 1    
    11    5   66 1    
    12    6    7 1    
    13    6   67 1    
    14    6   68 1    
    15    7    8 1    
    16    8    9 1    
    17    8   69 1    
    18    8   70 1    
    19    9   10 ar   
    20    9   14 ar   
    21   10   11 ar   
    22   10   71 1    
    23   11   12 ar   
    24   11   61 1    
    25   12   13 ar   
    26   12   72 1    
    27   13   14 ar   
    28   13   15 1    
    29   14   73 1    
    30   15   16 1    
    31   15   74 1    
    32   15   75 1    
    33   16   17 1    
    34   17   18 1    
    35   17   76 1    
    36   17   77 1    
    37   18   19 1    
    38   18   27 1    
    39   18   78 1    
    40   19   20 am   BACKBONE|DICT|INTERRES
    41   19   79 1    
    42   20   21 2    
    43   20   22 1    
    44   22   23 1    
    45   22   24 1    
    46   22   80 1    
    47   23   81 1    
    48   23   82 1    
    49   23   83 1    
    50   24   25 am   BACKBONE|DICT|INTERRES
    51   24   84 1    
    52   25   26 2    
    53   27   28 2    
    54   27   29 am   BACKBONE|DICT|INTERRES
    55   29   30 1    
    56   29   85 1    
    57   30   31 1    
    58   30   32 1    
    59   30   86 1    
    60   31   87 1    
    61   31   88 1    
    62   31   89 1    
    63   32   33 2    
    64   32   34 am   BACKBONE|DICT|INTERRES
    65   34   35 1    
    66   34   90 1    
    67   35   36 1    
    68   35   37 1    
    69   35   91 1    
    70   36   92 1    
    71   36   93 1    
    72   36   94 1    
    73   37   38 2    
    74   37   39 am   BACKBONE|DICT|INTERRES
    75   39   40 1    
    76   39   95 1    
    77   40   41 1    
    78   40   42 1    
    79   40   96 1    
    80   41   97 1    
    81   41   98 1    
    82   41   99 1    
    83   42   43 2    
    84   42   44 am   BACKBONE|DICT|INTERRES
    85   44   45 1    
    86   44  100 1    
    87   45   46 1    
    88   45   47 1    
    89   45  101 1    
    90   46  102 1    
    91   46  103 1    
    92   46  104 1    
    93   47   48 2    
    94   47   49 am   BACKBONE|DICT|INTERRES
    95   49   50 1    
    96   49  105 1    
    97   50   51 1    
    98   50   52 1    
    99   50  106 1    
   100   51  107 1    
   101   51  108 1    
   102   51  109 1    
   103   52   53 2    
   104   52   54 am   BACKBONE|DICT|INTERRES
   105   54   55 1    
   106   54  110 1    
   107   55   56 1    
   108   55   59 1    
   109   55  111 1    
   110   56   57 am   BACKBONE|DICT|INTERRES
   111   56   58 2    
   112   57  112 1    
   113   57  113 1    
   114   59   60 1    
   115   59  114 1    
   116   59  115 1    
   117   60   61 1    
   118   61  116 1    
   119   61  117 1    
@<TRIPOS>SUBSTRUCTURE
     1 UNK         1 GROUP             0       ****    0 ROOT    
