@<TRIPOS>MOLECULE
3R8
117   119    1
SMALL
USER_CHARGES


@<TRIPOS>ATOM
      1 CA         19.2860  -27.1381  -41.0616 C.3       0 UNK        -0.2013 
      2 C          18.4459  -26.1750  -41.8815 C.2       0 UNK         0.4866 
      3 O          18.5274  -24.9609  -41.6882 O.2       0 UNK        -0.5176 
      4 N          17.6403  -26.7045  -42.8097 N.am      1 UNK        -0.4884 
      5 CA         16.7497  -25.9429  -43.6966 C.3       1 UNK         0.0853 
      6 C6         15.4921  -26.7556  -44.1217 C.3       10 UNK        -0.0849 
      7 S7         14.7274  -27.6934  -42.7493 S.3       10 UNK        -0.2776 
      8 C8         14.9336  -29.4245  -43.2965 C.3       10 UNK         0.0316 
      9 C9         16.3845  -29.8003  -43.5841 C.ar      10 UNK        -0.0863 
     10 C10        17.2689  -30.0850  -42.5373 C.ar      10 UNK        -0.1009 
     11 C11        18.5945  -30.4542  -42.7977 C.ar      10 UNK        -0.0712 
     12 C12        19.0181  -30.5477  -44.1299 C.ar      10 UNK        -0.0894 
     13 C13        18.1538  -30.2517  -45.1843 C.ar      10 UNK        -0.0745 
     14 C14        16.8352  -29.8879  -44.9057 C.ar      10 UNK        -0.0972 
     15 C15        18.6463  -30.3425  -46.6229 C.3       10 UNK         0.0209 
     16 S16        19.3561  -28.7696  -47.2088 S.3       10 UNK        -0.2568 
     17 C17        20.9133  -28.6933  -46.2584 C.3       10 UNK        -0.0983 
     18 CA         21.8034  -27.4736  -46.6315 C.3       3 UNK         0.0876 
     19 N          21.0873  -26.1901  -46.5018 N.am      3 UNK        -0.4424 
     20 C          20.6542  -25.6523  -45.3519 C.2       2 UNK         0.4918 
     21 O          20.9214  -26.1198  -44.2433 O.2       2 UNK        -0.4875 
     22 CA         19.7894  -24.3786  -45.4132 C.3       2 UNK         0.0481 
     23 CB         19.4871  -23.8492  -46.8345 C.3       2 UNK        -0.1831 
     24 N          18.5812  -24.6052  -44.6143 N.am      2 UNK        -0.4498 
     25 C          17.5651  -25.4321  -44.9054 C.2       1 UNK         0.5027 
     26 O          17.3164  -25.8457  -46.0388 O.2       1 UNK        -0.4969 
     27 C          23.1482  -27.4833  -45.8593 C.2       3 UNK         0.5005 
     28 O          23.5353  -28.5101  -45.2982 O.2       3 UNK        -0.5279 
     29 N          23.8059  -26.3135  -45.7996 N.am      4 UNK        -0.4463 
     30 CA         25.0133  -25.9905  -45.0233 C.3       4 UNK         0.0283 
     31 CB         26.2103  -26.8646  -45.4555 C.3       4 UNK        -0.1875 
     32 C          24.8203  -25.9967  -43.4897 C.2       4 UNK         0.4949 
     33 O          25.8058  -25.8207  -42.7725 O.2       4 UNK        -0.5039 
     34 N          23.5755  -26.1663  -43.0117 N.am      5 UNK        -0.4663 
     35 CA         23.1402  -26.1772  -41.6084 C.3       5 UNK         0.0242 
     36 CB         23.1835  -24.7497  -41.0254 C.3       5 UNK        -0.1982 
     37 C          23.8835  -27.2068  -40.7331 C.2       5 UNK         0.5017 
     38 O          24.2042  -26.9190  -39.5782 O.2       5 UNK        -0.5012 
     39 N          24.1518  -28.3914  -41.2983 N.am      6 UNK        -0.4439 
     40 CA         24.9708  -29.4638  -40.7211 C.3       6 UNK         0.0297 
     41 CB         25.4627  -30.3645  -41.8700 C.3       6 UNK        -0.2006 
     42 C          24.2840  -30.2637  -39.5899 C.2       6 UNK         0.4892 
     43 O          24.3737  -31.4931  -39.5725 O.2       6 UNK        -0.5089 
     44 N          23.6298  -29.5599  -38.6549 N.am      7 UNK        -0.4243 
     45 CA         22.8929  -30.0720  -37.4936 C.3       7 UNK         0.0196 
     46 CB         23.8661  -30.6647  -36.4486 C.3       7 UNK        -0.2007 
     47 C          21.7629  -31.0318  -37.9122 C.2       7 UNK         0.5020 
     48 O          20.7313  -30.5666  -38.3957 O.2       7 UNK        -0.5147 
     49 N          21.9724  -32.3421  -37.7261 N.am      8 UNK        -0.4734 
     50 CA         21.0642  -33.4045  -38.1705 C.3       8 UNK         0.0238 
     51 CB         21.3696  -34.6876  -37.3801 C.3       8 UNK        -0.1912 
     52 C          21.1392  -33.6745  -39.6858 C.2       8 UNK         0.5038 
     53 O          20.2069  -34.2660  -40.2311 O.2       8 UNK        -0.5046 
     54 N          22.2330  -33.2434  -40.3290 N.am      9 UNK        -0.4200 
     55 CA         22.4995  -33.3205  -41.7749 C.3       9 UNK         0.0839 
     56 C          22.6943  -34.7619  -42.3340 C.2       9 UNK         0.5513 
     57 N          22.9588  -35.7621  -41.5020 N.am      9 UNK        -0.7519 
     58 O          22.6372  -34.9765  -43.5423 O.2       9 UNK        -0.4960 
     59 C59        21.5165  -32.4696  -42.6298 C.3       10 UNK        -0.0876 
     60 S60        21.3121  -30.7592  -42.0115 S.3       10 UNK        -0.2414 
     61 C61        19.5253  -30.7520  -41.6178 C.3       10 UNK         0.0169 
     62 H62        19.9466  -26.5966  -40.3851 H         1 UNK         0.0903 
     63 H63        18.6445  -27.7827  -40.4619 H         1 UNK         0.0903 
     64 H64        19.9002  -27.7572  -41.7156 H         1 UNK         0.0903 
     65 H65        17.6219  -27.7070  -42.9468 H         1 UNK         0.3096 
     66 H66        16.3920  -25.0637  -43.1554 H         1 UNK         0.1121 
     67 H67        14.7397  -26.0767  -44.5265 H         1 UNK         0.0849 
     68 H68        15.7178  -27.4444  -44.9345 H         1 UNK         0.0849 
     69 H69        14.5364  -30.0857  -42.5249 H         1 UNK         0.0865 
     70 H70        14.3145  -29.5918  -44.1795 H         1 UNK         0.0865 
     71 H71        16.9214  -30.0201  -41.5147 H         1 UNK         0.1346 
     72 H72        20.0294  -30.8402  -44.3675 H         1 UNK         0.1412 
     73 H73        16.1604  -29.6715  -45.7229 H         1 UNK         0.1426 
     74 H74        17.8190  -30.6175  -47.2788 H         1 UNK         0.0716 
     75 H75        19.3873  -31.1372  -46.7224 H         1 UNK         0.0716 
     76 H76        21.4515  -29.6279  -46.4268 H         1 UNK         0.0695 
     77 H77        20.6718  -28.6610  -45.1954 H         1 UNK         0.0695 
     78 H78        22.0707  -27.5721  -47.6848 H         1 UNK         0.0983 
     79 H79        20.8193  -25.7483  -47.3693 H         1 UNK         0.3095 
     80 H80        20.3521  -23.6038  -44.8910 H         1 UNK         0.0454 
     81 H81        19.0129  -24.5948  -47.4728 H         1 UNK         0.0851 
     82 H82        20.4019  -23.5263  -47.3325 H         1 UNK         0.0851 
     83 H83        18.8261  -22.9835  -46.7950 H         1 UNK         0.0851 
     84 H84        18.6949  -24.4011  -43.6253 H         1 UNK         0.2976 
     85 H85        23.3882  -25.5310  -46.2849 H         1 UNK         0.3116 
     86 H86        25.2575  -24.9591  -45.2818 H         1 UNK         0.0646 
     87 H87        26.0886  -27.9035  -45.1480 H         1 UNK         0.0847 
     88 H88        27.1379  -26.5054  -45.0082 H         1 UNK         0.0847 
     89 H89        26.3470  -26.8470  -46.5365 H         1 UNK         0.0847 
     90 H90        22.8222  -26.2912  -43.6816 H         1 UNK         0.3040 
     91 H91        22.0973  -26.4940  -41.6215 H         1 UNK         0.1015 
     92 H92        22.6118  -24.0547  -41.6406 H         1 UNK         0.0786 
     93 H93        24.2048  -24.3744  -40.9533 H         1 UNK         0.0786 
     94 H94        22.7528  -24.7210  -40.0237 H         1 UNK         0.0786 
     95 H95        23.8178  -28.5449  -42.2401 H         1 UNK         0.3172 
     96 H96        25.8526  -29.0023  -40.2722 H         1 UNK         0.0595 
     97 H97        24.6306  -30.8373  -42.3922 H         1 UNK         0.0839 
     98 H98        26.1152  -31.1577  -41.5026 H         1 UNK         0.0839 
     99 H99        26.0344  -29.7944  -42.6027 H         1 UNK         0.0839 
    100 H100       23.6355  -28.5498  -38.7686 H         1 UNK         0.2998 
    101 H101       22.4048  -29.2110  -37.0342 H         1 UNK         0.0822 
    102 H102       24.5604  -29.9041  -36.0911 H         1 UNK         0.0787 
    103 H103       23.3273  -31.0382  -35.5766 H         1 UNK         0.0787 
    104 H104       24.4619  -31.4858  -36.8483 H         1 UNK         0.0787 
    105 H105       22.8587  -32.6299  -37.3362 H         1 UNK         0.3055 
    106 H106       20.0387  -33.1000  -37.9489 H         1 UNK         0.1106 
    107 H107       20.6930  -35.4937  -37.6680 H         1 UNK         0.0828 
    108 H108       22.3873  -35.0388  -37.5545 H         1 UNK         0.0828 
    109 H109       21.2461  -34.5322  -36.3081 H         1 UNK         0.0828 
    110 H110       22.9411  -32.7401  -39.8019 H         1 UNK         0.2931 
    111 H111       23.4818  -32.8631  -41.8890 H         1 UNK         0.0412 
    112 H112       23.0198  -35.5963  -40.5103 H         1 UNK         0.3472 
    113 H113       23.0941  -36.6907  -41.8703 H         1 UNK         0.3472 
    114 H114       20.5452  -32.9633  -42.6889 H         1 UNK         0.0970 
    115 H115       21.8781  -32.4035  -43.6573 H         1 UNK         0.0970 
    116 H116       19.2454  -31.7080  -41.1744 H         1 UNK         0.0612 
    117 H117       19.3659  -30.0088  -40.8377 H         1 UNK         0.0612 
@<TRIPOS>BOND
     1    1    2 1    
     2    1   62 1    
     3    1   63 1    
     4    1   64 1    
     5    2    3 2    
     6    2    4 am   BACKBONE|DICT|INTERRES
     7    4    5 1    
     8    4   65 1    
     9    5    6 1    
    10    5   25 1    
    11    5   66 1    
    12    6    7 1    
    13    6   67 1    
    14    6   68 1    
    15    7    8 1    
    16    8    9 1    
    17    8   69 1    
    18    8   70 1    
    19    9   10 ar   
    20    9   14 ar   
    21   10   11 ar   
    22   10   71 1    
    23   11   12 ar   
    24   11   61 1    
    25   12   13 ar   
    26   12   72 1    
    27   13   14 ar   
    28   13   15 1    
    29   14   73 1    
    30   15   16 1    
    31   15   74 1    
    32   15   75 1    
    33   16   17 1    
    34   17   18 1    
    35   17   76 1    
    36   17   77 1    
    37   18   19 1    
    38   18   27 1    
    39   18   78 1    
    40   19   20 am   BACKBONE|DICT|INTERRES
    41   19   79 1    
    42   20   21 2    
    43   20   22 1    
    44   22   23 1    
    45   22   24 1    
    46   22   80 1    
    47   23   81 1    
    48   23   82 1    
    49   23   83 1    
    50   24   25 am   BACKBONE|DICT|INTERRES
    51   24   84 1    
    52   25   26 2    
    53   27   28 2    
    54   27   29 am   BACKBONE|DICT|INTERRES
    55   29   30 1    
    56   29   85 1    
    57   30   31 1    
    58   30   32 1    
    59   30   86 1    
    60   31   87 1    
    61   31   88 1    
    62   31   89 1    
    63   32   33 2    
    64   32   34 am   BACKBONE|DICT|INTERRES
    65   34   35 1    
    66   34   90 1    
    67   35   36 1    
    68   35   37 1    
    69   35   91 1    
    70   36   92 1    
    71   36   93 1    
    72   36   94 1    
    73   37   38 2    
    74   37   39 am   BACKBONE|DICT|INTERRES
    75   39   40 1    
    76   39   95 1    
    77   40   41 1    
    78   40   42 1    
    79   40   96 1    
    80   41   97 1    
    81   41   98 1    
    82   41   99 1    
    83   42   43 2    
    84   42   44 am   BACKBONE|DICT|INTERRES
    85   44   45 1    
    86   44  100 1    
    87   45   46 1    
    88   45   47 1    
    89   45  101 1    
    90   46  102 1    
    91   46  103 1    
    92   46  104 1    
    93   47   48 2    
    94   47   49 am   BACKBONE|DICT|INTERRES
    95   49   50 1    
    96   49  105 1    
    97   50   51 1    
    98   50   52 1    
    99   50  106 1    
   100   51  107 1    
   101   51  108 1    
   102   51  109 1    
   103   52   53 2    
   104   52   54 am   BACKBONE|DICT|INTERRES
   105   54   55 1    
   106   54  110 1    
   107   55   56 1    
   108   55   59 1    
   109   55  111 1    
   110   56   57 am   BACKBONE|DICT|INTERRES
   111   56   58 2    
   112   57  112 1    
   113   57  113 1    
   114   59   60 1    
   115   59  114 1    
   116   59  115 1    
   117   60   61 1    
   118   61  116 1    
   119   61  117 1    
@<TRIPOS>SUBSTRUCTURE
     1 UNK         1 GROUP             0       ****    0 ROOT    
