@<TRIPOS>MOLECULE
3R8
117   119    1
SMALL
USER_CHARGES


@<TRIPOS>ATOM
      1 CA         17.7636  -24.2328  -39.9116 C.3       0 UNK        -0.2013 
      2 C          17.8238  -23.9543  -41.4062 C.2       0 UNK         0.4866 
      3 O          17.7880  -22.7933  -41.8159 O.2       0 UNK        -0.5176 
      4 N          17.9051  -25.0116  -42.2229 N.am      1 UNK        -0.4884 
      5 CA         18.0290  -24.9365  -43.6825 C.3       1 UNK         0.0853 
      6 C6         17.7673  -26.3145  -44.3490 C.3       10 UNK        -0.0849 
      7 S7         16.0911  -26.9733  -44.0494 S.3       10 UNK        -0.2776 
      8 C8         16.4139  -28.5562  -43.1822 C.3       10 UNK         0.0316 
      9 C9         17.2062  -29.6151  -43.9602 C.ar      10 UNK        -0.0863 
     10 C10        17.7686  -30.6831  -43.2510 C.ar      10 UNK        -0.1009 
     11 C11        18.5085  -31.6732  -43.9061 C.ar      10 UNK        -0.0712 
     12 C12        18.7105  -31.5810  -45.2861 C.ar      10 UNK        -0.0894 
     13 C13        18.1530  -30.5260  -46.0130 C.ar      10 UNK        -0.0745 
     14 C14        17.3784  -29.5668  -45.3502 C.ar      10 UNK        -0.0972 
     15 C15        18.3942  -30.4114  -47.5146 C.3       10 UNK         0.0209 
     16 S16        20.0213  -29.6789  -47.9088 S.3       10 UNK        -0.2568 
     17 C17        19.8948  -28.0661  -47.0624 C.3       10 UNK        -0.0983 
     18 CA         21.1960  -27.2257  -46.9333 C.3       3 UNK         0.0876 
     19 N          20.8004  -25.8819  -46.5217 N.am      3 UNK        -0.4424 
     20 C          21.4516  -24.7218  -46.6450 C.2       2 UNK         0.4918 
     21 O          22.5186  -24.5861  -47.2443 O.2       2 UNK        -0.4875 
     22 CA         20.7598  -23.4938  -46.0039 C.3       2 UNK         0.0481 
     23 CB         20.4697  -22.4178  -47.0641 C.3       2 UNK        -0.1831 
     24 N          19.5021  -23.8306  -45.3110 N.am      2 UNK        -0.4498 
     25 C          19.4219  -24.4130  -44.1040 C.2       1 UNK         0.5027 
     26 O          20.4035  -24.6270  -43.3899 O.2       1 UNK        -0.4969 
     27 C          22.2368  -27.8172  -45.9426 C.2       3 UNK         0.5005 
     28 O          23.0296  -27.0861  -45.3452 O.2       3 UNK        -0.5279 
     29 N          22.2085  -29.1431  -45.7658 N.am      4 UNK        -0.4463 
     30 CA         23.0941  -29.9319  -44.9054 C.3       4 UNK         0.0283 
     31 CB         22.9686  -31.4119  -45.3057 C.3       4 UNK        -0.1875 
     32 C          22.8476  -29.7642  -43.3938 C.2       4 UNK         0.4949 
     33 O          23.6002  -30.3392  -42.6087 O.2       4 UNK        -0.5039 
     34 N          21.8194  -28.9974  -42.9976 N.am      5 UNK        -0.4663 
     35 CA         21.3606  -28.8002  -41.6143 C.3       5 UNK         0.0242 
     36 CB         20.1452  -27.8642  -41.6100 C.3       5 UNK        -0.1982 
     37 C          22.4276  -28.3062  -40.6211 C.2       5 UNK         0.5017 
     38 O          22.2871  -28.5579  -39.4245 O.2       5 UNK        -0.5012 
     39 N          23.4995  -27.6789  -41.1254 N.am      6 UNK        -0.4439 
     40 CA         24.7077  -27.3273  -40.3718 C.3       6 UNK         0.0297 
     41 CB         25.6549  -26.5314  -41.2836 C.3       6 UNK        -0.2006 
     42 C          25.4424  -28.5403  -39.7605 C.2       6 UNK         0.4892 
     43 O          26.1310  -28.3734  -38.7537 O.2       6 UNK        -0.5089 
     44 N          25.2674  -29.7332  -40.3501 N.am      7 UNK        -0.4243 
     45 CA         25.7702  -31.0099  -39.8346 C.3       7 UNK         0.0196 
     46 CB         26.0362  -31.9552  -41.0197 C.3       7 UNK        -0.2007 
     47 C          24.8162  -31.6680  -38.8161 C.2       7 UNK         0.5020 
     48 O          25.1285  -32.7580  -38.3359 O.2       7 UNK        -0.5147 
     49 N          23.6811  -31.0190  -38.5078 N.am      8 UNK        -0.4734 
     50 CA         22.6247  -31.4532  -37.5842 C.3       8 UNK         0.0238 
     51 CB         23.1517  -31.5327  -36.1346 C.3       8 UNK        -0.1912 
     52 C          21.9079  -32.7388  -38.0423 C.2       8 UNK         0.5038 
     53 O          21.6187  -33.6100  -37.2195 O.2       8 UNK        -0.5046 
     54 N          21.6230  -32.8272  -39.3488 N.am      9 UNK        -0.4200 
     55 CA         20.8657  -33.9249  -39.9745 C.3       9 UNK         0.0839 
     56 C          19.3507  -33.9814  -39.6153 C.2       9 UNK         0.5513 
     57 N          18.7657  -32.9492  -39.0189 N.am      9 UNK        -0.7519 
     58 O          18.6972  -34.9872  -39.8795 O.2       9 UNK        -0.4960 
     59 C59        21.0985  -33.9854  -41.5081 C.3       10 UNK        -0.0876 
     60 S60        20.6797  -32.4377  -42.3820 S.3       10 UNK        -0.2414 
     61 C61        19.0747  -32.8498  -43.1244 C.3       10 UNK         0.0169 
     62 H62        17.7979  -25.3000  -39.6930 H         1 UNK         0.0903 
     63 H63        18.6047  -23.7570  -39.4080 H         1 UNK         0.0903 
     64 H64        16.8423  -23.8300  -39.4915 H         1 UNK         0.0903 
     65 H65        17.9305  -25.9401  -41.8301 H         1 UNK         0.3096 
     66 H66        17.2803  -24.2269  -44.0429 H         1 UNK         0.1121 
     67 H67        17.8707  -26.2381  -45.4327 H         1 UNK         0.0849 
     68 H68        18.5104  -27.0449  -44.0271 H         1 UNK         0.0849 
     69 H69        16.9218  -28.3340  -42.2431 H         1 UNK         0.0865 
     70 H70        15.4517  -28.9905  -42.9079 H         1 UNK         0.0865 
     71 H71        17.6292  -30.7496  -42.1803 H         1 UNK         0.1346 
     72 H72        19.2999  -32.3310  -45.7956 H         1 UNK         0.1412 
     73 H73        16.9391  -28.7648  -45.9256 H         1 UNK         0.1426 
     74 H74        17.6112  -29.8122  -47.9823 H         1 UNK         0.0716 
     75 H75        18.3323  -31.4003  -47.9712 H         1 UNK         0.0716 
     76 H76        19.1414  -27.4989  -47.6128 H         1 UNK         0.0695 
     77 H77        19.4849  -28.2126  -46.0650 H         1 UNK         0.0695 
     78 H78        21.6776  -27.1585  -47.9110 H         1 UNK         0.0983 
     79 H79        19.9436  -25.8365  -45.9978 H         1 UNK         0.3095 
     80 H80        21.4574  -23.0730  -45.2769 H         1 UNK         0.0454 
     81 H81        21.3869  -22.1024  -47.5636 H         1 UNK         0.0851 
     82 H82        19.7891  -22.7816  -47.8347 H         1 UNK         0.0851 
     83 H83        20.0274  -21.5278  -46.6164 H         1 UNK         0.0851 
     84 H84        18.6521  -23.6741  -45.8358 H         1 UNK         0.2976 
     85 H85        21.5154  -29.6614  -46.2941 H         1 UNK         0.3116 
     86 H86        24.1208  -29.6131  -45.0958 H         1 UNK         0.0646 
     87 H87        23.6344  -32.0393  -44.7112 H         1 UNK         0.0847 
     88 H88        23.2320  -31.5656  -46.3522 H         1 UNK         0.0847 
     89 H89        21.9543  -31.7838  -45.1557 H         1 UNK         0.0847 
     90 H90        21.2673  -28.5620  -43.7201 H         1 UNK         0.3040 
     91 H91        21.0317  -29.7734  -41.2473 H         1 UNK         0.1015 
     92 H92        19.3312  -28.2848  -42.1973 H         1 UNK         0.0786 
     93 H93        20.3936  -26.8841  -42.0164 H         1 UNK         0.0786 
     94 H94        19.7680  -27.7137  -40.5973 H         1 UNK         0.0786 
     95 H95        23.5213  -27.5257  -42.1240 H         1 UNK         0.3172 
     96 H96        24.4029  -26.6812  -39.5460 H         1 UNK         0.0595 
     97 H97        26.5533  -26.2284  -40.7438 H         1 UNK         0.0839 
     98 H98        25.1806  -25.6224  -41.6543 H         1 UNK         0.0839 
     99 H99        25.9753  -27.1195  -42.1448 H         1 UNK         0.0839 
    100 H100       24.6758  -29.7957  -41.1769 H         1 UNK         0.2998 
    101 H101       26.7191  -30.8377  -39.3223 H         1 UNK         0.0822 
    102 H102       25.1123  -32.2389  -41.5251 H         1 UNK         0.0787 
    103 H103       26.6945  -31.4949  -41.7566 H         1 UNK         0.0787 
    104 H104       26.5181  -32.8751  -40.6861 H         1 UNK         0.0787 
    105 H105       23.5087  -30.1238  -38.9538 H         1 UNK         0.3055 
    106 H106       21.8655  -30.6694  -37.6061 H         1 UNK         0.1106 
    107 H107       23.8738  -32.3395  -36.0069 H         1 UNK         0.0828 
    108 H108       23.6322  -30.6012  -35.8356 H         1 UNK         0.0828 
    109 H109       22.3369  -31.7148  -35.4326 H         1 UNK         0.0828 
    110 H110       21.8987  -32.0764  -39.9641 H         1 UNK         0.2931 
    111 H111       21.2834  -34.8487  -39.5691 H         1 UNK         0.0412 
    112 H112       17.7863  -33.0038  -38.7874 H         1 UNK         0.3472 
    113 H113       19.2897  -32.1174  -38.8034 H         1 UNK         0.3472 
    114 H114       22.1525  -34.1912  -41.7008 H         1 UNK         0.0970 
    115 H115       20.5580  -34.8232  -41.9528 H         1 UNK         0.0970 
    116 H116       19.1908  -33.7165  -43.7770 H         1 UNK         0.0612 
    117 H117       18.3746  -33.1426  -42.3409 H         1 UNK         0.0612 
@<TRIPOS>BOND
     1    1    2 1    
     2    1   62 1    
     3    1   63 1    
     4    1   64 1    
     5    2    3 2    
     6    2    4 am   BACKBONE|DICT|INTERRES
     7    4    5 1    
     8    4   65 1    
     9    5    6 1    
    10    5   25 1    
    11    5   66 1    
    12    6    7 1    
    13    6   67 1    
    14    6   68 1    
    15    7    8 1    
    16    8    9 1    
    17    8   69 1    
    18    8   70 1    
    19    9   10 ar   
    20    9   14 ar   
    21   10   11 ar   
    22   10   71 1    
    23   11   12 ar   
    24   11   61 1    
    25   12   13 ar   
    26   12   72 1    
    27   13   14 ar   
    28   13   15 1    
    29   14   73 1    
    30   15   16 1    
    31   15   74 1    
    32   15   75 1    
    33   16   17 1    
    34   17   18 1    
    35   17   76 1    
    36   17   77 1    
    37   18   19 1    
    38   18   27 1    
    39   18   78 1    
    40   19   20 am   BACKBONE|DICT|INTERRES
    41   19   79 1    
    42   20   21 2    
    43   20   22 1    
    44   22   23 1    
    45   22   24 1    
    46   22   80 1    
    47   23   81 1    
    48   23   82 1    
    49   23   83 1    
    50   24   25 am   BACKBONE|DICT|INTERRES
    51   24   84 1    
    52   25   26 2    
    53   27   28 2    
    54   27   29 am   BACKBONE|DICT|INTERRES
    55   29   30 1    
    56   29   85 1    
    57   30   31 1    
    58   30   32 1    
    59   30   86 1    
    60   31   87 1    
    61   31   88 1    
    62   31   89 1    
    63   32   33 2    
    64   32   34 am   BACKBONE|DICT|INTERRES
    65   34   35 1    
    66   34   90 1    
    67   35   36 1    
    68   35   37 1    
    69   35   91 1    
    70   36   92 1    
    71   36   93 1    
    72   36   94 1    
    73   37   38 2    
    74   37   39 am   BACKBONE|DICT|INTERRES
    75   39   40 1    
    76   39   95 1    
    77   40   41 1    
    78   40   42 1    
    79   40   96 1    
    80   41   97 1    
    81   41   98 1    
    82   41   99 1    
    83   42   43 2    
    84   42   44 am   BACKBONE|DICT|INTERRES
    85   44   45 1    
    86   44  100 1    
    87   45   46 1    
    88   45   47 1    
    89   45  101 1    
    90   46  102 1    
    91   46  103 1    
    92   46  104 1    
    93   47   48 2    
    94   47   49 am   BACKBONE|DICT|INTERRES
    95   49   50 1    
    96   49  105 1    
    97   50   51 1    
    98   50   52 1    
    99   50  106 1    
   100   51  107 1    
   101   51  108 1    
   102   51  109 1    
   103   52   53 2    
   104   52   54 am   BACKBONE|DICT|INTERRES
   105   54   55 1    
   106   54  110 1    
   107   55   56 1    
   108   55   59 1    
   109   55  111 1    
   110   56   57 am   BACKBONE|DICT|INTERRES
   111   56   58 2    
   112   57  112 1    
   113   57  113 1    
   114   59   60 1    
   115   59  114 1    
   116   59  115 1    
   117   60   61 1    
   118   61  116 1    
   119   61  117 1    
@<TRIPOS>SUBSTRUCTURE
     1 UNK         1 GROUP             0       ****    0 ROOT    
