@<TRIPOS>MOLECULE
3R8
117   119    1
SMALL
USER_CHARGES


@<TRIPOS>ATOM
      1 CA         14.7556  -24.1931  -46.5611 C.3       0 UNK        -0.2013 
      2 C          16.0817  -24.8157  -46.1535 C.2       0 UNK         0.4866 
      3 O          16.2815  -25.1032  -44.9736 O.2       0 UNK        -0.5176 
      4 N          16.9946  -25.0055  -47.1178 N.am      1 UNK        -0.4884 
      5 CA         18.3187  -25.6545  -47.0261 C.3       1 UNK         0.0853 
      6 C6         18.2639  -27.1207  -46.5174 C.3       10 UNK        -0.0849 
      7 S7         17.2349  -28.2233  -47.5421 S.3       10 UNK        -0.2776 
      8 C8         15.8483  -28.6015  -46.4148 C.3       10 UNK         0.0316 
      9 C9         16.2718  -29.1884  -45.0683 C.ar      10 UNK        -0.0863 
     10 C10        17.2467  -30.1897  -44.9830 C.ar      10 UNK        -0.1009 
     11 C11        17.6051  -30.7321  -43.7449 C.ar      10 UNK        -0.0712 
     12 C12        16.9655  -30.2848  -42.5862 C.ar      10 UNK        -0.0894 
     13 C13        15.9912  -29.2843  -42.6558 C.ar      10 UNK        -0.0745 
     14 C14        15.6556  -28.7358  -43.8972 C.ar      10 UNK        -0.0972 
     15 C15        15.2796  -28.8161  -41.3941 C.3       10 UNK         0.0209 
     16 S16        16.4227  -28.0712  -40.1908 S.3       10 UNK        -0.2568 
     17 C17        16.9707  -26.5625  -41.0651 C.3       10 UNK        -0.0983 
     18 CA         18.3386  -26.6793  -41.7911 C.3       3 UNK         0.0876 
     19 N          18.6200  -25.4337  -42.5166 N.am      3 UNK        -0.4424 
     20 C          19.7593  -25.0501  -43.1124 C.2       2 UNK         0.4918 
     21 O          20.8118  -25.6874  -43.1058 O.2       2 UNK        -0.4875 
     22 CA         19.6388  -23.7704  -43.9582 C.3       2 UNK         0.0481 
     23 CB         20.9864  -23.0596  -44.2110 C.3       2 UNK        -0.1831 
     24 N          18.9289  -24.1228  -45.1917 N.am      2 UNK        -0.4498 
     25 C          19.3747  -24.8944  -46.1937 C.2       1 UNK         0.5027 
     26 O          20.5648  -25.0778  -46.4514 O.2       1 UNK        -0.4969 
     27 C          19.4706  -27.1127  -40.8310 C.2       3 UNK         0.5005 
     28 O          20.0015  -26.2782  -40.0925 O.2       3 UNK        -0.5279 
     29 N          19.7812  -28.4190  -40.8554 N.am      4 UNK        -0.4463 
     30 CA         20.8247  -29.1023  -40.0828 C.3       4 UNK         0.0283 
     31 CB         20.5430  -29.0154  -38.5659 C.3       4 UNK        -0.1875 
     32 C          22.2451  -28.6434  -40.4690 C.2       4 UNK         0.4949 
     33 O          23.1026  -28.4929  -39.5972 O.2       4 UNK        -0.5039 
     34 N          22.4590  -28.4362  -41.7763 N.am      5 UNK        -0.4663 
     35 CA         23.6959  -27.9407  -42.3852 C.3       5 UNK         0.0242 
     36 CB         23.4978  -27.8542  -43.9080 C.3       5 UNK        -0.1982 
     37 C          24.9214  -28.8162  -42.0801 C.2       5 UNK         0.5017 
     38 O          24.8135  -30.0436  -42.1381 O.2       5 UNK        -0.5012 
     39 N          26.0616  -28.1634  -41.8111 N.am      6 UNK        -0.4439 
     40 CA         27.4028  -28.7120  -41.5593 C.3       6 UNK         0.0297 
     41 CB         27.9597  -29.4186  -42.8124 C.3       6 UNK        -0.2006 
     42 C          27.5044  -29.6132  -40.3149 C.2       6 UNK         0.4892 
     43 O          28.2257  -29.2751  -39.3759 O.2       6 UNK        -0.5089 
     44 N          26.7890  -30.7387  -40.3401 N.am      7 UNK        -0.4243 
     45 CA         26.7250  -31.7566  -39.3011 C.3       7 UNK         0.0196 
     46 CB         27.9570  -32.6808  -39.3843 C.3       7 UNK        -0.2007 
     47 C          25.3969  -32.5038  -39.4661 C.2       7 UNK         0.5020 
     48 O          25.3896  -33.6672  -39.8707 O.2       7 UNK        -0.5147 
     49 N          24.2887  -31.7967  -39.2006 N.am      8 UNK        -0.4734 
     50 CA         22.9030  -32.2887  -39.2463 C.3       8 UNK         0.0238 
     51 CB         22.6522  -33.3006  -38.1072 C.3       8 UNK        -0.1912 
     52 C          22.4793  -32.8281  -40.6292 C.2       8 UNK         0.5038 
     53 O          21.7817  -33.8410  -40.7025 O.2       8 UNK        -0.5046 
     54 N          22.9280  -32.1490  -41.6937 N.am      9 UNK        -0.4200 
     55 CA         22.7793  -32.5305  -43.1082 C.3       9 UNK         0.0839 
     56 C          23.6388  -33.7601  -43.5363 C.2       9 UNK         0.5513 
     57 N          24.5413  -34.2781  -42.7104 N.am      9 UNK        -0.7519 
     58 O          23.5101  -34.2397  -44.6600 O.2       9 UNK        -0.4960 
     59 C59        21.3016  -32.6510  -43.5827 C.3       10 UNK        -0.0876 
     60 S60        20.3145  -31.1367  -43.3334 S.3       10 UNK        -0.2414 
     61 C61        18.6617  -31.8218  -43.6637 C.3       10 UNK         0.0169 
     62 H62        14.6010  -23.2564  -46.0264 H         1 UNK         0.0903 
     63 H63        14.7120  -23.9859  -47.6301 H         1 UNK         0.0903 
     64 H64        13.9358  -24.8665  -46.3127 H         1 UNK         0.0903 
     65 H65        16.7563  -24.7051  -48.0534 H         1 UNK         0.3096 
     66 H66        18.7061  -25.6743  -48.0464 H         1 UNK         0.1121 
     67 H67        19.2648  -27.5580  -46.5074 H         1 UNK         0.0849 
     68 H68        17.9280  -27.1477  -45.4797 H         1 UNK         0.0849 
     69 H69        15.2679  -27.6898  -46.2684 H         1 UNK         0.0865 
     70 H70        15.1819  -29.3103  -46.9076 H         1 UNK         0.0865 
     71 H71        17.7287  -30.5480  -45.8823 H         1 UNK         0.1346 
     72 H72        17.2241  -30.7154  -41.6282 H         1 UNK         0.1412 
     73 H73        14.9009  -27.9627  -43.9535 H         1 UNK         0.1426 
     74 H74        14.7893  -29.6719  -40.9281 H         1 UNK         0.0716 
     75 H75        14.4891  -28.1011  -41.6279 H         1 UNK         0.0716 
     76 H76        16.1959  -26.2760  -41.7786 H         1 UNK         0.0695 
     77 H77        17.0091  -25.7554  -40.3310 H         1 UNK         0.0695 
     78 H78        18.2452  -27.4453  -42.5635 H         1 UNK         0.0983 
     79 H79        17.8179  -24.8328  -42.6377 H         1 UNK         0.3095 
     80 H80        18.9982  -23.0708  -43.4189 H         1 UNK         0.0454 
     81 H81        21.7363  -23.7214  -44.6442 H         1 UNK         0.0851 
     82 H82        20.8658  -22.2065  -44.8783 H         1 UNK         0.0851 
     83 H83        21.4004  -22.6850  -43.2746 H         1 UNK         0.0851 
     84 H84        17.9168  -24.1224  -45.1001 H         1 UNK         0.2976 
     85 H85        19.2669  -29.0115  -41.4932 H         1 UNK         0.3116 
     86 H86        20.7583  -30.1526  -40.3677 H         1 UNK         0.0646 
     87 H87        21.2460  -29.6200  -37.9932 H         1 UNK         0.0847 
     88 H88        19.5410  -29.3726  -38.3283 H         1 UNK         0.0847 
     89 H89        20.6303  -27.9943  -38.1943 H         1 UNK         0.0847 
     90 H90        21.6898  -28.5972  -42.4099 H         1 UNK         0.3040 
     91 H91        23.8675  -26.9356  -41.9946 H         1 UNK         0.1015 
     92 H92        22.6814  -27.1822  -44.1708 H         1 UNK         0.0786 
     93 H93        23.2779  -28.8317  -44.3401 H         1 UNK         0.0786 
     94 H94        24.3947  -27.4750  -44.3999 H         1 UNK         0.0786 
     95 H95        26.0132  -27.1545  -41.7670 H         1 UNK         0.3172 
     96 H96        28.0422  -27.8484  -41.3686 H         1 UNK         0.0595 
     97 H97        28.0066  -28.7366  -43.6614 H         1 UNK         0.0839 
     98 H98        27.3542  -30.2756  -43.1088 H         1 UNK         0.0839 
     99 H99        28.9723  -29.7838  -42.6357 H         1 UNK         0.0839 
    100 H100       26.1513  -30.8572  -41.1246 H         1 UNK         0.2998 
    101 H101       26.7141  -31.2751  -38.3208 H         1 UNK         0.0822 
    102 H102       28.8804  -32.1303  -39.2036 H         1 UNK         0.0787 
    103 H103       27.9011  -33.4731  -38.6367 H         1 UNK         0.0787 
    104 H104       28.0378  -33.1570  -40.3623 H         1 UNK         0.0787 
    105 H105       24.3985  -30.8253  -38.9370 H         1 UNK         0.3055 
    106 H106       22.2660  -31.4287  -39.0529 H         1 UNK         0.1106 
    107 H107       23.2178  -34.2216  -38.2521 H         1 UNK         0.0828 
    108 H108       22.9294  -32.8853  -37.1384 H         1 UNK         0.0828 
    109 H109       21.5976  -33.5733  -38.0500 H         1 UNK         0.0828 
    110 H110       23.5374  -31.3496  -41.5495 H         1 UNK         0.2931 
    111 H111       23.2149  -31.6974  -43.6608 H         1 UNK         0.0412 
    112 H112       25.0903  -35.0641  -43.0198 H         1 UNK         0.3472 
    113 H113       24.6676  -33.9207  -41.7704 H         1 UNK         0.3472 
    114 H114       20.8082  -33.4872  -43.0854 H         1 UNK         0.0970 
    115 H115       21.2667  -32.8785  -44.6497 H         1 UNK         0.0970 
    116 H116       18.6843  -32.3861  -44.5974 H         1 UNK         0.0612 
    117 H117       18.4044  -32.5349  -42.8788 H         1 UNK         0.0612 
@<TRIPOS>BOND
     1    1    2 1    
     2    1   62 1    
     3    1   63 1    
     4    1   64 1    
     5    2    3 2    
     6    2    4 am   BACKBONE|DICT|INTERRES
     7    4    5 1    
     8    4   65 1    
     9    5    6 1    
    10    5   25 1    
    11    5   66 1    
    12    6    7 1    
    13    6   67 1    
    14    6   68 1    
    15    7    8 1    
    16    8    9 1    
    17    8   69 1    
    18    8   70 1    
    19    9   10 ar   
    20    9   14 ar   
    21   10   11 ar   
    22   10   71 1    
    23   11   12 ar   
    24   11   61 1    
    25   12   13 ar   
    26   12   72 1    
    27   13   14 ar   
    28   13   15 1    
    29   14   73 1    
    30   15   16 1    
    31   15   74 1    
    32   15   75 1    
    33   16   17 1    
    34   17   18 1    
    35   17   76 1    
    36   17   77 1    
    37   18   19 1    
    38   18   27 1    
    39   18   78 1    
    40   19   20 am   BACKBONE|DICT|INTERRES
    41   19   79 1    
    42   20   21 2    
    43   20   22 1    
    44   22   23 1    
    45   22   24 1    
    46   22   80 1    
    47   23   81 1    
    48   23   82 1    
    49   23   83 1    
    50   24   25 am   BACKBONE|DICT|INTERRES
    51   24   84 1    
    52   25   26 2    
    53   27   28 2    
    54   27   29 am   BACKBONE|DICT|INTERRES
    55   29   30 1    
    56   29   85 1    
    57   30   31 1    
    58   30   32 1    
    59   30   86 1    
    60   31   87 1    
    61   31   88 1    
    62   31   89 1    
    63   32   33 2    
    64   32   34 am   BACKBONE|DICT|INTERRES
    65   34   35 1    
    66   34   90 1    
    67   35   36 1    
    68   35   37 1    
    69   35   91 1    
    70   36   92 1    
    71   36   93 1    
    72   36   94 1    
    73   37   38 2    
    74   37   39 am   BACKBONE|DICT|INTERRES
    75   39   40 1    
    76   39   95 1    
    77   40   41 1    
    78   40   42 1    
    79   40   96 1    
    80   41   97 1    
    81   41   98 1    
    82   41   99 1    
    83   42   43 2    
    84   42   44 am   BACKBONE|DICT|INTERRES
    85   44   45 1    
    86   44  100 1    
    87   45   46 1    
    88   45   47 1    
    89   45  101 1    
    90   46  102 1    
    91   46  103 1    
    92   46  104 1    
    93   47   48 2    
    94   47   49 am   BACKBONE|DICT|INTERRES
    95   49   50 1    
    96   49  105 1    
    97   50   51 1    
    98   50   52 1    
    99   50  106 1    
   100   51  107 1    
   101   51  108 1    
   102   51  109 1    
   103   52   53 2    
   104   52   54 am   BACKBONE|DICT|INTERRES
   105   54   55 1    
   106   54  110 1    
   107   55   56 1    
   108   55   59 1    
   109   55  111 1    
   110   56   57 am   BACKBONE|DICT|INTERRES
   111   56   58 2    
   112   57  112 1    
   113   57  113 1    
   114   59   60 1    
   115   59  114 1    
   116   59  115 1    
   117   60   61 1    
   118   61  116 1    
   119   61  117 1    
@<TRIPOS>SUBSTRUCTURE
     1 UNK         1 GROUP             0       ****    0 ROOT    
