@<TRIPOS>MOLECULE
3R8
117   119    1
SMALL
USER_CHARGES


@<TRIPOS>ATOM
      1 CA         16.5666  -29.4951  -48.6691 C.3       0 UNK        -0.2013 
      2 C          16.2854  -28.9519  -47.2762 C.2       0 UNK         0.4866 
      3 O          15.9093  -29.7151  -46.3871 O.2       0 UNK        -0.5176 
      4 N          16.4646  -27.6405  -47.0811 N.am      1 UNK        -0.4884 
      5 CA         16.2570  -26.9457  -45.8075 C.3       1 UNK         0.0853 
      6 C6         14.7630  -26.5868  -45.5803 C.3       10 UNK        -0.0849 
      7 S7         14.3281  -26.1301  -43.8658 S.3       10 UNK        -0.2776 
      8 C8         14.3329  -27.7363  -43.0003 C.3       10 UNK         0.0316 
      9 C9         15.7222  -28.1140  -42.5005 C.ar      10 UNK        -0.0863 
     10 C10        16.3439  -29.2865  -42.9416 C.ar      10 UNK        -0.1009 
     11 C11        17.6202  -29.6322  -42.4849 C.ar      10 UNK        -0.0712 
     12 C12        18.2630  -28.8041  -41.5588 C.ar      10 UNK        -0.0894 
     13 C13        17.6686  -27.6132  -41.1361 C.ar      10 UNK        -0.0745 
     14 C14        16.3906  -27.2845  -41.5952 C.ar      10 UNK        -0.0972 
     15 C15        18.4045  -26.6647  -40.2013 C.3       10 UNK         0.0209 
     16 S16        19.0126  -25.2035  -41.1056 S.3       10 UNK        -0.2568 
     17 C17        20.7412  -25.6459  -41.4940 C.3       10 UNK        -0.0983 
     18 CA         20.9145  -26.6313  -42.6846 C.3       3 UNK         0.0876 
     19 N          20.1812  -26.2556  -43.9021 N.am      3 UNK        -0.4424 
     20 C          20.4245  -25.1991  -44.6940 C.2       2 UNK         0.4918 
     21 O          21.2619  -24.3308  -44.4474 O.2       2 UNK        -0.4875 
     22 CA         19.6339  -25.1096  -46.0132 C.3       2 UNK         0.0481 
     23 CB         20.5677  -25.3831  -47.2048 C.3       2 UNK        -0.1831 
     24 N          18.5121  -26.0518  -46.0729 N.am      2 UNK        -0.4498 
     25 C          17.2547  -25.7750  -45.6973 C.2       1 UNK         0.5027 
     26 O          16.8889  -24.6630  -45.3150 O.2       1 UNK        -0.4969 
     27 C          22.3970  -26.9317  -43.0013 C.2       3 UNK         0.5005 
     28 O          23.2928  -26.4136  -42.3297 O.2       3 UNK        -0.5279 
     29 N          22.6157  -27.7388  -44.0529 N.am      4 UNK        -0.4463 
     30 CA         23.9122  -28.1233  -44.6190 C.3       4 UNK         0.0283 
     31 CB         23.6733  -29.0817  -45.7989 C.3       4 UNK        -0.1875 
     32 C          24.8531  -28.7485  -43.5751 C.2       4 UNK         0.4949 
     33 O          24.7008  -29.9242  -43.2444 O.2       4 UNK        -0.5039 
     34 N          25.7737  -27.9240  -43.0548 N.am      5 UNK        -0.4663 
     35 CA         26.6844  -28.2072  -41.9389 C.3       5 UNK         0.0242 
     36 CB         27.7977  -29.1866  -42.3686 C.3       5 UNK        -0.1982 
     37 C          25.9457  -28.6028  -40.6410 C.2       5 UNK         0.5017 
     38 O          26.3969  -29.4900  -39.9130 O.2       5 UNK        -0.5012 
     39 N          24.8236  -27.9132  -40.3771 N.am      6 UNK        -0.4439 
     40 CA         23.9543  -28.0324  -39.2041 C.3       6 UNK         0.0297 
     41 CB         24.6681  -27.4954  -37.9421 C.3       6 UNK        -0.2006 
     42 C          23.3873  -29.4556  -39.0571 C.2       6 UNK         0.4892 
     43 O          22.5985  -29.8737  -39.9054 O.2       6 UNK        -0.5089 
     44 N          23.7978  -30.1738  -38.0018 N.am      7 UNK        -0.4243 
     45 CA         23.3643  -31.5347  -37.6678 C.3       7 UNK         0.0196 
     46 CB         23.9841  -31.9443  -36.3223 C.3       7 UNK        -0.2007 
     47 C          23.6778  -32.5883  -38.7450 C.2       7 UNK         0.5020 
     48 O          22.9766  -33.5982  -38.8144 O.2       7 UNK        -0.5147 
     49 N          24.6851  -32.3291  -39.5923 N.am      8 UNK        -0.4734 
     50 CA         25.0424  -33.1655  -40.7445 C.3       8 UNK         0.0238 
     51 CB         26.3704  -32.6712  -41.3306 C.3       8 UNK        -0.1912 
     52 C          23.9559  -33.2227  -41.8378 C.2       8 UNK         0.5038 
     53 O          23.9819  -34.1445  -42.6546 O.2       8 UNK        -0.5046 
     54 N          23.0117  -32.2715  -41.8164 N.am      9 UNK        -0.4200 
     55 CA         21.7775  -32.2842  -42.6117 C.3       9 UNK         0.0839 
     56 C          20.8159  -33.4597  -42.2522 C.2       9 UNK         0.5513 
     57 N          20.8910  -34.0411  -41.0588 N.am      9 UNK        -0.7519 
     58 O          20.0013  -33.8668  -43.0755 O.2       9 UNK        -0.4960 
     59 C59        21.0735  -30.9051  -42.5112 C.3       10 UNK        -0.0876 
     60 S60        19.8724  -30.5687  -43.8452 S.3       10 UNK        -0.2414 
     61 C61        18.2916  -30.9021  -42.9933 C.3       10 UNK         0.0169 
     62 H62        16.8905  -28.7133  -49.3558 H         1 UNK         0.0903 
     63 H63        17.3483  -30.2530  -48.6247 H         1 UNK         0.0903 
     64 H64        15.6685  -29.9560  -49.0795 H         1 UNK         0.0903 
     65 H65        16.7679  -27.0546  -47.8486 H         1 UNK         0.3096 
     66 H66        16.5609  -27.6293  -45.0171 H         1 UNK         0.1121 
     67 H67        14.4681  -25.7698  -46.2411 H         1 UNK         0.0849 
     68 H68        14.1304  -27.4303  -45.8610 H         1 UNK         0.0849 
     69 H69        13.6618  -27.6725  -42.1426 H         1 UNK         0.0865 
     70 H70        13.9214  -28.5090  -43.6518 H         1 UNK         0.0865 
     71 H71        15.8378  -29.9254  -43.6532 H         1 UNK         0.1346 
     72 H72        19.2396  -29.0704  -41.1841 H         1 UNK         0.1412 
     73 H73        15.9244  -26.3655  -41.2659 H         1 UNK         0.1426 
     74 H74        19.2288  -27.1684  -39.6940 H         1 UNK         0.0716 
     75 H75        17.7213  -26.3332  -39.4179 H         1 UNK         0.0716 
     76 H76        21.2027  -26.0537  -40.5930 H         1 UNK         0.0695 
     77 H77        21.2688  -24.7132  -41.7013 H         1 UNK         0.0695 
     78 H78        20.5044  -27.5881  -42.3717 H         1 UNK         0.0983 
     79 H79        19.4447  -26.8872  -44.1775 H         1 UNK         0.3095 
     80 H80        19.2623  -24.0869  -46.1048 H         1 UNK         0.0454 
     81 H81        20.9952  -26.3858  -47.1653 H         1 UNK         0.0851 
     82 H82        21.3990  -24.6767  -47.2204 H         1 UNK         0.0851 
     83 H83        20.0414  -25.2789  -48.1537 H         1 UNK         0.0851 
     84 H84        18.7170  -26.9831  -46.4084 H         1 UNK         0.2976 
     85 H85        21.8078  -28.1201  -44.5226 H         1 UNK         0.3116 
     86 H86        24.3808  -27.2190  -45.0125 H         1 UNK         0.0646 
     87 H87        23.0931  -28.6054  -46.5893 H         1 UNK         0.0847 
     88 H88        24.6189  -29.3998  -46.2398 H         1 UNK         0.0847 
     89 H89        23.1417  -29.9822  -45.4871 H         1 UNK         0.0847 
     90 H90        25.7700  -26.9644  -43.3747 H         1 UNK         0.3040 
     91 H91        27.1741  -27.2621  -41.6984 H         1 UNK         0.1015 
     92 H92        27.3987  -30.1076  -42.7886 H         1 UNK         0.0786 
     93 H93        28.4428  -29.4549  -41.5310 H         1 UNK         0.0786 
     94 H94        28.4353  -28.7361  -43.1291 H         1 UNK         0.0786 
     95 H95        24.4841  -27.2758  -41.0952 H         1 UNK         0.3172 
     96 H96        23.0966  -27.3856  -39.3944 H         1 UNK         0.0595 
     97 H97        25.5750  -28.0529  -37.7054 H         1 UNK         0.0839 
     98 H98        24.0134  -27.5347  -37.0703 H         1 UNK         0.0839 
     99 H99        24.9542  -26.4518  -38.0741 H         1 UNK         0.0839 
    100 H100       24.4707  -29.7508  -37.3791 H         1 UNK         0.2998 
    101 H101       22.2786  -31.5100  -37.5523 H         1 UNK         0.0822 
    102 H102       23.6582  -32.9438  -36.0301 H         1 UNK         0.0787 
    103 H103       25.0739  -31.9573  -36.3677 H         1 UNK         0.0787 
    104 H104       23.6878  -31.2637  -35.5237 H         1 UNK         0.0787 
    105 H105       25.1975  -31.4614  -39.4835 H         1 UNK         0.3055 
    106 H106       25.1849  -34.1864  -40.3832 H         1 UNK         0.1106 
    107 H107       26.6943  -33.2999  -42.1611 H         1 UNK         0.0828 
    108 H108       26.2659  -31.6567  -41.7093 H         1 UNK         0.0828 
    109 H109       27.1665  -32.6748  -40.5861 H         1 UNK         0.0828 
    110 H110       23.0813  -31.5372  -41.1213 H         1 UNK         0.2931 
    111 H111       22.0826  -32.4287  -43.6500 H         1 UNK         0.0412 
    112 H112       20.2691  -34.8053  -40.8471 H         1 UNK         0.3472 
    113 H113       21.5817  -33.7537  -40.3758 H         1 UNK         0.3472 
    114 H114       21.8224  -30.1137  -42.5681 H         1 UNK         0.0970 
    115 H115       20.6070  -30.7931  -41.5320 H         1 UNK         0.0970 
    116 H116       17.6388  -31.4191  -43.6983 H         1 UNK         0.0612 
    117 H117       18.4395  -31.5915  -42.1615 H         1 UNK         0.0612 
@<TRIPOS>BOND
     1    1    2 1    
     2    1   62 1    
     3    1   63 1    
     4    1   64 1    
     5    2    3 2    
     6    2    4 am   BACKBONE|DICT|INTERRES
     7    4    5 1    
     8    4   65 1    
     9    5    6 1    
    10    5   25 1    
    11    5   66 1    
    12    6    7 1    
    13    6   67 1    
    14    6   68 1    
    15    7    8 1    
    16    8    9 1    
    17    8   69 1    
    18    8   70 1    
    19    9   10 ar   
    20    9   14 ar   
    21   10   11 ar   
    22   10   71 1    
    23   11   12 ar   
    24   11   61 1    
    25   12   13 ar   
    26   12   72 1    
    27   13   14 ar   
    28   13   15 1    
    29   14   73 1    
    30   15   16 1    
    31   15   74 1    
    32   15   75 1    
    33   16   17 1    
    34   17   18 1    
    35   17   76 1    
    36   17   77 1    
    37   18   19 1    
    38   18   27 1    
    39   18   78 1    
    40   19   20 am   BACKBONE|DICT|INTERRES
    41   19   79 1    
    42   20   21 2    
    43   20   22 1    
    44   22   23 1    
    45   22   24 1    
    46   22   80 1    
    47   23   81 1    
    48   23   82 1    
    49   23   83 1    
    50   24   25 am   BACKBONE|DICT|INTERRES
    51   24   84 1    
    52   25   26 2    
    53   27   28 2    
    54   27   29 am   BACKBONE|DICT|INTERRES
    55   29   30 1    
    56   29   85 1    
    57   30   31 1    
    58   30   32 1    
    59   30   86 1    
    60   31   87 1    
    61   31   88 1    
    62   31   89 1    
    63   32   33 2    
    64   32   34 am   BACKBONE|DICT|INTERRES
    65   34   35 1    
    66   34   90 1    
    67   35   36 1    
    68   35   37 1    
    69   35   91 1    
    70   36   92 1    
    71   36   93 1    
    72   36   94 1    
    73   37   38 2    
    74   37   39 am   BACKBONE|DICT|INTERRES
    75   39   40 1    
    76   39   95 1    
    77   40   41 1    
    78   40   42 1    
    79   40   96 1    
    80   41   97 1    
    81   41   98 1    
    82   41   99 1    
    83   42   43 2    
    84   42   44 am   BACKBONE|DICT|INTERRES
    85   44   45 1    
    86   44  100 1    
    87   45   46 1    
    88   45   47 1    
    89   45  101 1    
    90   46  102 1    
    91   46  103 1    
    92   46  104 1    
    93   47   48 2    
    94   47   49 am   BACKBONE|DICT|INTERRES
    95   49   50 1    
    96   49  105 1    
    97   50   51 1    
    98   50   52 1    
    99   50  106 1    
   100   51  107 1    
   101   51  108 1    
   102   51  109 1    
   103   52   53 2    
   104   52   54 am   BACKBONE|DICT|INTERRES
   105   54   55 1    
   106   54  110 1    
   107   55   56 1    
   108   55   59 1    
   109   55  111 1    
   110   56   57 am   BACKBONE|DICT|INTERRES
   111   56   58 2    
   112   57  112 1    
   113   57  113 1    
   114   59   60 1    
   115   59  114 1    
   116   59  115 1    
   117   60   61 1    
   118   61  116 1    
   119   61  117 1    
@<TRIPOS>SUBSTRUCTURE
     1 UNK         1 GROUP             0       ****    0 ROOT    
