@<TRIPOS>MOLECULE
3R8
117   119    1
SMALL
USER_CHARGES


@<TRIPOS>ATOM
      1 CA         12.7962  -24.3564  -42.7334 C.3       0 UNK        -0.2013 
      2 C          13.9174  -24.6503  -43.7187 C.2       0 UNK         0.4866 
      3 O          14.7239  -23.7669  -44.0092 O.2       0 UNK        -0.5176 
      4 N          13.9745  -25.8852  -44.2363 N.am      1 UNK        -0.4884 
      5 CA         14.9974  -26.3457  -45.1859 C.3       1 UNK         0.0853 
      6 C6         14.5264  -27.6228  -45.9284 C.3       10 UNK        -0.0849 
      7 S7         15.4695  -27.9546  -47.4582 S.3       10 UNK        -0.2776 
      8 C8         16.0046  -29.6815  -47.2254 C.3       10 UNK         0.0316 
      9 C9         17.0931  -29.8470  -46.1693 C.ar      10 UNK        -0.0863 
     10 C10        16.7682  -30.3117  -44.8917 C.ar      10 UNK        -0.1009 
     11 C11        17.7621  -30.5697  -43.9427 C.ar      10 UNK        -0.0712 
     12 C12        19.1023  -30.3501  -44.2919 C.ar      10 UNK        -0.0894 
     13 C13        19.4460  -29.8624  -45.5575 C.ar      10 UNK        -0.0745 
     14 C14        18.4338  -29.6098  -46.4901 C.ar      10 UNK        -0.0972 
     15 C15        20.9109  -29.6975  -45.9559 C.3       10 UNK         0.0209 
     16 S16        21.9265  -28.8200  -44.7183 S.3       10 UNK        -0.2568 
     17 C17        21.5396  -27.0661  -45.0516 C.3       10 UNK        -0.0983 
     18 CA         20.9695  -26.2990  -43.8307 C.3       3 UNK         0.0876 
     19 N          19.7230  -26.9060  -43.3770 N.am      3 UNK        -0.4424 
     20 C          18.7946  -26.3134  -42.6205 C.2       2 UNK         0.4918 
     21 O          18.8721  -25.1623  -42.1859 O.2       2 UNK        -0.4875 
     22 CA         17.5360  -27.1567  -42.3557 C.3       2 UNK         0.0481 
     23 CB         17.1142  -27.0835  -40.8786 C.3       2 UNK        -0.1831 
     24 N          16.3882  -26.8172  -43.2067 N.am      2 UNK        -0.4498 
     25 C          16.3801  -26.5452  -44.5250 C.2       1 UNK         0.5027 
     26 O          17.3868  -26.4482  -45.2263 O.2       1 UNK        -0.4969 
     27 C          21.9951  -26.1494  -42.6855 C.2       3 UNK         0.5005 
     28 O          21.8475  -26.7626  -41.6258 O.2       3 UNK        -0.5279 
     29 N          23.0341  -25.3403  -42.9330 N.am      4 UNK        -0.4463 
     30 CA         24.1155  -25.0516  -41.9850 C.3       4 UNK         0.0283 
     31 CB         24.8406  -23.7717  -42.4352 C.3       4 UNK        -0.1875 
     32 C          25.1242  -26.2026  -41.7986 C.2       4 UNK         0.4949 
     33 O          25.9516  -26.1235  -40.8897 O.2       4 UNK        -0.5039 
     34 N          25.0719  -27.2306  -42.6579 N.am      5 UNK        -0.4663 
     35 CA         25.9329  -28.4110  -42.5941 C.3       5 UNK         0.0242 
     36 CB         25.8259  -29.1949  -43.9131 C.3       5 UNK        -0.1982 
     37 C          25.5578  -29.2925  -41.3934 C.2       5 UNK         0.5017 
     38 O          24.5030  -29.9312  -41.4156 O.2       5 UNK        -0.5012 
     39 N          26.4266  -29.3223  -40.3735 N.am      6 UNK        -0.4439 
     40 CA         26.2464  -30.0723  -39.1228 C.3       6 UNK         0.0297 
     41 CB         27.3905  -29.7267  -38.1562 C.3       6 UNK        -0.2006 
     42 C          26.1407  -31.5982  -39.3044 C.2       6 UNK         0.4892 
     43 O          25.5286  -32.2637  -38.4690 O.2       6 UNK        -0.5089 
     44 N          26.7180  -32.1186  -40.3962 N.am      7 UNK        -0.4243 
     45 CA         26.6075  -33.5168  -40.8170 C.3       7 UNK         0.0196 
     46 CB         27.6871  -33.8058  -41.8732 C.3       7 UNK        -0.2007 
     47 C          25.2129  -33.8839  -41.3610 C.2       7 UNK         0.5020 
     48 O          24.8853  -35.0703  -41.3986 O.2       7 UNK        -0.5147 
     49 N          24.4291  -32.8814  -41.7813 N.am      8 UNK        -0.4734 
     50 CA         23.0604  -33.0340  -42.2633 C.3       8 UNK         0.0238 
     51 CB         22.8723  -32.2067  -43.5492 C.3       8 UNK        -0.1912 
     52 C          22.0904  -32.6432  -41.1398 C.2       8 UNK         0.5038 
     53 O          21.6717  -33.5244  -40.3874 O.2       8 UNK        -0.5046 
     54 N          21.7530  -31.3499  -41.0476 N.am      9 UNK        -0.4200 
     55 CA         20.7769  -30.7939  -40.0930 C.3       9 UNK         0.0839 
     56 C          21.3309  -29.6085  -39.2538 C.2       9 UNK         0.5513 
     57 N          22.5838  -29.2012  -39.4043 N.am      9 UNK        -0.7519 
     58 O          20.6118  -29.0604  -38.4221 O.2       9 UNK        -0.4960 
     59 C59        19.4300  -30.4288  -40.7792 C.3       10 UNK        -0.0876 
     60 S60        18.6232  -31.8729  -41.5554 S.3       10 UNK        -0.2414 
     61 C61        17.3253  -31.0886  -42.5689 C.3       10 UNK         0.0169 
     62 H62        12.1554  -25.2231  -42.5721 H         1 UNK         0.0903 
     63 H63        13.2113  -24.0579  -41.7711 H         1 UNK         0.0903 
     64 H64        12.1755  -23.5410  -43.1041 H         1 UNK         0.0903 
     65 H65        13.2754  -26.5660  -43.9721 H         1 UNK         0.3096 
     66 H66        15.1216  -25.5550  -45.9302 H         1 UNK         0.1121 
     67 H67        14.5474  -28.4889  -45.2659 H         1 UNK         0.0849 
     68 H68        13.4835  -27.5092  -46.2289 H         1 UNK         0.0849 
     69 H69        15.1373  -30.2980  -46.9834 H         1 UNK         0.0865 
     70 H70        16.3758  -30.0583  -48.1796 H         1 UNK         0.0865 
     71 H71        15.7336  -30.5014  -44.6405 H         1 UNK         0.1346 
     72 H72        19.8947  -30.5728  -43.5937 H         1 UNK         0.1412 
     73 H73        18.6888  -29.2605  -47.4814 H         1 UNK         0.1426 
     74 H74        21.0025  -29.1903  -46.9176 H         1 UNK         0.0716 
     75 H75        21.3347  -30.6924  -46.0978 H         1 UNK         0.0716 
     76 H76        20.8223  -27.0097  -45.8723 H         1 UNK         0.0695 
     77 H77        22.4432  -26.5829  -45.4266 H         1 UNK         0.0695 
     78 H78        20.7250  -25.2876  -44.1637 H         1 UNK         0.0983 
     79 H79        19.5546  -27.8420  -43.7162 H         1 UNK         0.3095 
     80 H80        17.7856  -28.1942  -42.5685 H         1 UNK         0.0454 
     81 H81        17.9516  -27.3241  -40.2217 H         1 UNK         0.0851 
     82 H82        16.3165  -27.7919  -40.6552 H         1 UNK         0.0851 
     83 H83        16.7654  -26.0860  -40.6085 H         1 UNK         0.0851 
     84 H84        15.4893  -26.8253  -42.7484 H         1 UNK         0.2976 
     85 H85        23.0916  -24.8798  -43.8306 H         1 UNK         0.3116 
     86 H86        23.6677  -24.8596  -41.0074 H         1 UNK         0.0646 
     87 H87        24.1555  -22.9259  -42.4964 H         1 UNK         0.0847 
     88 H88        25.3123  -23.8959  -43.4108 H         1 UNK         0.0847 
     89 H89        25.6250  -23.4968  -41.7285 H         1 UNK         0.0847 
     90 H90        24.3325  -27.2434  -43.3449 H         1 UNK         0.3040 
     91 H91        26.9677  -28.0788  -42.4847 H         1 UNK         0.1015 
     92 H92        26.4538  -30.0866  -43.8905 H         1 UNK         0.0786 
     93 H93        26.1515  -28.5911  -44.7604 H         1 UNK         0.0786 
     94 H94        24.8053  -29.5220  -44.1106 H         1 UNK         0.0786 
     95 H95        27.2483  -28.7366  -40.4288 H         1 UNK         0.3172 
     96 H96        25.3107  -29.7366  -38.6721 H         1 UNK         0.0595 
     97 H97        28.3625  -30.0123  -38.5606 H         1 UNK         0.0839 
     98 H98        27.2684  -30.2470  -37.2050 H         1 UNK         0.0839 
     99 H99        27.4169  -28.6592  -37.9363 H         1 UNK         0.0839 
    100 H100       27.2147  -31.4942  -41.0145 H         1 UNK         0.2998 
    101 H101       26.7971  -34.1516  -39.9486 H         1 UNK         0.0822 
    102 H102       28.6870  -33.6168  -41.4819 H         1 UNK         0.0787 
    103 H103       27.6563  -34.8504  -42.1867 H         1 UNK         0.0787 
    104 H104       27.5527  -33.1940  -42.7662 H         1 UNK         0.0787 
    105 H105       24.7437  -31.9256  -41.6520 H         1 UNK         0.3055 
    106 H106       22.8561  -34.0777  -42.5134 H         1 UNK         0.1106 
    107 H107       23.4802  -32.6050  -44.3614 H         1 UNK         0.0828 
    108 H108       21.8341  -32.2297  -43.8834 H         1 UNK         0.0828 
    109 H109       23.1547  -31.1639  -43.4136 H         1 UNK         0.0828 
    110 H110       22.2076  -30.6822  -41.6553 H         1 UNK         0.2931 
    111 H111       20.5529  -31.5541  -39.3426 H         1 UNK         0.0412 
    112 H112       23.1954  -29.6065  -40.1050 H         1 UNK         0.3472 
    113 H113       22.9049  -28.4222  -38.8537 H         1 UNK         0.3472 
    114 H114       18.7274  -30.0199  -40.0506 H         1 UNK         0.0970 
    115 H115       19.5865  -29.6433  -41.5191 H         1 UNK         0.0970 
    116 H116       16.8653  -30.2792  -42.0013 H         1 UNK         0.0612 
    117 H117       16.5440  -31.8360  -42.7147 H         1 UNK         0.0612 
@<TRIPOS>BOND
     1    1    2 1    
     2    1   62 1    
     3    1   63 1    
     4    1   64 1    
     5    2    3 2    
     6    2    4 am   BACKBONE|DICT|INTERRES
     7    4    5 1    
     8    4   65 1    
     9    5    6 1    
    10    5   25 1    
    11    5   66 1    
    12    6    7 1    
    13    6   67 1    
    14    6   68 1    
    15    7    8 1    
    16    8    9 1    
    17    8   69 1    
    18    8   70 1    
    19    9   10 ar   
    20    9   14 ar   
    21   10   11 ar   
    22   10   71 1    
    23   11   12 ar   
    24   11   61 1    
    25   12   13 ar   
    26   12   72 1    
    27   13   14 ar   
    28   13   15 1    
    29   14   73 1    
    30   15   16 1    
    31   15   74 1    
    32   15   75 1    
    33   16   17 1    
    34   17   18 1    
    35   17   76 1    
    36   17   77 1    
    37   18   19 1    
    38   18   27 1    
    39   18   78 1    
    40   19   20 am   BACKBONE|DICT|INTERRES
    41   19   79 1    
    42   20   21 2    
    43   20   22 1    
    44   22   23 1    
    45   22   24 1    
    46   22   80 1    
    47   23   81 1    
    48   23   82 1    
    49   23   83 1    
    50   24   25 am   BACKBONE|DICT|INTERRES
    51   24   84 1    
    52   25   26 2    
    53   27   28 2    
    54   27   29 am   BACKBONE|DICT|INTERRES
    55   29   30 1    
    56   29   85 1    
    57   30   31 1    
    58   30   32 1    
    59   30   86 1    
    60   31   87 1    
    61   31   88 1    
    62   31   89 1    
    63   32   33 2    
    64   32   34 am   BACKBONE|DICT|INTERRES
    65   34   35 1    
    66   34   90 1    
    67   35   36 1    
    68   35   37 1    
    69   35   91 1    
    70   36   92 1    
    71   36   93 1    
    72   36   94 1    
    73   37   38 2    
    74   37   39 am   BACKBONE|DICT|INTERRES
    75   39   40 1    
    76   39   95 1    
    77   40   41 1    
    78   40   42 1    
    79   40   96 1    
    80   41   97 1    
    81   41   98 1    
    82   41   99 1    
    83   42   43 2    
    84   42   44 am   BACKBONE|DICT|INTERRES
    85   44   45 1    
    86   44  100 1    
    87   45   46 1    
    88   45   47 1    
    89   45  101 1    
    90   46  102 1    
    91   46  103 1    
    92   46  104 1    
    93   47   48 2    
    94   47   49 am   BACKBONE|DICT|INTERRES
    95   49   50 1    
    96   49  105 1    
    97   50   51 1    
    98   50   52 1    
    99   50  106 1    
   100   51  107 1    
   101   51  108 1    
   102   51  109 1    
   103   52   53 2    
   104   52   54 am   BACKBONE|DICT|INTERRES
   105   54   55 1    
   106   54  110 1    
   107   55   56 1    
   108   55   59 1    
   109   55  111 1    
   110   56   57 am   BACKBONE|DICT|INTERRES
   111   56   58 2    
   112   57  112 1    
   113   57  113 1    
   114   59   60 1    
   115   59  114 1    
   116   59  115 1    
   117   60   61 1    
   118   61  116 1    
   119   61  117 1    
@<TRIPOS>SUBSTRUCTURE
     1 UNK         1 GROUP             0       ****    0 ROOT    
