@<TRIPOS>MOLECULE
3R8
117   119    1
SMALL
USER_CHARGES


@<TRIPOS>ATOM
      1 CA         16.1800  -29.4497  -47.6715 C.3       0 UNK        -0.2013 
      2 C          16.8383  -28.6932  -46.5273 C.2       0 UNK         0.4866 
      3 O          18.0538  -28.7861  -46.3552 O.2       0 UNK        -0.5176 
      4 N          16.0420  -27.9544  -45.7425 N.am      1 UNK        -0.4884 
      5 CA         16.5049  -27.1302  -44.6198 C.3       1 UNK         0.0853 
      6 C6         15.3600  -26.8750  -43.6024 C.3       10 UNK        -0.0849 
      7 S7         15.9573  -26.5743  -41.9001 S.3       10 UNK        -0.2776 
      8 C8         15.9848  -28.2540  -41.1895 C.3       10 UNK         0.0316 
      9 C9         17.0909  -29.1018  -41.8010 C.ar      10 UNK        -0.0863 
     10 C10        16.7872  -30.0854  -42.7474 C.ar      10 UNK        -0.1009 
     11 C11        17.8031  -30.8362  -43.3473 C.ar      10 UNK        -0.0712 
     12 C12        19.1344  -30.5874  -42.9934 C.ar      10 UNK        -0.0894 
     13 C13        19.4493  -29.6308  -42.0246 C.ar      10 UNK        -0.0745 
     14 C14        18.4226  -28.8911  -41.4310 C.ar      10 UNK        -0.0972 
     15 C15        20.8943  -29.4225  -41.5943 C.3       10 UNK         0.0209 
     16 S16        21.5435  -27.7924  -42.0740 S.3       10 UNK        -0.2568 
     17 C17        21.6495  -27.9270  -43.8960 C.3       10 UNK        -0.0983 
     18 CA         21.6921  -26.5478  -44.6069 C.3       3 UNK         0.0876 
     19 N          20.5206  -25.7431  -44.2513 N.am      3 UNK        -0.4424 
     20 C          20.1032  -24.6224  -44.8555 C.2       2 UNK         0.4918 
     21 O          20.6884  -24.0841  -45.7960 O.2       2 UNK        -0.4875 
     22 CA         18.7862  -24.0399  -44.3043 C.3       2 UNK         0.0481 
     23 CB         18.2441  -22.8491  -45.1236 C.3       2 UNK        -0.1831 
     24 N          17.7847  -25.1018  -44.1329 N.am      2 UNK        -0.4498 
     25 C          17.2129  -25.8403  -45.0963 C.2       1 UNK         0.5027 
     26 O          17.2583  -25.5590  -46.2971 O.2       1 UNK        -0.4969 
     27 C          23.0371  -25.8344  -44.3505 C.2       3 UNK         0.5005 
     28 O          24.0360  -26.1977  -44.9734 O.2       3 UNK        -0.5279 
     29 N          23.0524  -24.8777  -43.4080 N.am      4 UNK        -0.4463 
     30 CA         24.1837  -24.0825  -42.9032 C.3       4 UNK         0.0283 
     31 CB         24.8467  -23.2611  -44.0259 C.3       4 UNK        -0.1875 
     32 C          25.2337  -24.8852  -42.1100 C.2       4 UNK         0.4949 
     33 O          25.7516  -24.3729  -41.1179 O.2       4 UNK        -0.5039 
     34 N          25.5217  -26.1202  -42.5388 N.am      5 UNK        -0.4663 
     35 CA         26.4568  -27.0483  -41.8977 C.3       5 UNK         0.0242 
     36 CB         26.7284  -28.2242  -42.8505 C.3       5 UNK        -0.1982 
     37 C          25.9700  -27.5711  -40.5353 C.2       5 UNK         0.5017 
     38 O          26.8038  -27.8622  -39.6775 O.2       5 UNK        -0.5012 
     39 N          24.6413  -27.6902  -40.3733 N.am      6 UNK        -0.4439 
     40 CA         23.9305  -28.1809  -39.1826 C.3       6 UNK         0.0297 
     41 CB         24.0805  -27.1839  -38.0139 C.3       6 UNK        -0.2006 
     42 C          24.3081  -29.6257  -38.7898 C.2       6 UNK         0.4892 
     43 O          24.3343  -29.9523  -37.6016 O.2       6 UNK        -0.5089 
     44 N          24.6000  -30.4627  -39.7936 N.am      7 UNK        -0.4243 
     45 CA         25.0780  -31.8349  -39.6315 C.3       7 UNK         0.0196 
     46 CB         26.6084  -31.8336  -39.4366 C.3       7 UNK        -0.2007 
     47 C          24.6192  -32.6933  -40.8189 C.2       7 UNK         0.5020 
     48 O          25.4385  -33.3485  -41.4649 O.2       7 UNK        -0.5147 
     49 N          23.3125  -32.6663  -41.0973 N.am      8 UNK        -0.4734 
     50 CA         22.6522  -33.4706  -42.1233 C.3       8 UNK         0.0238 
     51 CB         22.7612  -32.7781  -43.4960 C.3       8 UNK        -0.1912 
     52 C          21.1900  -33.6897  -41.7166 C.2       8 UNK         0.5038 
     53 O          20.6770  -32.9460  -40.8765 O.2       8 UNK        -0.5046 
     54 N          20.5564  -34.6983  -42.3287 N.am      9 UNK        -0.4200 
     55 CA         19.1429  -35.0839  -42.1459 C.3       9 UNK         0.0839 
     56 C          18.7963  -35.6631  -40.7398 C.2       9 UNK         0.5513 
     57 N          19.7690  -36.0860  -39.9410 N.am      9 UNK        -0.7519 
     58 O          17.6270  -35.7656  -40.3768 O.2       9 UNK        -0.4960 
     59 C59        18.1402  -33.9833  -42.6013 C.3       10 UNK        -0.0876 
     60 S60        18.4489  -33.4143  -44.3097 S.3       10 UNK        -0.2414 
     61 C61        17.4386  -31.8958  -44.3860 C.3       10 UNK         0.0169 
     62 H62        16.3721  -30.5180  -47.5749 H         1 UNK         0.0903 
     63 H63        15.1007  -29.3002  -47.6933 H         1 UNK         0.0903 
     64 H64        16.5882  -29.1151  -48.6249 H         1 UNK         0.0903 
     65 H65        15.0584  -27.8862  -45.9616 H         1 UNK         0.3096 
     66 H66        17.2823  -27.7104  -44.1198 H         1 UNK         0.1121 
     67 H67        14.7391  -26.0335  -43.9161 H         1 UNK         0.0849 
     68 H68        14.6878  -27.7340  -43.5661 H         1 UNK         0.0849 
     69 H69        16.1426  -28.1793  -40.1125 H         1 UNK         0.0865 
     70 H70        15.0098  -28.7265  -41.3198 H         1 UNK         0.0865 
     71 H71        15.7575  -30.2542  -43.0318 H         1 UNK         0.1346 
     72 H72        19.9266  -31.1574  -43.4567 H         1 UNK         0.1412 
     73 H73        18.6631  -28.1408  -40.6898 H         1 UNK         0.1426 
     74 H74        21.5423  -30.1989  -41.9996 H         1 UNK         0.0716 
     75 H75        20.9527  -29.5187  -40.5093 H         1 UNK         0.0716 
     76 H76        20.7848  -28.4855  -44.2579 H         1 UNK         0.0695 
     77 H77        22.5211  -28.5307  -44.1567 H         1 UNK         0.0695 
     78 H78        21.6419  -26.7261  -45.6834 H         1 UNK         0.0983 
     79 H79        19.9745  -26.1074  -43.4845 H         1 UNK         0.3095 
     80 H80        19.0095  -23.6690  -43.3029 H         1 UNK         0.0454 
     81 H81        18.9473  -22.0158  -45.1036 H         1 UNK         0.0851 
     82 H82        17.2995  -22.4859  -44.7193 H         1 UNK         0.0851 
     83 H83        18.0851  -23.1065  -46.1708 H         1 UNK         0.0851 
     84 H84        17.6101  -25.3866  -43.1764 H         1 UNK         0.2976 
     85 H85        22.1755  -24.7099  -42.9347 H         1 UNK         0.3116 
     86 H86        23.7452  -23.3727  -42.1998 H         1 UNK         0.0646 
     87 H87        25.3432  -23.8958  -44.7603 H         1 UNK         0.0847 
     88 H88        25.6028  -22.5884  -43.6190 H         1 UNK         0.0847 
     89 H89        24.1162  -22.6470  -44.5525 H         1 UNK         0.0847 
     90 H90        25.0811  -26.4195  -43.4053 H         1 UNK         0.3040 
     91 H91        27.3959  -26.5172  -41.7268 H         1 UNK         0.1015 
     92 H92        27.1640  -27.8804  -43.7890 H         1 UNK         0.0786 
     93 H93        25.8161  -28.7736  -43.0865 H         1 UNK         0.0786 
     94 H94        27.4315  -28.9320  -42.4086 H         1 UNK         0.0786 
     95 H95        24.0545  -27.4197  -41.1511 H         1 UNK         0.3172 
     96 H96        22.8733  -28.2108  -39.4452 H         1 UNK         0.0595 
     97 H97        25.1061  -27.1436  -37.6457 H         1 UNK         0.0839 
     98 H98        23.4447  -27.4655  -37.1737 H         1 UNK         0.0839 
     99 H99        23.7918  -26.1762  -38.3128 H         1 UNK         0.0839 
    100 H100       24.5307  -30.1261  -40.7438 H         1 UNK         0.2998 
    101 H101       24.6210  -32.2752  -38.7425 H         1 UNK         0.0822 
    102 H102       26.9887  -32.8469  -39.3010 H         1 UNK         0.0787 
    103 H103       27.1213  -31.4007  -40.2964 H         1 UNK         0.0787 
    104 H104       26.8957  -31.2608  -38.5547 H         1 UNK         0.0787 
    105 H105       22.6757  -32.1568  -40.4956 H         1 UNK         0.3055 
    106 H106       23.1349  -34.4497  -42.1731 H         1 UNK         0.1106 
    107 H107       23.8015  -32.6711  -43.8035 H         1 UNK         0.0828 
    108 H108       22.2559  -33.3558  -44.2710 H         1 UNK         0.0828 
    109 H109       22.3140  -31.7851  -43.4896 H         1 UNK         0.0828 
    110 H110       21.0669  -35.2564  -42.9974 H         1 UNK         0.2931 
    111 H111       19.0005  -35.9292  -42.8201 H         1 UNK         0.0412 
    112 H112       20.7322  -36.0209  -40.2281 H         1 UNK         0.3472 
    113 H113       19.5351  -36.4697  -39.0385 H         1 UNK         0.3472 
    114 H114       17.1150  -34.3551  -42.5581 H         1 UNK         0.0970 
    115 H115       18.1826  -33.1350  -41.9168 H         1 UNK         0.0970 
    116 H116       17.5502  -31.4600  -45.3788 H         1 UNK         0.0612 
    117 H117       16.3899  -32.1802  -44.2875 H         1 UNK         0.0612 
@<TRIPOS>BOND
     1    1    2 1    
     2    1   62 1    
     3    1   63 1    
     4    1   64 1    
     5    2    3 2    
     6    2    4 am   BACKBONE|DICT|INTERRES
     7    4    5 1    
     8    4   65 1    
     9    5    6 1    
    10    5   25 1    
    11    5   66 1    
    12    6    7 1    
    13    6   67 1    
    14    6   68 1    
    15    7    8 1    
    16    8    9 1    
    17    8   69 1    
    18    8   70 1    
    19    9   10 ar   
    20    9   14 ar   
    21   10   11 ar   
    22   10   71 1    
    23   11   12 ar   
    24   11   61 1    
    25   12   13 ar   
    26   12   72 1    
    27   13   14 ar   
    28   13   15 1    
    29   14   73 1    
    30   15   16 1    
    31   15   74 1    
    32   15   75 1    
    33   16   17 1    
    34   17   18 1    
    35   17   76 1    
    36   17   77 1    
    37   18   19 1    
    38   18   27 1    
    39   18   78 1    
    40   19   20 am   BACKBONE|DICT|INTERRES
    41   19   79 1    
    42   20   21 2    
    43   20   22 1    
    44   22   23 1    
    45   22   24 1    
    46   22   80 1    
    47   23   81 1    
    48   23   82 1    
    49   23   83 1    
    50   24   25 am   BACKBONE|DICT|INTERRES
    51   24   84 1    
    52   25   26 2    
    53   27   28 2    
    54   27   29 am   BACKBONE|DICT|INTERRES
    55   29   30 1    
    56   29   85 1    
    57   30   31 1    
    58   30   32 1    
    59   30   86 1    
    60   31   87 1    
    61   31   88 1    
    62   31   89 1    
    63   32   33 2    
    64   32   34 am   BACKBONE|DICT|INTERRES
    65   34   35 1    
    66   34   90 1    
    67   35   36 1    
    68   35   37 1    
    69   35   91 1    
    70   36   92 1    
    71   36   93 1    
    72   36   94 1    
    73   37   38 2    
    74   37   39 am   BACKBONE|DICT|INTERRES
    75   39   40 1    
    76   39   95 1    
    77   40   41 1    
    78   40   42 1    
    79   40   96 1    
    80   41   97 1    
    81   41   98 1    
    82   41   99 1    
    83   42   43 2    
    84   42   44 am   BACKBONE|DICT|INTERRES
    85   44   45 1    
    86   44  100 1    
    87   45   46 1    
    88   45   47 1    
    89   45  101 1    
    90   46  102 1    
    91   46  103 1    
    92   46  104 1    
    93   47   48 2    
    94   47   49 am   BACKBONE|DICT|INTERRES
    95   49   50 1    
    96   49  105 1    
    97   50   51 1    
    98   50   52 1    
    99   50  106 1    
   100   51  107 1    
   101   51  108 1    
   102   51  109 1    
   103   52   53 2    
   104   52   54 am   BACKBONE|DICT|INTERRES
   105   54   55 1    
   106   54  110 1    
   107   55   56 1    
   108   55   59 1    
   109   55  111 1    
   110   56   57 am   BACKBONE|DICT|INTERRES
   111   56   58 2    
   112   57  112 1    
   113   57  113 1    
   114   59   60 1    
   115   59  114 1    
   116   59  115 1    
   117   60   61 1    
   118   61  116 1    
   119   61  117 1    
@<TRIPOS>SUBSTRUCTURE
     1 UNK         1 GROUP             0       ****    0 ROOT    
