@<TRIPOS>MOLECULE
3R8
117   119    1
SMALL
USER_CHARGES


@<TRIPOS>ATOM
      1 CA         15.5769  -23.4553  -41.3212 C.3       0 UNK        -0.2013 
      2 C          16.4382  -23.8115  -42.5236 C.2       0 UNK         0.4866 
      3 O          17.4048  -23.1064  -42.8126 O.2       0 UNK        -0.5176 
      4 N          16.0858  -24.8932  -43.2291 N.am      1 UNK        -0.4884 
      5 CA         16.8155  -25.4457  -44.3750 C.3       1 UNK         0.0853 
      6 C6         15.9485  -26.4255  -45.2132 C.3       10 UNK        -0.0849 
      7 S7         14.9477  -27.5908  -44.2169 S.3       10 UNK        -0.2776 
      8 C8         14.9554  -29.0815  -45.2577 C.3       10 UNK         0.0316 
      9 C9         16.2044  -29.9230  -45.0428 C.ar      10 UNK        -0.0863 
     10 C10        16.3405  -30.6783  -43.8741 C.ar      10 UNK        -0.1009 
     11 C11        17.4470  -31.5113  -43.6930 C.ar      10 UNK        -0.0712 
     12 C12        18.4309  -31.5751  -44.6851 C.ar      10 UNK        -0.0894 
     13 C13        18.3054  -30.8284  -45.8610 C.ar      10 UNK        -0.0745 
     14 C14        17.1912  -29.9991  -46.0308 C.ar      10 UNK        -0.0972 
     15 C15        19.3209  -30.9867  -46.9862 C.3       10 UNK         0.0209 
     16 S16        20.1890  -29.4389  -47.3936 S.3       10 UNK        -0.2568 
     17 C17        21.5894  -29.4493  -46.2251 C.3       10 UNK        -0.0983 
     18 CA         21.7104  -28.0966  -45.4794 C.3       3 UNK         0.0876 
     19 N          20.6186  -27.8335  -44.5407 N.am      3 UNK        -0.4424 
     20 C          20.2707  -28.5341  -43.4550 C.2       2 UNK         0.4918 
     21 O          20.7806  -29.6077  -43.1312 O.2       2 UNK        -0.4875 
     22 CA         19.1804  -27.9295  -42.5449 C.3       2 UNK         0.0481 
     23 CB         19.8304  -27.0801  -41.4366 C.3       2 UNK        -0.1831 
     24 N          18.1003  -27.1763  -43.2058 N.am      2 UNK        -0.4498 
     25 C          18.1620  -26.0524  -43.9356 C.2       1 UNK         0.5027 
     26 O          19.2113  -25.4885  -44.2505 O.2       1 UNK        -0.4969 
     27 C          23.0652  -27.9023  -44.7684 C.2       3 UNK         0.5005 
     28 O          23.6388  -28.8627  -44.2517 O.2       3 UNK        -0.5279 
     29 N          23.5210  -26.6387  -44.7552 N.am      4 UNK        -0.4463 
     30 CA         24.6849  -26.0774  -44.0531 C.3       4 UNK         0.0283 
     31 CB         25.9708  -26.8995  -44.2857 C.3       4 UNK        -0.1875 
     32 C          24.4136  -25.8575  -42.5554 C.2       4 UNK         0.4949 
     33 O          23.4881  -26.4420  -41.9912 O.2       4 UNK        -0.5039 
     34 N          25.2383  -25.0056  -41.9302 N.am      5 UNK        -0.4663 
     35 CA         25.1188  -24.6039  -40.5214 C.3       5 UNK         0.0242 
     36 CB         26.0999  -23.4553  -40.2359 C.3       5 UNK        -0.1982 
     37 C          25.3300  -25.7536  -39.5201 C.2       5 UNK         0.5017 
     38 O          24.7476  -25.7248  -38.4357 O.2       5 UNK        -0.5012 
     39 N          26.1397  -26.7483  -39.9086 N.am      6 UNK        -0.4439 
     40 CA         26.3579  -27.9879  -39.1576 C.3       6 UNK         0.0297 
     41 CB         27.6445  -28.6596  -39.6661 C.3       6 UNK        -0.2006 
     42 C          25.1716  -28.9697  -39.2430 C.2       6 UNK         0.4892 
     43 O          25.0672  -29.8410  -38.3790 O.2       6 UNK        -0.5089 
     44 N          24.3214  -28.7983  -40.2683 N.am      7 UNK        -0.4243 
     45 CA         23.1790  -29.6143  -40.6887 C.3       7 UNK         0.0196 
     46 CB         22.1356  -29.7670  -39.5639 C.3       7 UNK        -0.2007 
     47 C          23.5846  -30.9837  -41.2600 C.2       7 UNK         0.5020 
     48 O          24.4445  -31.6716  -40.7072 O.2       7 UNK        -0.5147 
     49 N          22.9109  -31.3856  -42.3426 N.am      8 UNK        -0.4734 
     50 CA         23.0220  -32.7273  -42.9269 C.3       8 UNK         0.0238 
     51 CB         22.7198  -32.6457  -44.4312 C.3       8 UNK        -0.1912 
     52 C          22.0773  -33.7354  -42.2470 C.2       8 UNK         0.5038 
     53 O          22.2159  -34.9383  -42.4730 O.2       8 UNK        -0.5046 
     54 N          21.1185  -33.2229  -41.4667 N.am      9 UNK        -0.4200 
     55 CA         20.0562  -33.9604  -40.7744 C.3       9 UNK         0.0839 
     56 C          20.5900  -34.9817  -39.7340 C.2       9 UNK         0.5513 
     57 N          19.9302  -36.1229  -39.5907 N.am      9 UNK        -0.7519 
     58 O          21.5616  -34.7281  -39.0251 O.2       9 UNK        -0.4960 
     59 C59        19.0274  -32.9952  -40.1183 C.3       10 UNK        -0.0876 
     60 S60        18.5529  -31.5742  -41.1663 S.3       10 UNK        -0.2414 
     61 C61        17.5577  -32.3825  -42.4518 C.3       10 UNK         0.0169 
     62 H62        16.1791  -23.4638  -40.4130 H         1 UNK         0.0903 
     63 H63        15.1571  -22.4571  -41.4426 H         1 UNK         0.0903 
     64 H64        14.7525  -24.1556  -41.1875 H         1 UNK         0.0903 
     65 H65        15.2807  -25.4344  -42.9432 H         1 UNK         0.3096 
     66 H66        17.0661  -24.6077  -45.0303 H         1 UNK         0.1121 
     67 H67        15.2505  -25.8483  -45.8216 H         1 UNK         0.0849 
     68 H68        16.5661  -26.9747  -45.9269 H         1 UNK         0.0849 
     69 H69        14.0783  -29.6821  -45.0117 H         1 UNK         0.0865 
     70 H70        14.8417  -28.8023  -46.3065 H         1 UNK         0.0865 
     71 H71        15.5720  -30.6332  -43.1142 H         1 UNK         0.1346 
     72 H72        19.2805  -32.2290  -44.5483 H         1 UNK         0.1412 
     73 H73        17.0824  -29.4362  -46.9479 H         1 UNK         0.1426 
     74 H74        20.0496  -31.7657  -46.7567 H         1 UNK         0.0716 
     75 H75        18.7922  -31.3259  -47.8780 H         1 UNK         0.0716 
     76 H76        21.4862  -30.2736  -45.5225 H         1 UNK         0.0695 
     77 H77        22.4935  -29.6525  -46.8017 H         1 UNK         0.0695 
     78 H78        21.6451  -27.3144  -46.2380 H         1 UNK         0.0983 
     79 H79        20.1562  -26.9335  -44.6486 H         1 UNK         0.3095 
     80 H80        18.6831  -28.7711  -42.0630 H         1 UNK         0.0454 
     81 H81        20.3465  -26.2088  -41.8415 H         1 UNK         0.0851 
     82 H82        19.0906  -26.7302  -40.7170 H         1 UNK         0.0851 
     83 H83        20.5704  -27.6599  -40.8854 H         1 UNK         0.0851 
     84 H84        17.1765  -27.5705  -43.0796 H         1 UNK         0.2976 
     85 H85        22.9323  -25.9404  -45.1884 H         1 UNK         0.3116 
     86 H86        24.8388  -25.0919  -44.4957 H         1 UNK         0.0646 
     87 H87        26.8514  -26.3561  -43.9419 H         1 UNK         0.0847 
     88 H88        26.1198  -27.1145  -45.3438 H         1 UNK         0.0847 
     89 H89        25.9537  -27.8491  -43.7499 H         1 UNK         0.0847 
     90 H90        25.9721  -24.5607  -42.4640 H         1 UNK         0.3040 
     91 H91        24.1029  -24.2318  -40.3692 H         1 UNK         0.1015 
     92 H92        25.8978  -22.5926  -40.8711 H         1 UNK         0.0786 
     93 H93        27.1355  -23.7576  -40.3971 H         1 UNK         0.0786 
     94 H94        26.0164  -23.1187  -39.2013 H         1 UNK         0.0786 
     95 H95        26.5885  -26.6693  -40.8096 H         1 UNK         0.3172 
     96 H96        26.5004  -27.7333  -38.1051 H         1 UNK         0.0595 
     97 H97        28.5083  -28.0043  -39.5522 H         1 UNK         0.0839 
     98 H98        27.8555  -29.5708  -39.1044 H         1 UNK         0.0839 
     99 H99        27.5674  -28.9381  -40.7180 H         1 UNK         0.0839 
    100 H100       24.4899  -28.0062  -40.8758 H         1 UNK         0.2998 
    101 H101       22.7187  -29.0407  -41.4936 H         1 UNK         0.0822 
    102 H102       21.8836  -28.8037  -39.1207 H         1 UNK         0.0787 
    103 H103       21.2119  -30.1994  -39.9501 H         1 UNK         0.0787 
    104 H104       22.4905  -30.4206  -38.7664 H         1 UNK         0.0787 
    105 H105       22.2235  -30.7542  -42.7546 H         1 UNK         0.3055 
    106 H106       24.0430  -33.0953  -42.8030 H         1 UNK         0.1106 
    107 H107       22.8943  -33.6069  -44.9165 H         1 UNK         0.0828 
    108 H108       21.6809  -32.3740  -44.6152 H         1 UNK         0.0828 
    109 H109       23.3561  -31.9112  -44.9257 H         1 UNK         0.0828 
    110 H110       21.0874  -32.2197  -41.3639 H         1 UNK         0.2931 
    111 H111       19.5387  -34.5307  -41.5472 H         1 UNK         0.0412 
    112 H112       19.1247  -36.3361  -40.1589 H         1 UNK         0.3472 
    113 H113       20.2506  -36.7917  -38.9072 H         1 UNK         0.3472 
    114 H114       19.4343  -32.5823  -39.1929 H         1 UNK         0.0970 
    115 H115       18.1250  -33.5387  -39.8322 H         1 UNK         0.0970 
    116 H116       18.0029  -33.3379  -42.7286 H         1 UNK         0.0612 
    117 H117       16.5690  -32.6094  -42.0503 H         1 UNK         0.0612 
@<TRIPOS>BOND
     1    1    2 1    
     2    1   62 1    
     3    1   63 1    
     4    1   64 1    
     5    2    3 2    
     6    2    4 am   BACKBONE|DICT|INTERRES
     7    4    5 1    
     8    4   65 1    
     9    5    6 1    
    10    5   25 1    
    11    5   66 1    
    12    6    7 1    
    13    6   67 1    
    14    6   68 1    
    15    7    8 1    
    16    8    9 1    
    17    8   69 1    
    18    8   70 1    
    19    9   10 ar   
    20    9   14 ar   
    21   10   11 ar   
    22   10   71 1    
    23   11   12 ar   
    24   11   61 1    
    25   12   13 ar   
    26   12   72 1    
    27   13   14 ar   
    28   13   15 1    
    29   14   73 1    
    30   15   16 1    
    31   15   74 1    
    32   15   75 1    
    33   16   17 1    
    34   17   18 1    
    35   17   76 1    
    36   17   77 1    
    37   18   19 1    
    38   18   27 1    
    39   18   78 1    
    40   19   20 am   BACKBONE|DICT|INTERRES
    41   19   79 1    
    42   20   21 2    
    43   20   22 1    
    44   22   23 1    
    45   22   24 1    
    46   22   80 1    
    47   23   81 1    
    48   23   82 1    
    49   23   83 1    
    50   24   25 am   BACKBONE|DICT|INTERRES
    51   24   84 1    
    52   25   26 2    
    53   27   28 2    
    54   27   29 am   BACKBONE|DICT|INTERRES
    55   29   30 1    
    56   29   85 1    
    57   30   31 1    
    58   30   32 1    
    59   30   86 1    
    60   31   87 1    
    61   31   88 1    
    62   31   89 1    
    63   32   33 2    
    64   32   34 am   BACKBONE|DICT|INTERRES
    65   34   35 1    
    66   34   90 1    
    67   35   36 1    
    68   35   37 1    
    69   35   91 1    
    70   36   92 1    
    71   36   93 1    
    72   36   94 1    
    73   37   38 2    
    74   37   39 am   BACKBONE|DICT|INTERRES
    75   39   40 1    
    76   39   95 1    
    77   40   41 1    
    78   40   42 1    
    79   40   96 1    
    80   41   97 1    
    81   41   98 1    
    82   41   99 1    
    83   42   43 2    
    84   42   44 am   BACKBONE|DICT|INTERRES
    85   44   45 1    
    86   44  100 1    
    87   45   46 1    
    88   45   47 1    
    89   45  101 1    
    90   46  102 1    
    91   46  103 1    
    92   46  104 1    
    93   47   48 2    
    94   47   49 am   BACKBONE|DICT|INTERRES
    95   49   50 1    
    96   49  105 1    
    97   50   51 1    
    98   50   52 1    
    99   50  106 1    
   100   51  107 1    
   101   51  108 1    
   102   51  109 1    
   103   52   53 2    
   104   52   54 am   BACKBONE|DICT|INTERRES
   105   54   55 1    
   106   54  110 1    
   107   55   56 1    
   108   55   59 1    
   109   55  111 1    
   110   56   57 am   BACKBONE|DICT|INTERRES
   111   56   58 2    
   112   57  112 1    
   113   57  113 1    
   114   59   60 1    
   115   59  114 1    
   116   59  115 1    
   117   60   61 1    
   118   61  116 1    
   119   61  117 1    
@<TRIPOS>SUBSTRUCTURE
     1 UNK         1 GROUP             0       ****    0 ROOT    
