@<TRIPOS>MOLECULE
3R8
117   119    1
SMALL
USER_CHARGES


@<TRIPOS>ATOM
      1 CA         15.0418  -22.5209  -41.6013 C.3       0 UNK        -0.2013 
      2 C          15.3301  -23.2997  -42.8759 C.2       0 UNK         0.4866 
      3 O          14.7425  -23.0078  -43.9177 O.2       0 UNK        -0.5176 
      4 N          16.2285  -24.2907  -42.8014 N.am      1 UNK        -0.4884 
      5 CA         16.6234  -25.1499  -43.9251 C.3       1 UNK         0.0853 
      6 C6         17.4630  -26.3624  -43.4529 C.3       10 UNK        -0.0849 
      7 S7         16.4936  -27.5785  -42.5077 S.3       10 UNK        -0.2776 
      8 C8         16.3400  -28.9351  -43.7193 C.3       10 UNK         0.0316 
      9 C9         17.6825  -29.5821  -44.0444 C.ar      10 UNK        -0.0863 
     10 C10        18.3360  -30.3549  -43.0811 C.ar      10 UNK        -0.1009 
     11 C11        19.5553  -30.9724  -43.3718 C.ar      10 UNK        -0.0712 
     12 C12        20.1272  -30.8074  -44.6369 C.ar      10 UNK        -0.0894 
     13 C13        19.4847  -30.0384  -45.6124 C.ar      10 UNK        -0.0745 
     14 C14        18.2592  -29.4328  -45.3112 C.ar      10 UNK        -0.0972 
     15 C15        20.0915  -29.9109  -47.0054 C.3       10 UNK         0.0209 
     16 S16        21.4291  -28.6743  -47.0895 S.3       10 UNK        -0.2568 
     17 C17        20.4917  -27.1040  -47.0539 C.3       10 UNK        -0.0983 
     18 CA         21.1624  -25.9279  -46.2876 C.3       3 UNK         0.0876 
     19 N          20.2143  -24.8263  -46.1277 N.am      3 UNK        -0.4424 
     20 C          20.4743  -23.5776  -45.7209 C.2       2 UNK         0.4918 
     21 O          21.6085  -23.1217  -45.5800 O.2       2 UNK        -0.4875 
     22 CA         19.2574  -22.6916  -45.3742 C.3       2 UNK         0.0481 
     23 CB         18.6924  -21.9969  -46.6284 C.3       2 UNK        -0.1831 
     24 N          18.2103  -23.3952  -44.6106 N.am      2 UNK        -0.4498 
     25 C          17.4213  -24.4052  -45.0116 C.2       1 UNK         0.5027 
     26 O          17.3863  -24.8277  -46.1681 O.2       1 UNK        -0.4969 
     27 C          21.7421  -26.3116  -44.9088 C.2       3 UNK         0.5005 
     28 O          22.8811  -25.9532  -44.6065 O.2       3 UNK        -0.5279 
     29 N          20.9532  -27.0473  -44.1093 N.am      4 UNK        -0.4463 
     30 CA         21.2187  -27.5523  -42.7513 C.3       4 UNK         0.0283 
     31 CB         21.4309  -26.3935  -41.7584 C.3       4 UNK        -0.1875 
     32 C          22.3559  -28.5873  -42.6297 C.2       4 UNK         0.4949 
     33 O          22.3255  -29.3867  -41.6944 O.2       4 UNK        -0.5039 
     34 N          23.3352  -28.5551  -43.5451 N.am      5 UNK        -0.4663 
     35 CA         24.4719  -29.4738  -43.7004 C.3       5 UNK         0.0242 
     36 CB         23.9860  -30.8190  -44.2778 C.3       5 UNK        -0.1982 
     37 C          25.3063  -29.6471  -42.4164 C.2       5 UNK         0.5017 
     38 O          25.7231  -30.7613  -42.1013 O.2       5 UNK        -0.5012 
     39 N          25.4879  -28.5466  -41.6699 N.am      6 UNK        -0.4439 
     40 CA         26.1432  -28.4724  -40.3555 C.3       6 UNK         0.0297 
     41 CB         27.6598  -28.7286  -40.4884 C.3       6 UNK        -0.2006 
     42 C          25.4805  -29.3652  -39.2811 C.2       6 UNK         0.4892 
     43 O          26.1675  -29.8394  -38.3749 O.2       6 UNK        -0.5089 
     44 N          24.1599  -29.5737  -39.4077 N.am      7 UNK        -0.4243 
     45 CA         23.2993  -30.4145  -38.5694 C.3       7 UNK         0.0196 
     46 CB         23.2656  -29.9160  -37.1085 C.3       7 UNK        -0.2007 
     47 C          23.6029  -31.9210  -38.6883 C.2       7 UNK         0.5020 
     48 O          23.3217  -32.6722  -37.7527 O.2       7 UNK        -0.5147 
     49 N          24.1165  -32.3600  -39.8497 N.am      8 UNK        -0.4734 
     50 CA         24.4066  -33.7680  -40.1657 C.3       8 UNK         0.0238 
     51 CB         25.1165  -33.8547  -41.5262 C.3       8 UNK        -0.1912 
     52 C          23.1784  -34.6992  -40.1464 C.2       8 UNK         0.5038 
     53 O          23.3483  -35.9119  -40.0117 O.2       8 UNK        -0.5046 
     54 N          21.9755  -34.1219  -40.2597 N.am      9 UNK        -0.4200 
     55 CA         20.6881  -34.8058  -40.0701 C.3       9 UNK         0.0839 
     56 C          20.4121  -35.2558  -38.6037 C.2       9 UNK         0.5513 
     57 N          21.1357  -34.7677  -37.6015 N.am      9 UNK        -0.7519 
     58 O          19.5199  -36.0679  -38.3736 O.2       9 UNK        -0.4960 
     59 C59        19.5031  -33.9594  -40.6039 C.3       10 UNK        -0.0876 
     60 S60        19.6496  -33.5406  -42.3753 S.3       10 UNK        -0.2414 
     61 C61        20.2435  -31.8208  -42.3153 C.3       10 UNK         0.0169 
     62 H62        13.9866  -22.6036  -41.3421 H         1 UNK         0.0903 
     63 H63        15.6273  -22.8864  -40.7578 H         1 UNK         0.0903 
     64 H64        15.2757  -21.4664  -41.7448 H         1 UNK         0.0903 
     65 H65        16.6539  -24.5096  -41.9111 H         1 UNK         0.3096 
     66 H66        15.7136  -25.5192  -44.4046 H         1 UNK         0.1121 
     67 H67        17.9162  -26.8715  -44.3034 H         1 UNK         0.0849 
     68 H68        18.2974  -26.0338  -42.8307 H         1 UNK         0.0849 
     69 H69        15.6684  -29.6937  -43.3147 H         1 UNK         0.0865 
     70 H70        15.8595  -28.5573  -44.6233 H         1 UNK         0.0865 
     71 H71        17.8897  -30.4813  -42.1039 H         1 UNK         0.1346 
     72 H72        21.0666  -31.2899  -44.8675 H         1 UNK         0.1412 
     73 H73        17.7468  -28.8549  -46.0684 H         1 UNK         0.1426 
     74 H74        19.3236  -29.6642  -47.7404 H         1 UNK         0.0716 
     75 H75        20.4958  -30.8778  -47.3085 H         1 UNK         0.0716 
     76 H76        19.5029  -27.2976  -46.6387 H         1 UNK         0.0695 
     77 H77        20.3138  -26.8039  -48.0877 H         1 UNK         0.0695 
     78 H78        21.9964  -25.5666  -46.8934 H         1 UNK         0.0983 
     79 H79        19.2326  -25.0545  -46.2558 H         1 UNK         0.3095 
     80 H80        19.6222  -21.9079  -44.7083 H         1 UNK         0.0454 
     81 H81        19.4551  -21.3787  -47.1036 H         1 UNK         0.0851 
     82 H82        17.8570  -21.3437  -46.3768 H         1 UNK         0.0851 
     83 H83        18.3466  -22.7101  -47.3768 H         1 UNK         0.0851 
     84 H84        18.1629  -23.1505  -43.6309 H         1 UNK         0.2976 
     85 H85        20.0848  -27.3737  -44.5073 H         1 UNK         0.3116 
     86 H86        20.3069  -28.0735  -42.4546 H         1 UNK         0.0646 
     87 H87        22.3393  -25.8310  -41.9752 H         1 UNK         0.0847 
     88 H88        20.5937  -25.6963  -41.7752 H         1 UNK         0.0847 
     89 H89        21.5188  -26.7678  -40.7375 H         1 UNK         0.0847 
     90 H90        23.3012  -27.7783  -44.1996 H         1 UNK         0.3040 
     91 H91        25.1398  -29.0207  -44.4346 H         1 UNK         0.1015 
     92 H92        24.8266  -31.4745  -44.5090 H         1 UNK         0.0786 
     93 H93        23.4280  -30.6731  -45.2026 H         1 UNK         0.0786 
     94 H94        23.3444  -31.3491  -43.5747 H         1 UNK         0.0786 
     95 H95        25.0858  -27.6842  -42.0117 H         1 UNK         0.3172 
     96 H96        26.0131  -27.4456  -40.0108 H         1 UNK         0.0595 
     97 H97        27.8725  -29.7613  -40.7669 H         1 UNK         0.0839 
     98 H98        28.1746  -28.5347  -39.5465 H         1 UNK         0.0839 
     99 H99        28.1088  -28.0790  -41.2395 H         1 UNK         0.0839 
    100 H100       23.6965  -29.1960  -40.2288 H         1 UNK         0.2998 
    101 H101       22.2931  -30.2904  -38.9729 H         1 UNK         0.0822 
    102 H102       22.4944  -30.4340  -36.5371 H         1 UNK         0.0787 
    103 H103       23.0430  -28.8502  -37.0574 H         1 UNK         0.0787 
    104 H104       24.2137  -30.0872  -36.5980 H         1 UNK         0.0787 
    105 H105       24.3628  -31.6794  -40.5595 H         1 UNK         0.3055 
    106 H106       25.0908  -34.1395  -39.3997 H         1 UNK         0.1106 
    107 H107       26.0750  -33.3362  -41.5050 H         1 UNK         0.0828 
    108 H108       25.3214  -34.8907  -41.7996 H         1 UNK         0.0828 
    109 H109       24.5149  -33.4185  -42.3244 H         1 UNK         0.0828 
    110 H110       21.9398  -33.1214  -40.3736 H         1 UNK         0.2931 
    111 H111       20.7270  -35.7216  -40.6634 H         1 UNK         0.0412 
    112 H112       20.9407  -35.0750  -36.6618 H         1 UNK         0.3472 
    113 H113       21.8770  -34.0947  -37.7644 H         1 UNK         0.3472 
    114 H114       19.3756  -33.0541  -40.0084 H         1 UNK         0.0970 
    115 H115       18.5698  -34.5147  -40.4906 H         1 UNK         0.0970 
    116 H116       21.3231  -31.8171  -42.4646 H         1 UNK         0.0612 
    117 H117       20.0727  -31.3783  -41.3333 H         1 UNK         0.0612 
@<TRIPOS>BOND
     1    1    2 1    
     2    1   62 1    
     3    1   63 1    
     4    1   64 1    
     5    2    3 2    
     6    2    4 am   BACKBONE|DICT|INTERRES
     7    4    5 1    
     8    4   65 1    
     9    5    6 1    
    10    5   25 1    
    11    5   66 1    
    12    6    7 1    
    13    6   67 1    
    14    6   68 1    
    15    7    8 1    
    16    8    9 1    
    17    8   69 1    
    18    8   70 1    
    19    9   10 ar   
    20    9   14 ar   
    21   10   11 ar   
    22   10   71 1    
    23   11   12 ar   
    24   11   61 1    
    25   12   13 ar   
    26   12   72 1    
    27   13   14 ar   
    28   13   15 1    
    29   14   73 1    
    30   15   16 1    
    31   15   74 1    
    32   15   75 1    
    33   16   17 1    
    34   17   18 1    
    35   17   76 1    
    36   17   77 1    
    37   18   19 1    
    38   18   27 1    
    39   18   78 1    
    40   19   20 am   BACKBONE|DICT|INTERRES
    41   19   79 1    
    42   20   21 2    
    43   20   22 1    
    44   22   23 1    
    45   22   24 1    
    46   22   80 1    
    47   23   81 1    
    48   23   82 1    
    49   23   83 1    
    50   24   25 am   BACKBONE|DICT|INTERRES
    51   24   84 1    
    52   25   26 2    
    53   27   28 2    
    54   27   29 am   BACKBONE|DICT|INTERRES
    55   29   30 1    
    56   29   85 1    
    57   30   31 1    
    58   30   32 1    
    59   30   86 1    
    60   31   87 1    
    61   31   88 1    
    62   31   89 1    
    63   32   33 2    
    64   32   34 am   BACKBONE|DICT|INTERRES
    65   34   35 1    
    66   34   90 1    
    67   35   36 1    
    68   35   37 1    
    69   35   91 1    
    70   36   92 1    
    71   36   93 1    
    72   36   94 1    
    73   37   38 2    
    74   37   39 am   BACKBONE|DICT|INTERRES
    75   39   40 1    
    76   39   95 1    
    77   40   41 1    
    78   40   42 1    
    79   40   96 1    
    80   41   97 1    
    81   41   98 1    
    82   41   99 1    
    83   42   43 2    
    84   42   44 am   BACKBONE|DICT|INTERRES
    85   44   45 1    
    86   44  100 1    
    87   45   46 1    
    88   45   47 1    
    89   45  101 1    
    90   46  102 1    
    91   46  103 1    
    92   46  104 1    
    93   47   48 2    
    94   47   49 am   BACKBONE|DICT|INTERRES
    95   49   50 1    
    96   49  105 1    
    97   50   51 1    
    98   50   52 1    
    99   50  106 1    
   100   51  107 1    
   101   51  108 1    
   102   51  109 1    
   103   52   53 2    
   104   52   54 am   BACKBONE|DICT|INTERRES
   105   54   55 1    
   106   54  110 1    
   107   55   56 1    
   108   55   59 1    
   109   55  111 1    
   110   56   57 am   BACKBONE|DICT|INTERRES
   111   56   58 2    
   112   57  112 1    
   113   57  113 1    
   114   59   60 1    
   115   59  114 1    
   116   59  115 1    
   117   60   61 1    
   118   61  116 1    
   119   61  117 1    
@<TRIPOS>SUBSTRUCTURE
     1 UNK         1 GROUP             0       ****    0 ROOT    
