@<TRIPOS>MOLECULE
3R8
117   119    1
SMALL
USER_CHARGES


@<TRIPOS>ATOM
      1 CA         18.8592  -28.2339  -41.8335 C.3       0 UNK        -0.2013 
      2 C          17.8330  -27.2806  -42.4175 C.2       0 UNK         0.4866 
      3 O          17.5448  -26.2536  -41.8036 O.2       0 UNK        -0.5176 
      4 N          17.2789  -27.6026  -43.5960 N.am      1 UNK        -0.4884 
      5 CA         16.3056  -26.7562  -44.3008 C.3       1 UNK         0.0853 
      6 C6         15.5404  -27.5299  -45.4047 C.3       10 UNK        -0.0849 
      7 S7         16.5651  -28.1033  -46.8080 S.3       10 UNK        -0.2776 
      8 C8         16.5870  -29.9093  -46.5834 C.3       10 UNK         0.0316 
      9 C9         17.6409  -30.3679  -45.5837 C.ar      10 UNK        -0.0863 
     10 C10        17.2706  -31.0990  -44.4512 C.ar      10 UNK        -0.1009 
     11 C11        18.2440  -31.6268  -43.5971 C.ar      10 UNK        -0.0712 
     12 C12        19.5958  -31.3868  -43.8634 C.ar      10 UNK        -0.0894 
     13 C13        19.9818  -30.6358  -44.9782 C.ar      10 UNK        -0.0745 
     14 C14        18.9969  -30.1393  -45.8394 C.ar      10 UNK        -0.0972 
     15 C15        21.4636  -30.4540  -45.2951 C.3       10 UNK         0.0209 
     16 S16        21.9169  -28.7555  -45.7802 S.3       10 UNK        -0.2568 
     17 C17        22.1120  -27.9447  -44.1613 C.3       10 UNK        -0.0983 
     18 CA         22.0607  -26.3997  -44.2908 C.3       3 UNK         0.0876 
     19 N          20.7492  -25.9387  -44.7375 N.am      3 UNK        -0.4424 
     20 C          20.5102  -24.8002  -45.4028 C.2       2 UNK         0.4918 
     21 O          21.3944  -24.0036  -45.7198 O.2       2 UNK        -0.4875 
     22 CA         19.0493  -24.4990  -45.7892 C.3       2 UNK         0.0481 
     23 CB         18.9040  -24.2652  -47.3030 C.3       2 UNK        -0.1831 
     24 N          18.1555  -25.5828  -45.3799 N.am      2 UNK        -0.4498 
     25 C          16.9500  -25.4488  -44.8143 C.2       1 UNK         0.5027 
     26 O          16.3761  -24.3711  -44.6502 O.2       1 UNK        -0.4969 
     27 C          22.3901  -25.7081  -42.9584 C.2       3 UNK         0.5005 
     28 O          21.9374  -26.1698  -41.9106 O.2       3 UNK        -0.5279 
     29 N          23.1664  -24.6162  -43.0090 N.am      4 UNK        -0.4463 
     30 CA         23.5743  -23.8240  -41.8391 C.3       4 UNK         0.0283 
     31 CB         24.3461  -22.5806  -42.3087 C.3       4 UNK        -0.1875 
     32 C          24.4015  -24.6109  -40.8036 C.2       4 UNK         0.4949 
     33 O          24.3300  -24.3079  -39.6130 O.2       4 UNK        -0.5039 
     34 N          25.1451  -25.6210  -41.2735 N.am      5 UNK        -0.4663 
     35 CA         25.9063  -26.5635  -40.4493 C.3       5 UNK         0.0242 
     36 CB         27.1470  -27.0095  -41.2435 C.3       5 UNK        -0.1982 
     37 C          25.0795  -27.7882  -40.0075 C.2       5 UNK         0.5017 
     38 O          25.6350  -28.6679  -39.3478 O.2       5 UNK        -0.5012 
     39 N          23.7991  -27.8620  -40.4068 N.am      6 UNK        -0.4439 
     40 CA         22.8312  -28.9545  -40.2285 C.3       6 UNK         0.0297 
     41 CB         22.5738  -29.2614  -38.7421 C.3       6 UNK        -0.2006 
     42 C          23.1677  -30.2290  -41.0226 C.2       6 UNK         0.4892 
     43 O          22.2881  -30.7506  -41.7077 O.2       6 UNK        -0.5089 
     44 N          24.4238  -30.6894  -40.9417 N.am      7 UNK        -0.4243 
     45 CA         25.0034  -31.8535  -41.6185 C.3       7 UNK         0.0196 
     46 CB         25.1599  -31.5773  -43.1308 C.3       7 UNK        -0.2007 
     47 C          24.2325  -33.1478  -41.2996 C.2       7 UNK         0.5020 
     48 O          24.4738  -33.7497  -40.2533 O.2       7 UNK        -0.5147 
     49 N          23.3210  -33.5469  -42.1960 N.am      8 UNK        -0.4734 
     50 CA         22.4257  -34.6936  -42.0261 C.3       8 UNK         0.0238 
     51 CB         21.8276  -35.0667  -43.3929 C.3       8 UNK        -0.1912 
     52 C          21.3016  -34.4486  -41.0022 C.2       8 UNK         0.5038 
     53 O          20.7819  -35.4181  -40.4478 O.2       8 UNK        -0.5046 
     54 N          20.9315  -33.1794  -40.7878 N.am      9 UNK        -0.4200 
     55 CA         19.9123  -32.7560  -39.8179 C.3       9 UNK         0.0839 
     56 C          20.4634  -32.7118  -38.3661 C.2       9 UNK         0.5513 
     57 N          19.5799  -32.6822  -37.3779 N.am      9 UNK        -0.7519 
     58 O          21.6673  -32.6750  -38.1223 O.2       9 UNK        -0.4960 
     59 C59        19.2569  -31.4092  -40.2501 C.3       10 UNK        -0.0876 
     60 S60        17.5604  -31.6173  -40.8875 S.3       10 UNK        -0.2414 
     61 C61        17.8324  -32.5274  -42.4404 C.3       10 UNK         0.0169 
     62 H62        18.4731  -28.6709  -40.9140 H         1 UNK         0.0903 
     63 H63        19.1053  -29.0381  -42.5230 H         1 UNK         0.0903 
     64 H64        19.7760  -27.6980  -41.5935 H         1 UNK         0.0903 
     65 H65        17.5245  -28.4712  -44.0544 H         1 UNK         0.3096 
     66 H66        15.5605  -26.4521  -43.5614 H         1 UNK         0.1121 
     67 H67        15.0252  -28.3817  -44.9583 H         1 UNK         0.0849 
     68 H68        14.7478  -26.8989  -45.8110 H         1 UNK         0.0849 
     69 H69        15.5922  -30.2603  -46.3048 H         1 UNK         0.0865 
     70 H70        16.8060  -30.3718  -47.5469 H         1 UNK         0.0865 
     71 H71        16.2257  -31.3024  -44.2585 H         1 UNK         0.1346 
     72 H72        20.3505  -31.8091  -43.2161 H         1 UNK         0.1412 
     73 H73        19.2870  -29.5966  -46.7290 H         1 UNK         0.1426 
     74 H74        21.7206  -31.1263  -46.1145 H         1 UNK         0.0716 
     75 H75        22.0798  -30.7538  -44.4475 H         1 UNK         0.0716 
     76 H76        23.0666  -28.2670  -43.7406 H         1 UNK         0.0695 
     77 H77        21.3393  -28.3114  -43.4837 H         1 UNK         0.0695 
     78 H78        22.8132  -26.1033  -45.0256 H         1 UNK         0.0983 
     79 H79        19.9684  -26.5023  -44.4452 H         1 UNK         0.3095 
     80 H80        18.7754  -23.5809  -45.2657 H         1 UNK         0.0454 
     81 H81        19.1839  -25.1506  -47.8750 H         1 UNK         0.0851 
     82 H82        19.5391  -23.4441  -47.6379 H         1 UNK         0.0851 
     83 H83        17.8783  -24.0072  -47.5665 H         1 UNK         0.0851 
     84 H84        18.4814  -26.5234  -45.5515 H         1 UNK         0.2976 
     85 H85        23.4586  -24.2721  -43.9140 H         1 UNK         0.3116 
     86 H86        22.6635  -23.4896  -41.3378 H         1 UNK         0.0646 
     87 H87        24.6374  -21.9591  -41.4606 H         1 UNK         0.0847 
     88 H88        23.7383  -21.9598  -42.9673 H         1 UNK         0.0847 
     89 H89        25.2580  -22.8479  -42.8439 H         1 UNK         0.0847 
     90 H90        25.1520  -25.7824  -42.2705 H         1 UNK         0.3040 
     91 H91        26.2450  -26.0607  -39.5405 H         1 UNK         0.1015 
     92 H92        27.7582  -26.1557  -41.5371 H         1 UNK         0.0786 
     93 H93        26.8742  -27.5551  -42.1479 H         1 UNK         0.0786 
     94 H94        27.7816  -27.6661  -40.6464 H         1 UNK         0.0786 
     95 H95        23.4275  -27.0776  -40.9342 H         1 UNK         0.3172 
     96 H96        21.8950  -28.5763  -40.6407 H         1 UNK         0.0595 
     97 H97        23.4386  -29.7165  -38.2587 H         1 UNK         0.0839 
     98 H98        21.7412  -29.9556  -38.6317 H         1 UNK         0.0839 
     99 H99        22.3154  -28.3583  -38.1894 H         1 UNK         0.0839 
    100 H100       25.0471  -30.1802  -40.3199 H         1 UNK         0.2998 
    101 H101       26.0048  -31.9840  -41.2052 H         1 UNK         0.0822 
    102 H102       24.2149  -31.3269  -43.6111 H         1 UNK         0.0787 
    103 H103       25.8413  -30.7440  -43.3034 H         1 UNK         0.0787 
    104 H104       25.5763  -32.4430  -43.6477 H         1 UNK         0.0787 
    105 H105       23.1777  -32.9687  -43.0111 H         1 UNK         0.3055 
    106 H106       23.0153  -35.5393  -41.6647 H         1 UNK         0.1106 
    107 H107       21.2307  -34.2547  -43.8103 H         1 UNK         0.0828 
    108 H108       22.6069  -35.3164  -44.1131 H         1 UNK         0.0828 
    109 H109       21.1765  -35.9380  -43.3088 H         1 UNK         0.0828 
    110 H110       21.4676  -32.4348  -41.2231 H         1 UNK         0.2931 
    111 H111       19.1414  -33.5293  -39.8065 H         1 UNK         0.0412 
    112 H112       18.5890  -32.7038  -37.5648 H         1 UNK         0.3472 
    113 H113       19.9097  -32.6439  -36.4258 H         1 UNK         0.3472 
    114 H114       19.1895  -30.7057  -39.4179 H         1 UNK         0.0970 
    115 H115       19.8510  -30.8904  -41.0003 H         1 UNK         0.0970 
    116 H116       18.5717  -33.3147  -42.2921 H         1 UNK         0.0612 
    117 H117       16.9055  -33.0430  -42.6958 H         1 UNK         0.0612 
@<TRIPOS>BOND
     1    1    2 1    
     2    1   62 1    
     3    1   63 1    
     4    1   64 1    
     5    2    3 2    
     6    2    4 am   BACKBONE|DICT|INTERRES
     7    4    5 1    
     8    4   65 1    
     9    5    6 1    
    10    5   25 1    
    11    5   66 1    
    12    6    7 1    
    13    6   67 1    
    14    6   68 1    
    15    7    8 1    
    16    8    9 1    
    17    8   69 1    
    18    8   70 1    
    19    9   10 ar   
    20    9   14 ar   
    21   10   11 ar   
    22   10   71 1    
    23   11   12 ar   
    24   11   61 1    
    25   12   13 ar   
    26   12   72 1    
    27   13   14 ar   
    28   13   15 1    
    29   14   73 1    
    30   15   16 1    
    31   15   74 1    
    32   15   75 1    
    33   16   17 1    
    34   17   18 1    
    35   17   76 1    
    36   17   77 1    
    37   18   19 1    
    38   18   27 1    
    39   18   78 1    
    40   19   20 am   BACKBONE|DICT|INTERRES
    41   19   79 1    
    42   20   21 2    
    43   20   22 1    
    44   22   23 1    
    45   22   24 1    
    46   22   80 1    
    47   23   81 1    
    48   23   82 1    
    49   23   83 1    
    50   24   25 am   BACKBONE|DICT|INTERRES
    51   24   84 1    
    52   25   26 2    
    53   27   28 2    
    54   27   29 am   BACKBONE|DICT|INTERRES
    55   29   30 1    
    56   29   85 1    
    57   30   31 1    
    58   30   32 1    
    59   30   86 1    
    60   31   87 1    
    61   31   88 1    
    62   31   89 1    
    63   32   33 2    
    64   32   34 am   BACKBONE|DICT|INTERRES
    65   34   35 1    
    66   34   90 1    
    67   35   36 1    
    68   35   37 1    
    69   35   91 1    
    70   36   92 1    
    71   36   93 1    
    72   36   94 1    
    73   37   38 2    
    74   37   39 am   BACKBONE|DICT|INTERRES
    75   39   40 1    
    76   39   95 1    
    77   40   41 1    
    78   40   42 1    
    79   40   96 1    
    80   41   97 1    
    81   41   98 1    
    82   41   99 1    
    83   42   43 2    
    84   42   44 am   BACKBONE|DICT|INTERRES
    85   44   45 1    
    86   44  100 1    
    87   45   46 1    
    88   45   47 1    
    89   45  101 1    
    90   46  102 1    
    91   46  103 1    
    92   46  104 1    
    93   47   48 2    
    94   47   49 am   BACKBONE|DICT|INTERRES
    95   49   50 1    
    96   49  105 1    
    97   50   51 1    
    98   50   52 1    
    99   50  106 1    
   100   51  107 1    
   101   51  108 1    
   102   51  109 1    
   103   52   53 2    
   104   52   54 am   BACKBONE|DICT|INTERRES
   105   54   55 1    
   106   54  110 1    
   107   55   56 1    
   108   55   59 1    
   109   55  111 1    
   110   56   57 am   BACKBONE|DICT|INTERRES
   111   56   58 2    
   112   57  112 1    
   113   57  113 1    
   114   59   60 1    
   115   59  114 1    
   116   59  115 1    
   117   60   61 1    
   118   61  116 1    
   119   61  117 1    
@<TRIPOS>SUBSTRUCTURE
     1 UNK         1 GROUP             0       ****    0 ROOT    
