@<TRIPOS>MOLECULE
3R8
117   119    1
SMALL
USER_CHARGES


@<TRIPOS>ATOM
      1 CA         19.0751  -23.1310  -47.5471 C.3       0 UNK        -0.2013 
      2 C          19.8168  -24.4587  -47.5053 C.2       0 UNK         0.4866 
      3 O          20.9272  -24.5540  -48.0279 O.2       0 UNK        -0.5176 
      4 N          19.2065  -25.4815  -46.8922 N.am      1 UNK        -0.4884 
      5 CA         19.7831  -26.8182  -46.7006 C.3       1 UNK         0.0853 
      6 C6         18.7253  -27.8577  -46.2443 C.3       10 UNK        -0.0849 
      7 S7         19.1566  -29.5509  -46.7629 S.3       10 UNK        -0.2776 
      8 C8         17.7595  -30.5033  -46.0862 C.3       10 UNK         0.0316 
      9 C9         17.7589  -30.5227  -44.5637 C.ar      10 UNK        -0.0863 
     10 C10        18.7486  -31.2234  -43.8707 C.ar      10 UNK        -0.1009 
     11 C11        18.7517  -31.2597  -42.4737 C.ar      10 UNK        -0.0712 
     12 C12        17.7449  -30.5968  -41.7644 C.ar      10 UNK        -0.0894 
     13 C13        16.7439  -29.8974  -42.4474 C.ar      10 UNK        -0.0745 
     14 C14        16.7586  -29.8619  -43.8457 C.ar      10 UNK        -0.0972 
     15 C15        15.6225  -29.2029  -41.6888 C.3       10 UNK         0.0209 
     16 S16        15.7652  -27.3913  -41.7865 S.3       10 UNK        -0.2568 
     17 C17        16.8404  -27.0075  -40.3629 C.3       10 UNK        -0.0983 
     18 CA         18.3581  -27.0433  -40.6765 C.3       3 UNK         0.0876 
     19 N          18.6918  -26.3283  -41.9158 N.am      3 UNK        -0.4424 
     20 C          19.8980  -26.2970  -42.4941 C.2       2 UNK         0.4918 
     21 O          20.9230  -26.7557  -41.9833 O.2       2 UNK        -0.4875 
     22 CA         19.9787  -25.6005  -43.8556 C.3       2 UNK         0.0481 
     23 CB         20.2675  -24.1029  -43.6630 C.3       2 UNK        -0.1831 
     24 N          21.0723  -26.2042  -44.6171 N.am      2 UNK        -0.4498 
     25 C          21.0509  -26.8284  -45.8063 C.2       1 UNK         0.5027 
     26 O          22.0549  -27.4024  -46.2258 O.2       1 UNK        -0.4969 
     27 C          19.1530  -26.5595  -39.4451 C.2       3 UNK         0.5005 
     28 O          19.4216  -27.3586  -38.5479 O.2       3 UNK        -0.5279 
     29 N          19.5144  -25.2673  -39.4258 N.am      4 UNK        -0.4463 
     30 CA         20.3236  -24.6423  -38.3762 C.3       4 UNK         0.0283 
     31 CB         20.2523  -23.1134  -38.5191 C.3       4 UNK        -0.1875 
     32 C          21.7884  -25.1142  -38.3812 C.2       4 UNK         0.4949 
     33 O          22.4004  -25.1828  -37.3151 O.2       4 UNK        -0.5039 
     34 N          22.3212  -25.4280  -39.5702 N.am      5 UNK        -0.4663 
     35 CA         23.6589  -25.9945  -39.7475 C.3       5 UNK         0.0242 
     36 CB         24.2164  -25.5817  -41.1208 C.3       5 UNK        -0.1982 
     37 C          23.6287  -27.5227  -39.6089 C.2       5 UNK         0.5017 
     38 O          24.4942  -28.0876  -38.9411 O.2       5 UNK        -0.5012 
     39 N          22.6351  -28.1522  -40.2561 N.am      6 UNK        -0.4439 
     40 CA         22.3443  -29.5909  -40.3009 C.3       6 UNK         0.0297 
     41 CB         21.9767  -30.1241  -38.9010 C.3       6 UNK        -0.2006 
     42 C          23.4279  -30.4524  -40.9823 C.2       6 UNK         0.4892 
     43 O          23.3558  -31.6784  -40.9029 O.2       6 UNK        -0.5089 
     44 N          24.3862  -29.8182  -41.6736 N.am      7 UNK        -0.4243 
     45 CA         25.5321  -30.4564  -42.3332 C.3       7 UNK         0.0196 
     46 CB         26.4872  -29.3625  -42.8383 C.3       7 UNK        -0.2007 
     47 C          25.1580  -31.4157  -43.4780 C.2       7 UNK         0.5020 
     48 O          25.9492  -32.2981  -43.8100 O.2       7 UNK        -0.5147 
     49 N          23.9646  -31.2323  -44.0567 N.am      8 UNK        -0.4734 
     50 CA         23.3912  -32.1030  -45.0837 C.3       8 UNK         0.0238 
     51 CB         22.2807  -31.3329  -45.8167 C.3       8 UNK        -0.1912 
     52 C          22.8642  -33.4445  -44.5352 C.2       8 UNK         0.5038 
     53 O          22.6856  -34.3733  -45.3244 O.2       8 UNK        -0.5046 
     54 N          22.6194  -33.5298  -43.2206 N.am      9 UNK        -0.4200 
     55 CA         22.1884  -34.7510  -42.5265 C.3       9 UNK         0.0839 
     56 C          23.4087  -35.5880  -42.0621 C.2       9 UNK         0.5513 
     57 N          23.2607  -36.9038  -41.9901 N.am      9 UNK        -0.7519 
     58 O          24.4709  -35.0638  -41.7338 O.2       9 UNK        -0.4960 
     59 C59        21.2459  -34.4286  -41.3366 C.3       10 UNK        -0.0876 
     60 S60        19.6239  -33.8129  -41.9000 S.3       10 UNK        -0.2414 
     61 C61        19.8501  -32.0166  -41.7457 C.3       10 UNK         0.0169 
     62 H62        18.8908  -22.8366  -48.5800 H         1 UNK         0.0903 
     63 H63        18.1157  -23.1817  -47.0325 H         1 UNK         0.0903 
     64 H64        19.6725  -22.3530  -47.0726 H         1 UNK         0.0903 
     65 H65        18.2886  -25.3369  -46.4969 H         1 UNK         0.3096 
     66 H66        20.1193  -27.1208  -47.6955 H         1 UNK         0.1121 
     67 H67        18.5758  -27.8384  -45.1639 H         1 UNK         0.0849 
     68 H68        17.7554  -27.6266  -46.6878 H         1 UNK         0.0849 
     69 H69        17.8213  -31.5283  -46.4546 H         1 UNK         0.0865 
     70 H70        16.8238  -30.0974  -46.4739 H         1 UNK         0.0865 
     71 H71        19.5140  -31.7521  -44.4207 H         1 UNK         0.1346 
     72 H72        17.7371  -30.6310  -40.6835 H         1 UNK         0.1412 
     73 H73        15.9830  -29.3223  -44.3724 H         1 UNK         0.1426 
     74 H74        15.5897  -29.5246  -40.6468 H         1 UNK         0.0716 
     75 H75        14.6674  -29.4991  -42.1250 H         1 UNK         0.0716 
     76 H76        16.5516  -26.0137  -40.0146 H         1 UNK         0.0695 
     77 H77        16.6042  -27.6888  -39.5432 H         1 UNK         0.0695 
     78 H78        18.6449  -28.0842  -40.8362 H         1 UNK         0.0983 
     79 H79        17.9029  -25.9260  -42.4018 H         1 UNK         0.3095 
     80 H80        19.0171  -25.7203  -44.3504 H         1 UNK         0.0454 
     81 H81        21.1934  -23.9363  -43.1106 H         1 UNK         0.0851 
     82 H82        20.3580  -23.5892  -44.6195 H         1 UNK         0.0851 
     83 H83        19.4644  -23.6139  -43.1102 H         1 UNK         0.0851 
     84 H84        21.9219  -26.2922  -44.0782 H         1 UNK         0.2976 
     85 H85        19.2292  -24.6810  -40.1968 H         1 UNK         0.3116 
     86 H86        19.8926  -24.9142  -37.4101 H         1 UNK         0.0646 
     87 H87        20.8271  -22.6221  -37.7326 H         1 UNK         0.0847 
     88 H88        19.2264  -22.7535  -38.4392 H         1 UNK         0.0847 
     89 H89        20.6551  -22.7754  -39.4747 H         1 UNK         0.0847 
     90 H90        21.7309  -25.3862  -40.3898 H         1 UNK         0.3040 
     91 H91        24.3276  -25.6004  -38.9784 H         1 UNK         0.1015 
     92 H92        24.2954  -24.4975  -41.2032 H         1 UNK         0.0786 
     93 H93        23.5902  -25.9328  -41.9416 H         1 UNK         0.0786 
     94 H94        25.2164  -25.9900  -41.2742 H         1 UNK         0.0786 
     95 H95        22.0037  -27.5785  -40.8143 H         1 UNK         0.3172 
     96 H96        21.4564  -29.6802  -40.9275 H         1 UNK         0.0595 
     97 H97        21.1773  -29.5355  -38.4508 H         1 UNK         0.0839 
     98 H98        22.8305  -30.1045  -38.2233 H         1 UNK         0.0839 
     99 H99        21.6281  -31.1562  -38.9501 H         1 UNK         0.0839 
    100 H100       24.3591  -28.8098  -41.6909 H         1 UNK         0.2998 
    101 H101       26.0551  -31.0482  -41.5789 H         1 UNK         0.0822 
    102 H102       26.8370  -28.7316  -42.0207 H         1 UNK         0.0787 
    103 H103       27.3698  -29.8003  -43.3070 H         1 UNK         0.0787 
    104 H104       26.0094  -28.7203  -43.5794 H         1 UNK         0.0787 
    105 H105       23.3927  -30.4661  -43.7332 H         1 UNK         0.3055 
    106 H106       24.1721  -32.3443  -45.8087 H         1 UNK         0.1106 
    107 H107       21.7755  -31.9636  -46.5497 H         1 UNK         0.0828 
    108 H108       21.5245  -30.9607  -45.1267 H         1 UNK         0.0828 
    109 H109       22.6835  -30.4746  -46.3552 H         1 UNK         0.0828 
    110 H110       22.8831  -32.7588  -42.6181 H         1 UNK         0.2931 
    111 H111       21.6251  -35.3685  -43.2299 H         1 UNK         0.0412 
    112 H112       22.3922  -37.3463  -42.2496 H         1 UNK         0.3472 
    113 H113       24.0359  -37.4682  -41.6779 H         1 UNK         0.3472 
    114 H114       21.0536  -35.3282  -40.7488 H         1 UNK         0.0970 
    115 H115       21.7041  -33.7168  -40.6481 H         1 UNK         0.0970 
    116 H116       19.8780  -31.7468  -40.6892 H         1 UNK         0.0612 
    117 H117       20.8123  -31.7310  -42.1696 H         1 UNK         0.0612 
@<TRIPOS>BOND
     1    1    2 1    
     2    1   62 1    
     3    1   63 1    
     4    1   64 1    
     5    2    3 2    
     6    2    4 am   BACKBONE|DICT|INTERRES
     7    4    5 1    
     8    4   65 1    
     9    5    6 1    
    10    5   25 1    
    11    5   66 1    
    12    6    7 1    
    13    6   67 1    
    14    6   68 1    
    15    7    8 1    
    16    8    9 1    
    17    8   69 1    
    18    8   70 1    
    19    9   10 ar   
    20    9   14 ar   
    21   10   11 ar   
    22   10   71 1    
    23   11   12 ar   
    24   11   61 1    
    25   12   13 ar   
    26   12   72 1    
    27   13   14 ar   
    28   13   15 1    
    29   14   73 1    
    30   15   16 1    
    31   15   74 1    
    32   15   75 1    
    33   16   17 1    
    34   17   18 1    
    35   17   76 1    
    36   17   77 1    
    37   18   19 1    
    38   18   27 1    
    39   18   78 1    
    40   19   20 am   BACKBONE|DICT|INTERRES
    41   19   79 1    
    42   20   21 2    
    43   20   22 1    
    44   22   23 1    
    45   22   24 1    
    46   22   80 1    
    47   23   81 1    
    48   23   82 1    
    49   23   83 1    
    50   24   25 am   BACKBONE|DICT|INTERRES
    51   24   84 1    
    52   25   26 2    
    53   27   28 2    
    54   27   29 am   BACKBONE|DICT|INTERRES
    55   29   30 1    
    56   29   85 1    
    57   30   31 1    
    58   30   32 1    
    59   30   86 1    
    60   31   87 1    
    61   31   88 1    
    62   31   89 1    
    63   32   33 2    
    64   32   34 am   BACKBONE|DICT|INTERRES
    65   34   35 1    
    66   34   90 1    
    67   35   36 1    
    68   35   37 1    
    69   35   91 1    
    70   36   92 1    
    71   36   93 1    
    72   36   94 1    
    73   37   38 2    
    74   37   39 am   BACKBONE|DICT|INTERRES
    75   39   40 1    
    76   39   95 1    
    77   40   41 1    
    78   40   42 1    
    79   40   96 1    
    80   41   97 1    
    81   41   98 1    
    82   41   99 1    
    83   42   43 2    
    84   42   44 am   BACKBONE|DICT|INTERRES
    85   44   45 1    
    86   44  100 1    
    87   45   46 1    
    88   45   47 1    
    89   45  101 1    
    90   46  102 1    
    91   46  103 1    
    92   46  104 1    
    93   47   48 2    
    94   47   49 am   BACKBONE|DICT|INTERRES
    95   49   50 1    
    96   49  105 1    
    97   50   51 1    
    98   50   52 1    
    99   50  106 1    
   100   51  107 1    
   101   51  108 1    
   102   51  109 1    
   103   52   53 2    
   104   52   54 am   BACKBONE|DICT|INTERRES
   105   54   55 1    
   106   54  110 1    
   107   55   56 1    
   108   55   59 1    
   109   55  111 1    
   110   56   57 am   BACKBONE|DICT|INTERRES
   111   56   58 2    
   112   57  112 1    
   113   57  113 1    
   114   59   60 1    
   115   59  114 1    
   116   59  115 1    
   117   60   61 1    
   118   61  116 1    
   119   61  117 1    
@<TRIPOS>SUBSTRUCTURE
     1 UNK         1 GROUP             0       ****    0 ROOT    
