@<TRIPOS>MOLECULE
3R8
117   119    1
SMALL
USER_CHARGES


@<TRIPOS>ATOM
      1 CA         12.0843  -25.3060  -44.0229 C.3       0 UNK        -0.2013 
      2 C          13.4121  -26.0447  -44.1039 C.2       0 UNK         0.4866 
      3 O          13.8857  -26.5584  -43.0900 O.2       0 UNK        -0.5176 
      4 N          14.0081  -26.1041  -45.3031 N.am      1 UNK        -0.4884 
      5 CA         15.3114  -26.7155  -45.5947 C.3       1 UNK         0.0853 
      6 C6         15.3187  -28.2538  -45.3427 C.3       10 UNK        -0.0849 
      7 S7         16.4167  -29.1346  -46.5009 S.3       10 UNK        -0.2776 
      8 C8         17.1067  -30.4585  -45.4572 C.3       10 UNK         0.0316 
      9 C9         18.3917  -30.0303  -44.7630 C.ar      10 UNK        -0.0863 
     10 C10        18.4441  -29.8912  -43.3731 C.ar      10 UNK        -0.1009 
     11 C11        19.6427  -29.5416  -42.7410 C.ar      10 UNK        -0.0712 
     12 C12        20.7928  -29.3268  -43.5085 C.ar      10 UNK        -0.0894 
     13 C13        20.7504  -29.4628  -44.8995 C.ar      10 UNK        -0.0745 
     14 C14        19.5480  -29.8148  -45.5180 C.ar      10 UNK        -0.0972 
     15 C15        22.0008  -29.2632  -45.7434 C.3       10 UNK         0.0209 
     16 S16        22.1444  -27.5593  -46.3665 S.3       10 UNK        -0.2568 
     17 C17        22.9639  -26.7264  -44.9674 C.3       10 UNK        -0.0983 
     18 CA         22.1990  -25.4845  -44.4348 C.3       3 UNK         0.0876 
     19 N          20.9137  -25.8357  -43.8367 N.am      3 UNK        -0.4424 
     20 C          19.7108  -25.7275  -44.4041 C.2       2 UNK         0.4918 
     21 O          19.5194  -25.3335  -45.5565 O.2       2 UNK        -0.4875 
     22 CA         18.5364  -26.1166  -43.4913 C.3       2 UNK         0.0481 
     23 CB         18.1775  -24.9841  -42.5066 C.3       2 UNK        -0.1831 
     24 N          17.3683  -26.6116  -44.2284 N.am      2 UNK        -0.4498 
     25 C          16.4496  -25.9163  -44.9147 C.2       1 UNK         0.5027 
     26 O          16.4498  -24.6873  -45.0257 O.2       1 UNK        -0.4969 
     27 C          23.0237  -24.7604  -43.3521 C.2       3 UNK         0.5005 
     28 O          22.5947  -24.6790  -42.1963 O.2       3 UNK        -0.5279 
     29 N          24.2130  -24.2721  -43.7323 N.am      4 UNK        -0.4463 
     30 CA         25.1803  -23.6207  -42.8393 C.3       4 UNK         0.0283 
     31 CB         26.2693  -22.9448  -43.6892 C.3       4 UNK        -0.1875 
     32 C          25.8217  -24.5617  -41.7971 C.2       4 UNK         0.4949 
     33 O          26.3966  -24.0704  -40.8252 O.2       4 UNK        -0.5039 
     34 N          25.7196  -25.8791  -42.0081 N.am      5 UNK        -0.4663 
     35 CA         26.1527  -26.9276  -41.0890 C.3       5 UNK         0.0242 
     36 CB         27.4602  -27.5492  -41.6081 C.3       5 UNK        -0.1982 
     37 C          25.0464  -27.9853  -40.9986 C.2       5 UNK         0.5017 
     38 O          24.2771  -28.1487  -41.9500 O.2       5 UNK        -0.5012 
     39 N          24.9954  -28.6984  -39.8674 N.am      6 UNK        -0.4439 
     40 CA         24.0406  -29.7755  -39.6113 C.3       6 UNK         0.0297 
     41 CB         23.8850  -29.9714  -38.0925 C.3       6 UNK        -0.2006 
     42 C          24.4827  -31.0673  -40.3181 C.2       6 UNK         0.4892 
     43 O          25.1789  -31.8901  -39.7194 O.2       6 UNK        -0.5089 
     44 N          24.0879  -31.2141  -41.5882 N.am      7 UNK        -0.4243 
     45 CA         24.4070  -32.3441  -42.4668 C.3       7 UNK         0.0196 
     46 CB         24.2016  -31.8993  -43.9265 C.3       7 UNK        -0.2007 
     47 C          23.5974  -33.6108  -42.1191 C.2       7 UNK         0.5020 
     48 O          22.8266  -34.0974  -42.9472 O.2       7 UNK        -0.5147 
     49 N          23.7674  -34.1018  -40.8827 N.am      8 UNK        -0.4734 
     50 CA         23.0990  -35.2611  -40.2663 C.3       8 UNK         0.0238 
     51 CB         23.4637  -36.5664  -41.0056 C.3       8 UNK        -0.1912 
     52 C          21.5735  -35.0961  -40.0873 C.2       8 UNK         0.5038 
     53 O          20.8766  -36.0849  -39.8529 O.2       8 UNK        -0.5046 
     54 N          21.0867  -33.8541  -40.1825 N.am      9 UNK        -0.4200 
     55 CA         19.6822  -33.4539  -40.0234 C.3       9 UNK         0.0839 
     56 C          19.1844  -33.3714  -38.5505 C.2       9 UNK         0.5513 
     57 N          20.0411  -33.5141  -37.5460 N.am      9 UNK        -0.7519 
     58 O          17.9923  -33.1899  -38.3162 O.2       9 UNK        -0.4960 
     59 C59        19.3845  -32.1570  -40.8224 C.3       10 UNK        -0.0876 
     60 S60        20.5123  -30.7787  -40.4139 S.3       10 UNK        -0.2414 
     61 C61        19.6904  -29.3770  -41.2290 C.3       10 UNK         0.0169 
     62 H62        11.3032  -25.9768  -43.6660 H         1 UNK         0.0903 
     63 H63        12.1617  -24.4718  -43.3261 H         1 UNK         0.0903 
     64 H64        11.7758  -24.9116  -44.9909 H         1 UNK         0.0903 
     65 H65        13.5767  -25.6310  -46.0856 H         1 UNK         0.3096 
     66 H66        15.4552  -26.5530  -46.6645 H         1 UNK         0.1121 
     67 H67        14.3196  -28.6572  -45.5158 H         1 UNK         0.0849 
     68 H68        15.5450  -28.5033  -44.3045 H         1 UNK         0.0849 
     69 H69        16.3590  -30.7975  -44.7383 H         1 UNK         0.0865 
     70 H70        17.3238  -31.3203  -46.0901 H         1 UNK         0.0865 
     71 H71        17.5559  -30.0640  -42.7804 H         1 UNK         0.1346 
     72 H72        21.7193  -29.0562  -43.0208 H         1 UNK         0.1412 
     73 H73        19.5118  -29.9266  -46.5934 H         1 UNK         0.1426 
     74 H74        21.9762  -29.9430  -46.5964 H         1 UNK         0.0716 
     75 H75        22.8956  -29.5267  -45.1792 H         1 UNK         0.0716 
     76 H76        23.1225  -27.4411  -44.1603 H         1 UNK         0.0695 
     77 H77        23.9592  -26.4515  -45.3198 H         1 UNK         0.0695 
     78 H78        22.0428  -24.7751  -45.2506 H         1 UNK         0.0983 
     79 H79        20.9781  -26.0643  -42.8537 H         1 UNK         0.3095 
     80 H80        18.8638  -26.9615  -42.8884 H         1 UNK         0.0454 
     81 H81        19.0095  -24.7767  -41.8327 H         1 UNK         0.0851 
     82 H82        17.9465  -24.0509  -43.0205 H         1 UNK         0.0851 
     83 H83        17.3199  -25.2503  -41.8887 H         1 UNK         0.0851 
     84 H84        17.3043  -27.6192  -44.2767 H         1 UNK         0.2976 
     85 H85        24.4938  -24.3712  -44.6981 H         1 UNK         0.3116 
     86 H86        24.6510  -22.8426  -42.2850 H         1 UNK         0.0646 
     87 H87        26.9856  -22.4165  -43.0583 H         1 UNK         0.0847 
     88 H88        25.8432  -22.2106  -44.3732 H         1 UNK         0.0847 
     89 H89        26.8305  -23.6707  -44.2790 H         1 UNK         0.0847 
     90 H90        25.1660  -26.2069  -42.7879 H         1 UNK         0.3040 
     91 H91        26.3155  -26.5125  -40.0916 H         1 UNK         0.1015 
     92 H92        27.3311  -27.9922  -42.5966 H         1 UNK         0.0786 
     93 H93        27.8141  -28.3360  -40.9406 H         1 UNK         0.0786 
     94 H94        28.2519  -26.8028  -41.6770 H         1 UNK         0.0786 
     95 H95        25.6909  -28.5344  -39.1532 H         1 UNK         0.3172 
     96 H96        23.0672  -29.4795  -40.0060 H         1 UNK         0.0595 
     97 H97        23.1761  -30.7719  -37.8763 H         1 UNK         0.0839 
     98 H98        24.8296  -30.2340  -37.6144 H         1 UNK         0.0839 
     99 H99        23.5062  -29.0683  -37.6136 H         1 UNK         0.0839 
    100 H100       23.5500  -30.4633  -41.9993 H         1 UNK         0.2998 
    101 H101       25.4633  -32.5914  -42.3402 H         1 UNK         0.0822 
    102 H102       24.4980  -32.6872  -44.6202 H         1 UNK         0.0787 
    103 H103       23.1557  -31.6646  -44.1285 H         1 UNK         0.0787 
    104 H104       24.7989  -31.0184  -44.1631 H         1 UNK         0.0787 
    105 H105       24.3974  -33.5801  -40.2766 H         1 UNK         0.3055 
    106 H106       23.5033  -35.3364  -39.2555 H         1 UNK         0.1106 
    107 H107       23.0271  -36.6033  -42.0040 H         1 UNK         0.0828 
    108 H108       24.5432  -36.6776  -41.1065 H         1 UNK         0.0828 
    109 H109       23.1006  -37.4398  -40.4624 H         1 UNK         0.0828 
    110 H110       21.7308  -33.1016  -40.3744 H         1 UNK         0.2931 
    111 H111       19.0775  -34.2403  -40.4794 H         1 UNK         0.0412 
    112 H112       19.7031  -33.4646  -36.5976 H         1 UNK         0.3472 
    113 H113       21.0201  -33.6647  -37.7263 H         1 UNK         0.3472 
    114 H114       19.4831  -32.3631  -41.8895 H         1 UNK         0.0970 
    115 H115       18.3506  -31.8377  -40.6783 H         1 UNK         0.0970 
    116 H116       18.6865  -29.2588  -40.8180 H         1 UNK         0.0612 
    117 H117       20.2314  -28.4624  -40.9821 H         1 UNK         0.0612 
@<TRIPOS>BOND
     1    1    2 1    
     2    1   62 1    
     3    1   63 1    
     4    1   64 1    
     5    2    3 2    
     6    2    4 am   BACKBONE|DICT|INTERRES
     7    4    5 1    
     8    4   65 1    
     9    5    6 1    
    10    5   25 1    
    11    5   66 1    
    12    6    7 1    
    13    6   67 1    
    14    6   68 1    
    15    7    8 1    
    16    8    9 1    
    17    8   69 1    
    18    8   70 1    
    19    9   10 ar   
    20    9   14 ar   
    21   10   11 ar   
    22   10   71 1    
    23   11   12 ar   
    24   11   61 1    
    25   12   13 ar   
    26   12   72 1    
    27   13   14 ar   
    28   13   15 1    
    29   14   73 1    
    30   15   16 1    
    31   15   74 1    
    32   15   75 1    
    33   16   17 1    
    34   17   18 1    
    35   17   76 1    
    36   17   77 1    
    37   18   19 1    
    38   18   27 1    
    39   18   78 1    
    40   19   20 am   BACKBONE|DICT|INTERRES
    41   19   79 1    
    42   20   21 2    
    43   20   22 1    
    44   22   23 1    
    45   22   24 1    
    46   22   80 1    
    47   23   81 1    
    48   23   82 1    
    49   23   83 1    
    50   24   25 am   BACKBONE|DICT|INTERRES
    51   24   84 1    
    52   25   26 2    
    53   27   28 2    
    54   27   29 am   BACKBONE|DICT|INTERRES
    55   29   30 1    
    56   29   85 1    
    57   30   31 1    
    58   30   32 1    
    59   30   86 1    
    60   31   87 1    
    61   31   88 1    
    62   31   89 1    
    63   32   33 2    
    64   32   34 am   BACKBONE|DICT|INTERRES
    65   34   35 1    
    66   34   90 1    
    67   35   36 1    
    68   35   37 1    
    69   35   91 1    
    70   36   92 1    
    71   36   93 1    
    72   36   94 1    
    73   37   38 2    
    74   37   39 am   BACKBONE|DICT|INTERRES
    75   39   40 1    
    76   39   95 1    
    77   40   41 1    
    78   40   42 1    
    79   40   96 1    
    80   41   97 1    
    81   41   98 1    
    82   41   99 1    
    83   42   43 2    
    84   42   44 am   BACKBONE|DICT|INTERRES
    85   44   45 1    
    86   44  100 1    
    87   45   46 1    
    88   45   47 1    
    89   45  101 1    
    90   46  102 1    
    91   46  103 1    
    92   46  104 1    
    93   47   48 2    
    94   47   49 am   BACKBONE|DICT|INTERRES
    95   49   50 1    
    96   49  105 1    
    97   50   51 1    
    98   50   52 1    
    99   50  106 1    
   100   51  107 1    
   101   51  108 1    
   102   51  109 1    
   103   52   53 2    
   104   52   54 am   BACKBONE|DICT|INTERRES
   105   54   55 1    
   106   54  110 1    
   107   55   56 1    
   108   55   59 1    
   109   55  111 1    
   110   56   57 am   BACKBONE|DICT|INTERRES
   111   56   58 2    
   112   57  112 1    
   113   57  113 1    
   114   59   60 1    
   115   59  114 1    
   116   59  115 1    
   117   60   61 1    
   118   61  116 1    
   119   61  117 1    
@<TRIPOS>SUBSTRUCTURE
     1 UNK         1 GROUP             0       ****    0 ROOT    
