@<TRIPOS>MOLECULE
3R8
117   119    1
SMALL
USER_CHARGES


@<TRIPOS>ATOM
      1 CA         16.9615  -21.7555  -44.2792 C.3       0 UNK        -0.2013 
      2 C          16.6600  -23.2429  -44.3882 C.2       0 UNK         0.4866 
      3 O          16.0364  -23.6693  -45.3598 O.2       0 UNK        -0.5176 
      4 N          17.1049  -24.0293  -43.4038 N.am      1 UNK        -0.4884 
      5 CA         16.9643  -25.4837  -43.3407 C.3       1 UNK         0.0853 
      6 C6         15.6040  -25.9302  -42.7228 C.3       10 UNK        -0.0849 
      7 S7         14.4263  -26.5076  -43.9880 S.3       10 UNK        -0.2776 
      8 C8         14.6221  -28.3255  -43.9039 C.3       10 UNK         0.0316 
      9 C9         15.9410  -28.8622  -44.4658 C.ar      10 UNK        -0.0863 
     10 C10        16.4874  -30.0357  -43.9336 C.ar      10 UNK        -0.1009 
     11 C11        17.6582  -30.5883  -44.4653 C.ar      10 UNK        -0.0712 
     12 C12        18.3011  -29.9437  -45.5272 C.ar      10 UNK        -0.0894 
     13 C13        17.7841  -28.7551  -46.0512 C.ar      10 UNK        -0.0745 
     14 C14        16.5917  -28.2397  -45.5375 C.ar      10 UNK        -0.0972 
     15 C15        18.4928  -28.0244  -47.1824 C.3       10 UNK         0.0209 
     16 S16        19.7057  -26.8171  -46.5488 S.3       10 UNK        -0.2568 
     17 C17        21.1787  -27.8679  -46.2978 C.3       10 UNK        -0.0983 
     18 CA         21.6735  -27.9459  -44.8281 C.3       3 UNK         0.0876 
     19 N          20.5875  -28.2409  -43.8962 N.am      3 UNK        -0.4424 
     20 C          20.6308  -28.0370  -42.5756 C.2       2 UNK         0.4918 
     21 O          21.6413  -27.6829  -41.9667 O.2       2 UNK        -0.4875 
     22 CA         19.2796  -28.1915  -41.8503 C.3       2 UNK         0.0481 
     23 CB         19.3392  -27.9068  -40.3368 C.3       2 UNK        -0.1831 
     24 N          18.2351  -27.3919  -42.4990 N.am      2 UNK        -0.4498 
     25 C          18.1684  -26.0538  -42.5714 C.2       1 UNK         0.5027 
     26 O          18.9872  -25.2864  -42.0563 O.2       1 UNK        -0.4969 
     27 C          22.8353  -28.9548  -44.7452 C.2       3 UNK         0.5005 
     28 O          23.9970  -28.5441  -44.7544 O.2       3 UNK        -0.5279 
     29 N          22.4969  -30.2534  -44.7525 N.am      4 UNK        -0.4463 
     30 CA         23.3762  -31.3456  -45.1900 C.3       4 UNK         0.0283 
     31 CB         22.5750  -32.6537  -45.2810 C.3       4 UNK        -0.1875 
     32 C          24.6621  -31.5463  -44.3731 C.2       4 UNK         0.4949 
     33 O          25.6671  -31.9695  -44.9455 O.2       4 UNK        -0.5039 
     34 N          24.6213  -31.2330  -43.0749 N.am      5 UNK        -0.4663 
     35 CA         25.7684  -31.2833  -42.1682 C.3       5 UNK         0.0242 
     36 CB         25.5757  -32.4386  -41.1672 C.3       5 UNK        -0.1982 
     37 C          26.0110  -29.9244  -41.4856 C.2       5 UNK         0.5017 
     38 O          26.6675  -29.8971  -40.4447 O.2       5 UNK        -0.5012 
     39 N          25.5173  -28.8337  -42.1000 N.am      6 UNK        -0.4439 
     40 CA         25.6636  -27.4241  -41.7100 C.3       6 UNK         0.0297 
     41 CB         27.1332  -26.9719  -41.8383 C.3       6 UNK        -0.2006 
     42 C          25.0836  -27.1254  -40.3145 C.2       6 UNK         0.4892 
     43 O          25.8036  -27.2001  -39.3173 O.2       6 UNK        -0.5089 
     44 N          23.7842  -26.7976  -40.2857 N.am      7 UNK        -0.4243 
     45 CA         22.9265  -26.6378  -39.1021 C.3       7 UNK         0.0196 
     46 CB         23.4681  -25.5864  -38.1088 C.3       7 UNK        -0.2007 
     47 C          22.5937  -27.9931  -38.4484 C.2       7 UNK         0.5020 
     48 O          22.3583  -28.0617  -37.2414 O.2       7 UNK        -0.5147 
     49 N          22.5542  -29.0413  -39.2764 N.am      8 UNK        -0.4734 
     50 CA         22.2176  -30.4240  -38.9626 C.3       8 UNK         0.0238 
     51 CB         23.3361  -31.0679  -38.1193 C.3       8 UNK        -0.1912 
     52 C          22.0365  -31.1645  -40.2944 C.2       8 UNK         0.5038 
     53 O          22.5000  -30.6723  -41.3270 O.2       8 UNK        -0.5046 
     54 N          21.4086  -32.3420  -40.2438 N.am      9 UNK        -0.4200 
     55 CA         21.3094  -33.3016  -41.3524 C.3       9 UNK         0.0839 
     56 C          21.5285  -34.7380  -40.8148 C.2       9 UNK         0.5513 
     57 N          21.9769  -35.6543  -41.6614 N.am      9 UNK        -0.7519 
     58 O          21.2731  -35.0365  -39.6491 O.2       9 UNK        -0.4960 
     59 C59        19.9668  -33.1989  -42.1305 C.3       10 UNK        -0.0876 
     60 S60        19.7912  -31.6368  -43.0493 S.3       10 UNK        -0.2414 
     61 C61        18.2119  -31.8945  -43.9088 C.3       10 UNK         0.0169 
     62 H62        17.5143  -21.5164  -43.3708 H         1 UNK         0.0903 
     63 H63        17.5548  -21.4293  -45.1330 H         1 UNK         0.0903 
     64 H64        16.0334  -21.1846  -44.2708 H         1 UNK         0.0903 
     65 H65        17.6870  -23.6500  -42.6660 H         1 UNK         0.3096 
     66 H66        17.0687  -25.8651  -44.3570 H         1 UNK         0.1121 
     67 H67        15.7104  -26.7180  -41.9745 H         1 UNK         0.0849 
     68 H68        15.1387  -25.1034  -42.1832 H         1 UNK         0.0849 
     69 H69        14.4889  -28.6456  -42.8692 H         1 UNK         0.0865 
     70 H70        13.8075  -28.7813  -44.4681 H         1 UNK         0.0865 
     71 H71        15.9845  -30.5377  -43.1176 H         1 UNK         0.1346 
     72 H72        19.2033  -30.3706  -45.9431 H         1 UNK         0.1412 
     73 H73        16.1743  -27.3445  -45.9780 H         1 UNK         0.1426 
     74 H74        17.7605  -27.4892  -47.7889 H         1 UNK         0.0716 
     75 H75        18.9744  -28.7327  -47.8583 H         1 UNK         0.0716 
     76 H76        21.9724  -27.4679  -46.9320 H         1 UNK         0.0695 
     77 H77        20.9701  -28.8651  -46.6887 H         1 UNK         0.0695 
     78 H78        22.0747  -26.9661  -44.5586 H         1 UNK         0.0983 
     79 H79        19.7043  -28.4970  -44.3136 H         1 UNK         0.3095 
     80 H80        18.9672  -29.2272  -41.9616 H         1 UNK         0.0454 
     81 H81        19.9496  -28.6518  -39.8315 H         1 UNK         0.0851 
     82 H82        18.3481  -27.9510  -39.8858 H         1 UNK         0.0851 
     83 H83        19.7617  -26.9265  -40.1182 H         1 UNK         0.0851 
     84 H84        17.5211  -27.9274  -42.9766 H         1 UNK         0.2976 
     85 H85        21.5241  -30.4901  -44.6172 H         1 UNK         0.3116 
     86 H86        23.6953  -31.0923  -46.2033 H         1 UNK         0.0646 
     87 H87        21.7236  -32.5552  -45.9545 H         1 UNK         0.0847 
     88 H88        22.1987  -32.9659  -44.3092 H         1 UNK         0.0847 
     89 H89        23.1956  -33.4652  -45.6635 H         1 UNK         0.0847 
     90 H90        23.7440  -30.9165  -42.6610 H         1 UNK         0.3040 
     91 H91        26.6836  -31.4857  -42.7287 H         1 UNK         0.1015 
     92 H92        25.4694  -33.3922  -41.6843 H         1 UNK         0.0786 
     93 H93        24.6908  -32.2970  -40.5502 H         1 UNK         0.0786 
     94 H94        26.4316  -32.5303  -40.4974 H         1 UNK         0.0786 
     95 H95        24.9964  -28.9841  -42.9590 H         1 UNK         0.3172 
     96 H96        25.0862  -26.8484  -42.4356 H         1 UNK         0.0595 
     97 H97        27.2345  -25.9119  -41.6023 H         1 UNK         0.0839 
     98 H98        27.5047  -27.1157  -42.8528 H         1 UNK         0.0839 
     99 H99        27.7907  -27.5174  -41.1605 H         1 UNK         0.0839 
    100 H100       23.2666  -26.8302  -41.1596 H         1 UNK         0.2998 
    101 H101       21.9796  -26.2538  -39.4827 H         1 UNK         0.0822 
    102 H102       23.7275  -24.6567  -38.6151 H         1 UNK         0.0787 
    103 H103       22.7184  -25.3462  -37.3541 H         1 UNK         0.0787 
    104 H104       24.3520  -25.9411  -37.5786 H         1 UNK         0.0787 
    105 H105       22.7061  -28.8848  -40.2687 H         1 UNK         0.3055 
    106 H106       21.2732  -30.4463  -38.4151 H         1 UNK         0.1106 
    107 H107       23.4046  -30.6090  -37.1332 H         1 UNK         0.0828 
    108 H108       23.1574  -32.1325  -37.9636 H         1 UNK         0.0828 
    109 H109       24.3101  -30.9635  -38.5989 H         1 UNK         0.0828 
    110 H110       21.0987  -32.7071  -39.3533 H         1 UNK         0.2931 
    111 H111       22.1328  -33.1093  -42.0421 H         1 UNK         0.0412 
    112 H112       22.1854  -35.4256  -42.6207 H         1 UNK         0.3472 
    113 H113       22.1160  -36.5971  -41.3316 H         1 UNK         0.3472 
    114 H114       19.8788  -34.0130  -42.8526 H         1 UNK         0.0970 
    115 H115       19.1224  -33.3030  -41.4468 H         1 UNK         0.0970 
    116 H116       17.4984  -32.3479  -43.2189 H         1 UNK         0.0612 
    117 H117       18.3563  -32.6079  -44.7213 H         1 UNK         0.0612 
@<TRIPOS>BOND
     1    1    2 1    
     2    1   62 1    
     3    1   63 1    
     4    1   64 1    
     5    2    3 2    
     6    2    4 am   BACKBONE|DICT|INTERRES
     7    4    5 1    
     8    4   65 1    
     9    5    6 1    
    10    5   25 1    
    11    5   66 1    
    12    6    7 1    
    13    6   67 1    
    14    6   68 1    
    15    7    8 1    
    16    8    9 1    
    17    8   69 1    
    18    8   70 1    
    19    9   10 ar   
    20    9   14 ar   
    21   10   11 ar   
    22   10   71 1    
    23   11   12 ar   
    24   11   61 1    
    25   12   13 ar   
    26   12   72 1    
    27   13   14 ar   
    28   13   15 1    
    29   14   73 1    
    30   15   16 1    
    31   15   74 1    
    32   15   75 1    
    33   16   17 1    
    34   17   18 1    
    35   17   76 1    
    36   17   77 1    
    37   18   19 1    
    38   18   27 1    
    39   18   78 1    
    40   19   20 am   BACKBONE|DICT|INTERRES
    41   19   79 1    
    42   20   21 2    
    43   20   22 1    
    44   22   23 1    
    45   22   24 1    
    46   22   80 1    
    47   23   81 1    
    48   23   82 1    
    49   23   83 1    
    50   24   25 am   BACKBONE|DICT|INTERRES
    51   24   84 1    
    52   25   26 2    
    53   27   28 2    
    54   27   29 am   BACKBONE|DICT|INTERRES
    55   29   30 1    
    56   29   85 1    
    57   30   31 1    
    58   30   32 1    
    59   30   86 1    
    60   31   87 1    
    61   31   88 1    
    62   31   89 1    
    63   32   33 2    
    64   32   34 am   BACKBONE|DICT|INTERRES
    65   34   35 1    
    66   34   90 1    
    67   35   36 1    
    68   35   37 1    
    69   35   91 1    
    70   36   92 1    
    71   36   93 1    
    72   36   94 1    
    73   37   38 2    
    74   37   39 am   BACKBONE|DICT|INTERRES
    75   39   40 1    
    76   39   95 1    
    77   40   41 1    
    78   40   42 1    
    79   40   96 1    
    80   41   97 1    
    81   41   98 1    
    82   41   99 1    
    83   42   43 2    
    84   42   44 am   BACKBONE|DICT|INTERRES
    85   44   45 1    
    86   44  100 1    
    87   45   46 1    
    88   45   47 1    
    89   45  101 1    
    90   46  102 1    
    91   46  103 1    
    92   46  104 1    
    93   47   48 2    
    94   47   49 am   BACKBONE|DICT|INTERRES
    95   49   50 1    
    96   49  105 1    
    97   50   51 1    
    98   50   52 1    
    99   50  106 1    
   100   51  107 1    
   101   51  108 1    
   102   51  109 1    
   103   52   53 2    
   104   52   54 am   BACKBONE|DICT|INTERRES
   105   54   55 1    
   106   54  110 1    
   107   55   56 1    
   108   55   59 1    
   109   55  111 1    
   110   56   57 am   BACKBONE|DICT|INTERRES
   111   56   58 2    
   112   57  112 1    
   113   57  113 1    
   114   59   60 1    
   115   59  114 1    
   116   59  115 1    
   117   60   61 1    
   118   61  116 1    
   119   61  117 1    
@<TRIPOS>SUBSTRUCTURE
     1 UNK         1 GROUP             0       ****    0 ROOT    
