@<TRIPOS>MOLECULE
3R8
117   119    1
SMALL
USER_CHARGES


@<TRIPOS>ATOM
      1 CA         21.7572  -22.9749  -42.5906 C.3       0 UNK        -0.2013 
      2 C          20.8094  -23.2927  -43.7374 C.2       0 UNK         0.4866 
      3 O          20.9682  -22.7579  -44.8346 O.2       0 UNK        -0.5176 
      4 N          19.8339  -24.1780  -43.5008 N.am      1 UNK        -0.4884 
      5 CA         18.7968  -24.6367  -44.4373 C.3       1 UNK         0.0853 
      6 C6         17.5755  -25.2075  -43.6672 C.3       10 UNK        -0.0849 
      7 S7         18.0093  -26.5224  -42.4701 S.3       10 UNK        -0.2776 
      8 C8         16.4723  -27.4988  -42.4189 C.3       10 UNK         0.0316 
      9 C9         16.7334  -28.9500  -42.7876 C.ar      10 UNK        -0.0863 
     10 C10        16.8509  -29.9211  -41.7893 C.ar      10 UNK        -0.1009 
     11 C11        17.0995  -31.2553  -42.1190 C.ar      10 UNK        -0.0712 
     12 C12        17.2135  -31.6198  -43.4635 C.ar      10 UNK        -0.0894 
     13 C13        17.0960  -30.6593  -44.4732 C.ar      10 UNK        -0.0745 
     14 C14        16.8513  -29.3254  -44.1287 C.ar      10 UNK        -0.0972 
     15 C15        17.2449  -31.0697  -45.9334 C.3       10 UNK         0.0209 
     16 S16        18.5535  -30.1472  -46.8048 S.3       10 UNK        -0.2568 
     17 C17        19.9877  -30.3975  -45.7044 C.3       10 UNK        -0.0983 
     18 CA         21.2227  -29.5736  -46.1426 C.3       3 UNK         0.0876 
     19 N          20.9315  -28.1557  -46.3701 N.am      3 UNK        -0.4424 
     20 C          21.7175  -27.2971  -47.0267 C.2       2 UNK         0.4918 
     21 O          22.8313  -27.5886  -47.4629 O.2       2 UNK        -0.4875 
     22 CA         21.1779  -25.8736  -47.2693 C.3       2 UNK         0.0481 
     23 CB         20.3223  -25.8334  -48.5499 C.3       2 UNK        -0.1831 
     24 N          20.4718  -25.2435  -46.1430 N.am      2 UNK        -0.4498 
     25 C          19.3183  -25.5832  -45.5505 C.2       1 UNK         0.5027 
     26 O          18.6764  -26.5893  -45.8554 O.2       1 UNK        -0.4969 
     27 C          22.4284  -29.8249  -45.2079 C.2       3 UNK         0.5005 
     28 O          23.3029  -30.5992  -45.5929 O.2       3 UNK        -0.5279 
     29 N          22.5366  -29.2171  -44.0161 N.am      4 UNK        -0.4463 
     30 CA         21.6118  -28.3345  -43.3042 C.3       4 UNK         0.0283 
     31 CB         22.1883  -26.9075  -43.3190 C.3       4 UNK        -0.1875 
     32 C          21.5136  -28.8092  -41.8497 C.2       4 UNK         0.4949 
     33 O          22.3986  -29.5333  -41.3853 O.2       4 UNK        -0.5039 
     34 N          20.4986  -28.3234  -41.1226 N.am      5 UNK        -0.4663 
     35 CA         20.3281  -28.5325  -39.6757 C.3       5 UNK         0.0242 
     36 CB         19.0138  -27.8820  -39.2166 C.3       5 UNK        -0.1982 
     37 C          21.4915  -27.9855  -38.8264 C.2       5 UNK         0.5017 
     38 O          21.7525  -28.5107  -37.7447 O.2       5 UNK        -0.5012 
     39 N          22.1753  -26.9554  -39.3463 N.am      6 UNK        -0.4439 
     40 CA         23.3946  -26.3678  -38.7862 C.3       6 UNK         0.0297 
     41 CB         23.6905  -25.0466  -39.5162 C.3       6 UNK        -0.2006 
     42 C          24.6189  -27.3035  -38.8498 C.2       6 UNK         0.4892 
     43 O          25.5684  -27.0900  -38.0948 O.2       6 UNK        -0.5089 
     44 N          24.5795  -28.3069  -39.7376 N.am      7 UNK        -0.4243 
     45 CA         25.5571  -29.3845  -39.8370 C.3       7 UNK         0.0196 
     46 CB         25.9032  -29.6238  -41.3217 C.3       7 UNK        -0.2007 
     47 C          24.9645  -30.6097  -39.1244 C.2       7 UNK         0.5020 
     48 O          25.0000  -30.6622  -37.8945 O.2       7 UNK        -0.5147 
     49 N          24.4197  -31.5616  -39.8901 N.am      8 UNK        -0.4734 
     50 CA         23.7689  -32.7714  -39.3833 C.3       8 UNK         0.0238 
     51 CB         24.8316  -33.8359  -39.0357 C.3       8 UNK        -0.1912 
     52 C          22.7046  -33.2897  -40.3665 C.2       8 UNK         0.5038 
     53 O          22.5112  -34.5038  -40.4558 O.2       8 UNK        -0.5046 
     54 N          22.0429  -32.3746  -41.0924 N.am      9 UNK        -0.4200 
     55 CA         21.0567  -32.6579  -42.1523 C.3       9 UNK         0.0839 
     56 C          21.6874  -33.3637  -43.3938 C.2       9 UNK         0.5513 
     57 N          20.8825  -33.8654  -44.3220 N.am      9 UNK        -0.7519 
     58 O          22.9045  -33.4264  -43.5549 O.2       9 UNK        -0.4960 
     59 C59        19.7787  -33.3681  -41.6111 C.3       10 UNK        -0.0876 
     60 S60        18.9099  -32.3852  -40.3398 S.3       10 UNK        -0.2414 
     61 C61        17.2207  -32.2976  -41.0168 C.3       10 UNK         0.0169 
     62 H62        22.7690  -23.2924  -42.8414 H         1 UNK         0.0903 
     63 H63        21.7732  -21.9015  -42.4043 H         1 UNK         0.0903 
     64 H64        21.4633  -23.4735  -41.6672 H         1 UNK         0.0903 
     65 H65        19.7552  -24.5855  -42.5797 H         1 UNK         0.3096 
     66 H66        18.4398  -23.7540  -44.9729 H         1 UNK         0.1121 
     67 H67        17.0935  -24.4034  -43.1090 H         1 UNK         0.0849 
     68 H68        16.8181  -25.5657  -44.3669 H         1 UNK         0.0849 
     69 H69        16.0492  -27.4308  -41.4155 H         1 UNK         0.0865 
     70 H70        15.7172  -27.0838  -43.0873 H         1 UNK         0.0865 
     71 H71        16.7436  -29.6456  -40.7505 H         1 UNK         0.1346 
     72 H72        17.3900  -32.6531  -43.7257 H         1 UNK         0.1412 
     73 H73        16.7725  -28.5756  -44.9050 H         1 UNK         0.1426 
     74 H74        16.2965  -30.9058  -46.4464 H         1 UNK         0.0716 
     75 H75        17.4604  -32.1360  -46.0175 H         1 UNK         0.0716 
     76 H76        20.2260  -31.4621  -45.7020 H         1 UNK         0.0695 
     77 H77        19.7009  -30.1477  -44.6836 H         1 UNK         0.0695 
     78 H78        21.5175  -29.9681  -47.1179 H         1 UNK         0.0983 
     79 H79        20.0104  -27.8271  -46.0892 H         1 UNK         0.3095 
     80 H80        22.0498  -25.2413  -47.4443 H         1 UNK         0.0454 
     81 H81        20.8841  -26.2102  -49.4056 H         1 UNK         0.0851 
     82 H82        19.4238  -26.4450  -48.4598 H         1 UNK         0.0851 
     83 H83        20.0132  -24.8160  -48.7892 H         1 UNK         0.0851 
     84 H84        20.8957  -24.3852  -45.7980 H         1 UNK         0.2976 
     85 H85        23.3194  -29.4923  -43.4399 H         1 UNK         0.3116 
     86 H86        20.6136  -28.3408  -43.7404 H         1 UNK         0.0646 
     87 H87        21.5361  -26.2156  -42.7889 H         1 UNK         0.0847 
     88 H88        22.3071  -26.5271  -44.3311 H         1 UNK         0.0847 
     89 H89        23.1673  -26.8621  -42.8393 H         1 UNK         0.0847 
     90 H90        19.7915  -27.7593  -41.5793 H         1 UNK         0.3040 
     91 H91        20.2678  -29.6089  -39.4994 H         1 UNK         0.1015 
     92 H92        18.1599  -28.2819  -39.7568 H         1 UNK         0.0786 
     93 H93        19.0236  -26.8015  -39.3653 H         1 UNK         0.0786 
     94 H94        18.8369  -28.0643  -38.1557 H         1 UNK         0.0786 
     95 H95        21.8559  -26.5842  -40.2276 H         1 UNK         0.3172 
     96 H96        23.2075  -26.1448  -37.7336 H         1 UNK         0.0595 
     97 H97        24.5777  -24.5641  -39.1035 H         1 UNK         0.0839 
     98 H98        22.8657  -24.3411  -39.4137 H         1 UNK         0.0839 
     99 H99        23.8719  -25.2027  -40.5804 H         1 UNK         0.0839 
    100 H100       23.7275  -28.4483  -40.2679 H         1 UNK         0.2998 
    101 H101       26.4795  -29.1191  -39.3158 H         1 UNK         0.0822 
    102 H102       25.0233  -29.8298  -41.9306 H         1 UNK         0.0787 
    103 H103       26.3950  -28.7495  -41.7487 H         1 UNK         0.0787 
    104 H104       26.5915  -30.4628  -41.4337 H         1 UNK         0.0787 
    105 H105       24.4209  -31.4399  -40.8939 H         1 UNK         0.3055 
    106 H106       23.2260  -32.5198  -38.4692 H         1 UNK         0.1106 
    107 H107       25.3896  -34.1463  -39.9196 H         1 UNK         0.0828 
    108 H108       25.5462  -33.4639  -38.3015 H         1 UNK         0.0828 
    109 H109       24.3722  -34.7277  -38.6074 H         1 UNK         0.0828 
    110 H110       22.2648  -31.3912  -40.9705 H         1 UNK         0.2931 
    111 H111       20.7508  -31.6794  -42.5237 H         1 UNK         0.0412 
    112 H112       21.2951  -34.3091  -45.1279 H         1 UNK         0.3472 
    113 H113       19.8808  -33.8240  -44.2360 H         1 UNK         0.3472 
    114 H114       19.0805  -33.5783  -42.4189 H         1 UNK         0.0970 
    115 H115       20.0249  -34.3417  -41.1861 H         1 UNK         0.0970 
    116 H116       16.9129  -33.2806  -41.3766 H         1 UNK         0.0612 
    117 H117       16.5361  -32.0480  -40.2048 H         1 UNK         0.0612 
@<TRIPOS>BOND
     1    1    2 1    
     2    1   62 1    
     3    1   63 1    
     4    1   64 1    
     5    2    3 2    
     6    2    4 am   BACKBONE|DICT|INTERRES
     7    4    5 1    
     8    4   65 1    
     9    5    6 1    
    10    5   25 1    
    11    5   66 1    
    12    6    7 1    
    13    6   67 1    
    14    6   68 1    
    15    7    8 1    
    16    8    9 1    
    17    8   69 1    
    18    8   70 1    
    19    9   10 ar   
    20    9   14 ar   
    21   10   11 ar   
    22   10   71 1    
    23   11   12 ar   
    24   11   61 1    
    25   12   13 ar   
    26   12   72 1    
    27   13   14 ar   
    28   13   15 1    
    29   14   73 1    
    30   15   16 1    
    31   15   74 1    
    32   15   75 1    
    33   16   17 1    
    34   17   18 1    
    35   17   76 1    
    36   17   77 1    
    37   18   19 1    
    38   18   27 1    
    39   18   78 1    
    40   19   20 am   BACKBONE|DICT|INTERRES
    41   19   79 1    
    42   20   21 2    
    43   20   22 1    
    44   22   23 1    
    45   22   24 1    
    46   22   80 1    
    47   23   81 1    
    48   23   82 1    
    49   23   83 1    
    50   24   25 am   BACKBONE|DICT|INTERRES
    51   24   84 1    
    52   25   26 2    
    53   27   28 2    
    54   27   29 am   BACKBONE|DICT|INTERRES
    55   29   30 1    
    56   29   85 1    
    57   30   31 1    
    58   30   32 1    
    59   30   86 1    
    60   31   87 1    
    61   31   88 1    
    62   31   89 1    
    63   32   33 2    
    64   32   34 am   BACKBONE|DICT|INTERRES
    65   34   35 1    
    66   34   90 1    
    67   35   36 1    
    68   35   37 1    
    69   35   91 1    
    70   36   92 1    
    71   36   93 1    
    72   36   94 1    
    73   37   38 2    
    74   37   39 am   BACKBONE|DICT|INTERRES
    75   39   40 1    
    76   39   95 1    
    77   40   41 1    
    78   40   42 1    
    79   40   96 1    
    80   41   97 1    
    81   41   98 1    
    82   41   99 1    
    83   42   43 2    
    84   42   44 am   BACKBONE|DICT|INTERRES
    85   44   45 1    
    86   44  100 1    
    87   45   46 1    
    88   45   47 1    
    89   45  101 1    
    90   46  102 1    
    91   46  103 1    
    92   46  104 1    
    93   47   48 2    
    94   47   49 am   BACKBONE|DICT|INTERRES
    95   49   50 1    
    96   49  105 1    
    97   50   51 1    
    98   50   52 1    
    99   50  106 1    
   100   51  107 1    
   101   51  108 1    
   102   51  109 1    
   103   52   53 2    
   104   52   54 am   BACKBONE|DICT|INTERRES
   105   54   55 1    
   106   54  110 1    
   107   55   56 1    
   108   55   59 1    
   109   55  111 1    
   110   56   57 am   BACKBONE|DICT|INTERRES
   111   56   58 2    
   112   57  112 1    
   113   57  113 1    
   114   59   60 1    
   115   59  114 1    
   116   59  115 1    
   117   60   61 1    
   118   61  116 1    
   119   61  117 1    
@<TRIPOS>SUBSTRUCTURE
     1 UNK         1 GROUP             0       ****    0 ROOT    
