@<TRIPOS>MOLECULE
3R8
117   119    1
SMALL
USER_CHARGES


@<TRIPOS>ATOM
      1 CA         13.4800  -25.0448  -41.8788 C.3       0 UNK        -0.2013 
      2 C          14.8671  -25.6597  -41.7654 C.2       0 UNK         0.4866 
      3 O          15.4052  -25.7456  -40.6612 O.2       0 UNK        -0.5176 
      4 N          15.4409  -26.0861  -42.8993 N.am      1 UNK        -0.4884 
      5 CA         16.7757  -26.6877  -43.0333 C.3       1 UNK         0.0853 
      6 C6         16.9029  -28.0787  -42.3456 C.3       10 UNK        -0.0849 
      7 S7         15.7229  -29.2784  -43.0615 S.3       10 UNK        -0.2776 
      8 C8         16.7227  -30.8022  -43.2245 C.3       10 UNK         0.0316 
      9 C9         17.9586  -30.7145  -44.1242 C.ar      10 UNK        -0.0863 
     10 C10        18.9386  -31.7054  -44.0051 C.ar      10 UNK        -0.1009 
     11 C11        20.1033  -31.6642  -44.7772 C.ar      10 UNK        -0.0712 
     12 C12        20.2874  -30.6160  -45.6825 C.ar      10 UNK        -0.0894 
     13 C13        19.3104  -29.6280  -45.8297 C.ar      10 UNK        -0.0745 
     14 C14        18.1434  -29.6927  -45.0643 C.ar      10 UNK        -0.0972 
     15 C15        19.5117  -28.4850  -46.8125 C.3       10 UNK         0.0209 
     16 S16        19.8838  -26.9223  -45.9574 S.3       10 UNK        -0.2568 
     17 C17        21.5548  -27.2589  -45.3086 C.3       10 UNK        -0.0983 
     18 CA         22.0238  -26.1532  -44.3326 C.3       3 UNK         0.0876 
     19 N          21.1753  -26.1114  -43.1432 N.am      3 UNK        -0.4424 
     20 C          20.9331  -25.0246  -42.4028 C.2       2 UNK         0.4918 
     21 O          21.4449  -23.9229  -42.6104 O.2       2 UNK        -0.4875 
     22 CA         19.9125  -25.2116  -41.2599 C.3       2 UNK         0.0481 
     23 CB         19.4865  -23.8830  -40.5999 C.3       2 UNK        -0.1831 
     24 N          18.7439  -25.9938  -41.6913 N.am      2 UNK        -0.4498 
     25 C          17.8665  -25.6611  -42.6530 C.2       1 UNK         0.5027 
     26 O          17.8900  -24.5871  -43.2587 O.2       1 UNK        -0.4969 
     27 C          23.4991  -26.3624  -43.9448 C.2       3 UNK         0.5005 
     28 O          23.7994  -26.8696  -42.8609 O.2       3 UNK        -0.5279 
     29 N          24.4024  -26.0198  -44.8734 N.am      4 UNK        -0.4463 
     30 CA         25.8573  -26.1583  -44.7306 C.3       4 UNK         0.0283 
     31 CB         26.5444  -25.4302  -45.8982 C.3       4 UNK        -0.1875 
     32 C          26.3627  -27.6126  -44.6317 C.2       4 UNK         0.4949 
     33 O          27.5187  -27.8124  -44.2587 O.2       4 UNK        -0.5039 
     34 N          25.5085  -28.5902  -44.9718 N.am      5 UNK        -0.4663 
     35 CA         25.7698  -30.0274  -44.8715 C.3       5 UNK         0.0242 
     36 CB         24.5934  -30.8074  -45.4870 C.3       5 UNK        -0.1982 
     37 C          26.0515  -30.4743  -43.4262 C.2       5 UNK         0.5017 
     38 O          27.1552  -30.9441  -43.1470 O.2       5 UNK        -0.5012 
     39 N          25.0614  -30.2944  -42.5417 N.am      6 UNK        -0.4439 
     40 CA         25.1254  -30.6072  -41.1111 C.3       6 UNK         0.0297 
     41 CB         25.3075  -32.1252  -40.8709 C.3       6 UNK        -0.2006 
     42 C          23.8931  -30.0426  -40.3830 C.2       6 UNK         0.4892 
     43 O          23.2928  -30.7438  -39.5665 O.2       6 UNK        -0.5089 
     44 N          23.5189  -28.7918  -40.6938 N.am      7 UNK        -0.4243 
     45 CA         22.3497  -28.0736  -40.1768 C.3       7 UNK         0.0196 
     46 CB         22.4701  -27.8001  -38.6597 C.3       7 UNK        -0.2007 
     47 C          21.0392  -28.7650  -40.5923 C.2       7 UNK         0.5020 
     48 O          20.6118  -28.5982  -41.7348 O.2       7 UNK        -0.5147 
     49 N          20.4239  -29.5080  -39.6659 N.am      8 UNK        -0.4734 
     50 CA         19.2388  -30.3339  -39.9108 C.3       8 UNK         0.0238 
     51 CB         18.3478  -30.3081  -38.6579 C.3       8 UNK        -0.1912 
     52 C          19.5893  -31.7818  -40.3035 C.2       8 UNK         0.5038 
     53 O          18.6791  -32.5325  -40.6574 O.2       8 UNK        -0.5046 
     54 N          20.8760  -32.1518  -40.2324 N.am      9 UNK        -0.4200 
     55 CA         21.4240  -33.4823  -40.5364 C.3       9 UNK         0.0839 
     56 C          20.8975  -34.5990  -39.5817 C.2       9 UNK         0.5513 
     57 N          21.0323  -35.8694  -39.9415 N.am      9 UNK        -0.7519 
     58 O          20.4162  -34.3331  -38.4815 O.2       9 UNK        -0.4960 
     59 C59        21.3295  -33.8383  -42.0498 C.3       10 UNK        -0.0876 
     60 S60        22.1320  -32.5986  -43.1272 S.3       10 UNK        -0.2414 
     61 C61        21.1550  -32.7577  -44.6537 C.3       10 UNK         0.0169 
     62 H62        13.4996  -24.0101  -41.5375 H         1 UNK         0.0903 
     63 H63        13.1093  -25.0572  -42.9036 H         1 UNK         0.0903 
     64 H64        12.7742  -25.5953  -41.2573 H         1 UNK         0.0903 
     65 H65        14.9451  -25.9613  -43.7710 H         1 UNK         0.3096 
     66 H66        16.9216  -26.8465  -44.1030 H         1 UNK         0.1121 
     67 H67        17.9140  -28.4686  -42.4710 H         1 UNK         0.0849 
     68 H68        16.7242  -28.0120  -41.2712 H         1 UNK         0.0849 
     69 H69        17.0209  -31.1155  -42.2238 H         1 UNK         0.0865 
     70 H70        16.0771  -31.5926  -43.6093 H         1 UNK         0.0865 
     71 H71        18.7956  -32.5125  -43.3014 H         1 UNK         0.1346 
     72 H72        21.1895  -30.5713  -46.2770 H         1 UNK         0.1412 
     73 H73        17.3924  -28.9286  -45.1987 H         1 UNK         0.1426 
     74 H74        18.6054  -28.3558  -47.4060 H         1 UNK         0.0716 
     75 H75        20.3112  -28.7114  -47.5197 H         1 UNK         0.0716 
     76 H76        21.5598  -28.2288  -44.8076 H         1 UNK         0.0695 
     77 H77        22.2273  -27.3451  -46.1641 H         1 UNK         0.0695 
     78 H78        21.9516  -25.1895  -44.8426 H         1 UNK         0.0983 
     79 H79        20.7817  -27.0007  -42.8497 H         1 UNK         0.3095 
     80 H80        20.4079  -25.8021  -40.4903 H         1 UNK         0.0454 
     81 H81        20.3453  -23.3753  -40.1594 H         1 UNK         0.0851 
     82 H82        18.7644  -24.0505  -39.8009 H         1 UNK         0.0851 
     83 H83        19.0388  -23.1946  -41.3170 H         1 UNK         0.0851 
     84 H84        18.6501  -26.9025  -41.2607 H         1 UNK         0.2976 
     85 H85        24.0768  -25.6234  -45.7442 H         1 UNK         0.3116 
     86 H86        26.1454  -25.6594  -43.8028 H         1 UNK         0.0646 
     87 H87        26.2838  -25.8733  -46.8602 H         1 UNK         0.0847 
     88 H88        26.2711  -24.3753  -45.9269 H         1 UNK         0.0847 
     89 H89        27.6304  -25.4762  -45.8036 H         1 UNK         0.0847 
     90 H90        24.5887  -28.3164  -45.2806 H         1 UNK         0.3040 
     91 H91        26.6646  -30.2443  -45.4594 H         1 UNK         0.1015 
     92 H92        24.7390  -31.8835  -45.3803 H         1 UNK         0.0786 
     93 H93        24.4973  -30.6004  -46.5530 H         1 UNK         0.0786 
     94 H94        23.6426  -30.5601  -45.0135 H         1 UNK         0.0786 
     95 H95        24.1875  -29.9055  -42.8692 H         1 UNK         0.3172 
     96 H96        25.9909  -30.0902  -40.6927 H         1 UNK         0.0595 
     97 H97        24.5168  -32.7035  -41.3466 H         1 UNK         0.0839 
     98 H98        25.2941  -32.3636  -39.8066 H         1 UNK         0.0839 
     99 H99        26.2597  -32.4882  -41.2554 H         1 UNK         0.0839 
    100 H100       24.0307  -28.2808  -41.4073 H         1 UNK         0.2998 
    101 H101       22.3565  -27.1035  -40.6715 H         1 UNK         0.0822 
    102 H102       21.6064  -27.2435  -38.2933 H         1 UNK         0.0787 
    103 H103       23.3519  -27.1964  -38.4450 H         1 UNK         0.0787 
    104 H104       22.5493  -28.7121  -38.0680 H         1 UNK         0.0787 
    105 H105       20.8631  -29.5981  -38.7601 H         1 UNK         0.3055 
    106 H106       18.6678  -29.9163  -40.7412 H         1 UNK         0.1106 
    107 H107       18.0512  -29.2907  -38.4025 H         1 UNK         0.0828 
    108 H108       17.4322  -30.8794  -38.8176 H         1 UNK         0.0828 
    109 H109       18.8539  -30.7396  -37.7934 H         1 UNK         0.0828 
    110 H110       21.5665  -31.4747  -39.9229 H         1 UNK         0.2931 
    111 H111       22.4827  -33.4029  -40.2903 H         1 UNK         0.0412 
    112 H112       20.7109  -36.5892  -39.3126 H         1 UNK         0.3472 
    113 H113       21.4527  -36.1272  -40.8199 H         1 UNK         0.3472 
    114 H114       21.8211  -34.7895  -42.2559 H         1 UNK         0.0970 
    115 H115       20.2866  -33.9687  -42.3390 H         1 UNK         0.0970 
    116 H116       20.6800  -33.7385  -44.7023 H         1 UNK         0.0612 
    117 H117       21.8415  -32.7168  -45.5007 H         1 UNK         0.0612 
@<TRIPOS>BOND
     1    1    2 1    
     2    1   62 1    
     3    1   63 1    
     4    1   64 1    
     5    2    3 2    
     6    2    4 am   BACKBONE|DICT|INTERRES
     7    4    5 1    
     8    4   65 1    
     9    5    6 1    
    10    5   25 1    
    11    5   66 1    
    12    6    7 1    
    13    6   67 1    
    14    6   68 1    
    15    7    8 1    
    16    8    9 1    
    17    8   69 1    
    18    8   70 1    
    19    9   10 ar   
    20    9   14 ar   
    21   10   11 ar   
    22   10   71 1    
    23   11   12 ar   
    24   11   61 1    
    25   12   13 ar   
    26   12   72 1    
    27   13   14 ar   
    28   13   15 1    
    29   14   73 1    
    30   15   16 1    
    31   15   74 1    
    32   15   75 1    
    33   16   17 1    
    34   17   18 1    
    35   17   76 1    
    36   17   77 1    
    37   18   19 1    
    38   18   27 1    
    39   18   78 1    
    40   19   20 am   BACKBONE|DICT|INTERRES
    41   19   79 1    
    42   20   21 2    
    43   20   22 1    
    44   22   23 1    
    45   22   24 1    
    46   22   80 1    
    47   23   81 1    
    48   23   82 1    
    49   23   83 1    
    50   24   25 am   BACKBONE|DICT|INTERRES
    51   24   84 1    
    52   25   26 2    
    53   27   28 2    
    54   27   29 am   BACKBONE|DICT|INTERRES
    55   29   30 1    
    56   29   85 1    
    57   30   31 1    
    58   30   32 1    
    59   30   86 1    
    60   31   87 1    
    61   31   88 1    
    62   31   89 1    
    63   32   33 2    
    64   32   34 am   BACKBONE|DICT|INTERRES
    65   34   35 1    
    66   34   90 1    
    67   35   36 1    
    68   35   37 1    
    69   35   91 1    
    70   36   92 1    
    71   36   93 1    
    72   36   94 1    
    73   37   38 2    
    74   37   39 am   BACKBONE|DICT|INTERRES
    75   39   40 1    
    76   39   95 1    
    77   40   41 1    
    78   40   42 1    
    79   40   96 1    
    80   41   97 1    
    81   41   98 1    
    82   41   99 1    
    83   42   43 2    
    84   42   44 am   BACKBONE|DICT|INTERRES
    85   44   45 1    
    86   44  100 1    
    87   45   46 1    
    88   45   47 1    
    89   45  101 1    
    90   46  102 1    
    91   46  103 1    
    92   46  104 1    
    93   47   48 2    
    94   47   49 am   BACKBONE|DICT|INTERRES
    95   49   50 1    
    96   49  105 1    
    97   50   51 1    
    98   50   52 1    
    99   50  106 1    
   100   51  107 1    
   101   51  108 1    
   102   51  109 1    
   103   52   53 2    
   104   52   54 am   BACKBONE|DICT|INTERRES
   105   54   55 1    
   106   54  110 1    
   107   55   56 1    
   108   55   59 1    
   109   55  111 1    
   110   56   57 am   BACKBONE|DICT|INTERRES
   111   56   58 2    
   112   57  112 1    
   113   57  113 1    
   114   59   60 1    
   115   59  114 1    
   116   59  115 1    
   117   60   61 1    
   118   61  116 1    
   119   61  117 1    
@<TRIPOS>SUBSTRUCTURE
     1 UNK         1 GROUP             0       ****    0 ROOT    
