@<TRIPOS>MOLECULE
3R8
117   119    1
SMALL
USER_CHARGES


@<TRIPOS>ATOM
      1 CA         19.2802  -24.2069  -49.0412 C.3       0 UNK        -0.2013 
      2 C          19.7161  -25.5374  -48.4462 C.2       0 UNK         0.4866 
      3 O          20.7934  -26.0322  -48.7776 O.2       0 UNK        -0.5176 
      4 N          18.8891  -26.1193  -47.5663 N.am      1 UNK        -0.4884 
      5 CA         19.1492  -27.4032  -46.8966 C.3       1 UNK         0.0853 
      6 C6         17.8259  -28.0712  -46.4365 C.3       10 UNK        -0.0849 
      7 S7         17.8867  -29.8858  -46.5986 S.3       10 UNK        -0.2776 
      8 C8         16.6064  -30.3995  -45.4108 C.3       10 UNK         0.0316 
      9 C9         17.0424  -30.2208  -43.9622 C.ar      10 UNK        -0.0863 
     10 C10        18.1285  -30.9440  -43.4630 C.ar      10 UNK        -0.1009 
     11 C11        18.5008  -30.8371  -42.1204 C.ar      10 UNK        -0.0712 
     12 C12        17.7700  -30.0012  -41.2698 C.ar      10 UNK        -0.0894 
     13 C13        16.6881  -29.2589  -41.7585 C.ar      10 UNK        -0.0745 
     14 C14        16.3334  -29.3714  -43.1073 C.ar      10 UNK        -0.0972 
     15 C15        15.8598  -28.3745  -40.8307 C.3       10 UNK         0.0209 
     16 S16        16.8545  -27.2226  -39.8260 S.3       10 UNK        -0.2568 
     17 C17        17.6394  -26.1673  -41.0920 C.3       10 UNK        -0.0983 
     18 CA         19.1748  -26.3705  -41.1415 C.3       3 UNK         0.0876 
     19 N          19.7177  -26.0215  -42.4577 N.am      3 UNK        -0.4424 
     20 C          20.9663  -26.2913  -42.8621 C.2       2 UNK         0.4918 
     21 O          21.7650  -26.9707  -42.2139 O.2       2 UNK        -0.4875 
     22 CA         21.3765  -25.6861  -44.2163 C.3       2 UNK         0.0481 
     23 CB         22.8311  -26.0202  -44.6074 C.3       2 UNK        -0.1831 
     24 N          20.4470  -26.0493  -45.2917 N.am      2 UNK        -0.4498 
     25 C          20.1683  -27.2857  -45.7382 C.2       1 UNK         0.5027 
     26 O          20.6832  -28.3058  -45.2814 O.2       1 UNK        -0.4969 
     27 C          19.9060  -25.5978  -40.0161 C.2       3 UNK         0.5005 
     28 O          20.5440  -24.5746  -40.2810 O.2       3 UNK        -0.5279 
     29 N          19.8412  -26.1269  -38.7864 N.am      4 UNK        -0.4463 
     30 CA         20.5606  -25.7127  -37.5695 C.3       4 UNK         0.0283 
     31 CB         20.3020  -24.2390  -37.1985 C.3       4 UNK        -0.1875 
     32 C          22.0661  -26.0336  -37.6161 C.2       4 UNK         0.4949 
     33 O          22.5912  -26.5777  -36.6450 O.2       4 UNK        -0.5039 
     34 N          22.7210  -25.7529  -38.7515 N.am      5 UNK        -0.4663 
     35 CA         24.0552  -26.2600  -39.0906 C.3       5 UNK         0.0242 
     36 CB         24.5957  -25.5080  -40.3179 C.3       5 UNK        -0.1982 
     37 C          24.0329  -27.7785  -39.3465 C.2       5 UNK         0.5017 
     38 O          24.9666  -28.4760  -38.9507 O.2       5 UNK        -0.5012 
     39 N          22.9441  -28.2461  -39.9766 N.am      6 UNK        -0.4439 
     40 CA         22.5841  -29.6351  -40.2706 C.3       6 UNK         0.0297 
     41 CB         22.3996  -30.4423  -38.9681 C.3       6 UNK        -0.2006 
     42 C          23.5300  -30.3168  -41.2753 C.2       6 UNK         0.4892 
     43 O          23.7024  -31.5356  -41.2200 O.2       6 UNK        -0.5089 
     44 N          24.1080  -29.5302  -42.1950 N.am      7 UNK        -0.4243 
     45 CA         25.1184  -29.9769  -43.1613 C.3       7 UNK         0.0196 
     46 CB         25.6894  -28.7621  -43.9093 C.3       7 UNK        -0.2007 
     47 C          24.6200  -31.0434  -44.1532 C.2       7 UNK         0.5020 
     48 O          25.4116  -31.8867  -44.5743 O.2       7 UNK        -0.5147 
     49 N          23.3240  -31.0076  -44.4927 N.am      8 UNK        -0.4734 
     50 CA         22.6705  -32.0151  -45.3344 C.3       8 UNK         0.0238 
     51 CB         21.3957  -31.4129  -45.9452 C.3       8 UNK        -0.1912 
     52 C          22.3422  -33.3212  -44.5866 C.2       8 UNK         0.5038 
     53 O          22.1381  -34.3430  -45.2437 O.2       8 UNK        -0.5046 
     54 N          22.2816  -33.2694  -43.2500 N.am      9 UNK        -0.4200 
     55 CA         21.9936  -34.4163  -42.3767 C.3       9 UNK         0.0839 
     56 C          23.2935  -35.0982  -41.8774 C.2       9 UNK         0.5513 
     57 N          24.3331  -34.3447  -41.5405 N.am      9 UNK        -0.7519 
     58 O          23.3601  -36.3221  -41.8002 O.2       9 UNK        -0.4960 
     59 C59        21.0908  -34.0208  -41.1794 C.3       10 UNK        -0.0876 
     60 S60        19.4505  -33.4122  -41.7000 S.3       10 UNK        -0.2414 
     61 C61        19.7018  -31.6129  -41.6013 C.3       10 UNK         0.0169 
     62 H62        20.0094  -23.4327  -48.8041 H         1 UNK         0.0903 
     63 H63        19.2094  -24.2869  -50.1257 H         1 UNK         0.0903 
     64 H64        18.3101  -23.8869  -48.6615 H         1 UNK         0.0903 
     65 H65        18.0136  -25.6690  -47.3364 H         1 UNK         0.3096 
     66 H66        19.6188  -28.0527  -47.6396 H         1 UNK         0.1121 
     67 H67        16.9915  -27.7379  -47.0559 H         1 UNK         0.0849 
     68 H68        17.5667  -27.7880  -45.4142 H         1 UNK         0.0849 
     69 H69        15.6849  -29.8526  -45.6164 H         1 UNK         0.0865 
     70 H70        16.3775  -31.4529  -45.5785 H         1 UNK         0.0865 
     71 H71        18.6783  -31.6038  -44.1196 H         1 UNK         0.1346 
     72 H72        18.0417  -29.9252  -40.2260 H         1 UNK         0.1412 
     73 H73        15.4863  -28.8163  -43.4869 H         1 UNK         0.1426 
     74 H74        15.2893  -29.0171  -40.1589 H         1 UNK         0.0716 
     75 H75        15.1267  -27.7962  -41.3953 H         1 UNK         0.0716 
     76 H76        17.1960  -26.4105  -42.0591 H         1 UNK         0.0695 
     77 H77        17.3798  -25.1237  -40.9028 H         1 UNK         0.0695 
     78 H78        19.3883  -27.4333  -41.0038 H         1 UNK         0.0983 
     79 H79        19.1395  -25.4362  -43.0409 H         1 UNK         0.3095 
     80 H80        21.3107  -24.6032  -44.1013 H         1 UNK         0.0454 
     81 H81        23.5311  -25.6797  -43.8436 H         1 UNK         0.0851 
     82 H82        22.9767  -27.0929  -44.7274 H         1 UNK         0.0851 
     83 H83        23.1113  -25.5378  -45.5436 H         1 UNK         0.0851 
     84 H84        19.9705  -25.2812  -45.7426 H         1 UNK         0.2976 
     85 H85        19.2699  -26.9545  -38.6739 H         1 UNK         0.3116 
     86 H86        20.1387  -26.3216  -36.7680 H         1 UNK         0.0646 
     87 H87        20.7253  -24.0088  -36.2200 H         1 UNK         0.0847 
     88 H88        19.2348  -24.0235  -37.1486 H         1 UNK         0.0847 
     89 H89        20.7518  -23.5471  -37.9106 H         1 UNK         0.0847 
     90 H90        22.2009  -25.2701  -39.4791 H         1 UNK         0.3040 
     91 H91        24.7222  -26.0728  -38.2460 H         1 UNK         0.1015 
     92 H92        24.6832  -24.4397  -40.1193 H         1 UNK         0.0786 
     93 H93        23.9519  -25.6340  -41.1890 H         1 UNK         0.0786 
     94 H94        25.5885  -25.8690  -40.5904 H         1 UNK         0.0786 
     95 H95        22.3204  -27.5571  -40.3836 H         1 UNK         0.3172 
     96 H96        21.6145  -29.5800  -40.7654 H         1 UNK         0.0595 
     97 H97        21.7152  -29.9407  -38.2840 H         1 UNK         0.0839 
     98 H98        23.3461  -30.5897  -38.4473 H         1 UNK         0.0839 
     99 H99        21.9875  -31.4305  -39.1680 H         1 UNK         0.0839 
    100 H100       23.8716  -28.5474  -42.1934 H         1 UNK         0.2998 
    101 H101       25.9298  -30.4294  -42.5869 H         1 UNK         0.0822 
    102 H102       26.5098  -29.0611  -44.5632 H         1 UNK         0.0787 
    103 H103       24.9379  -28.2826  -44.5352 H         1 UNK         0.0787 
    104 H104       26.0827  -28.0154  -43.2190 H         1 UNK         0.0787 
    105 H105       22.7451  -30.2614  -44.1325 H         1 UNK         0.3055 
    106 H106       23.3444  -32.2778  -46.1533 H         1 UNK         0.1106 
    107 H107       21.6277  -30.5622  -46.5860 H         1 UNK         0.0828 
    108 H108       20.8664  -32.1428  -46.5592 H         1 UNK         0.0828 
    109 H109       20.7036  -31.0698  -45.1764 H         1 UNK         0.0828 
    110 H110       22.5609  -32.4183  -42.7814 H         1 UNK         0.2931 
    111 H111       21.4457  -35.1675  -42.9496 H         1 UNK         0.0412 
    112 H112       25.1818  -34.7836  -41.2212 H         1 UNK         0.3472 
    113 H113       24.2489  -33.3322  -41.5283 H         1 UNK         0.3472 
    114 H114       21.5828  -33.2753  -40.5540 H         1 UNK         0.0970 
    115 H115       20.9223  -34.8856  -40.5347 H         1 UNK         0.0970 
    116 H116       19.9138  -31.3454  -40.5656 H         1 UNK         0.0612 
    117 H117       20.5771  -31.3336  -42.1879 H         1 UNK         0.0612 
@<TRIPOS>BOND
     1    1    2 1    
     2    1   62 1    
     3    1   63 1    
     4    1   64 1    
     5    2    3 2    
     6    2    4 am   BACKBONE|DICT|INTERRES
     7    4    5 1    
     8    4   65 1    
     9    5    6 1    
    10    5   25 1    
    11    5   66 1    
    12    6    7 1    
    13    6   67 1    
    14    6   68 1    
    15    7    8 1    
    16    8    9 1    
    17    8   69 1    
    18    8   70 1    
    19    9   10 ar   
    20    9   14 ar   
    21   10   11 ar   
    22   10   71 1    
    23   11   12 ar   
    24   11   61 1    
    25   12   13 ar   
    26   12   72 1    
    27   13   14 ar   
    28   13   15 1    
    29   14   73 1    
    30   15   16 1    
    31   15   74 1    
    32   15   75 1    
    33   16   17 1    
    34   17   18 1    
    35   17   76 1    
    36   17   77 1    
    37   18   19 1    
    38   18   27 1    
    39   18   78 1    
    40   19   20 am   BACKBONE|DICT|INTERRES
    41   19   79 1    
    42   20   21 2    
    43   20   22 1    
    44   22   23 1    
    45   22   24 1    
    46   22   80 1    
    47   23   81 1    
    48   23   82 1    
    49   23   83 1    
    50   24   25 am   BACKBONE|DICT|INTERRES
    51   24   84 1    
    52   25   26 2    
    53   27   28 2    
    54   27   29 am   BACKBONE|DICT|INTERRES
    55   29   30 1    
    56   29   85 1    
    57   30   31 1    
    58   30   32 1    
    59   30   86 1    
    60   31   87 1    
    61   31   88 1    
    62   31   89 1    
    63   32   33 2    
    64   32   34 am   BACKBONE|DICT|INTERRES
    65   34   35 1    
    66   34   90 1    
    67   35   36 1    
    68   35   37 1    
    69   35   91 1    
    70   36   92 1    
    71   36   93 1    
    72   36   94 1    
    73   37   38 2    
    74   37   39 am   BACKBONE|DICT|INTERRES
    75   39   40 1    
    76   39   95 1    
    77   40   41 1    
    78   40   42 1    
    79   40   96 1    
    80   41   97 1    
    81   41   98 1    
    82   41   99 1    
    83   42   43 2    
    84   42   44 am   BACKBONE|DICT|INTERRES
    85   44   45 1    
    86   44  100 1    
    87   45   46 1    
    88   45   47 1    
    89   45  101 1    
    90   46  102 1    
    91   46  103 1    
    92   46  104 1    
    93   47   48 2    
    94   47   49 am   BACKBONE|DICT|INTERRES
    95   49   50 1    
    96   49  105 1    
    97   50   51 1    
    98   50   52 1    
    99   50  106 1    
   100   51  107 1    
   101   51  108 1    
   102   51  109 1    
   103   52   53 2    
   104   52   54 am   BACKBONE|DICT|INTERRES
   105   54   55 1    
   106   54  110 1    
   107   55   56 1    
   108   55   59 1    
   109   55  111 1    
   110   56   57 am   BACKBONE|DICT|INTERRES
   111   56   58 2    
   112   57  112 1    
   113   57  113 1    
   114   59   60 1    
   115   59  114 1    
   116   59  115 1    
   117   60   61 1    
   118   61  116 1    
   119   61  117 1    
@<TRIPOS>SUBSTRUCTURE
     1 UNK         1 GROUP             0       ****    0 ROOT    
