@<TRIPOS>MOLECULE
3R8
117   119    1
SMALL
USER_CHARGES


@<TRIPOS>ATOM
      1 CA         23.3504  -28.3551  -44.0948 C.3       0 UNK        -0.2013 
      2 C          21.9001  -27.9943  -44.3690 C.2       0 UNK         0.4866 
      3 O          21.0808  -28.0189  -43.4502 O.2       0 UNK        -0.5176 
      4 N          21.5748  -27.6671  -45.6255 N.am      1 UNK        -0.4884 
      5 CA         20.2221  -27.3098  -46.0604 C.3       1 UNK         0.0853 
      6 C6         20.0772  -27.4307  -47.6009 C.3       10 UNK        -0.0849 
      7 S7         18.3487  -27.3915  -48.2014 S.3       10 UNK        -0.2776 
      8 C8         17.8547  -29.1449  -48.1248 C.3       10 UNK         0.0316 
      9 C9         17.7984  -29.6457  -46.6891 C.ar      10 UNK        -0.0863 
     10 C10        18.8051  -30.4824  -46.1986 C.ar      10 UNK        -0.1009 
     11 C11        18.7997  -30.8971  -44.8640 C.ar      10 UNK        -0.0712 
     12 C12        17.7582  -30.4822  -44.0254 C.ar      10 UNK        -0.0894 
     13 C13        16.7274  -29.6682  -44.5091 C.ar      10 UNK        -0.0745 
     14 C14        16.7573  -29.2501  -45.8432 C.ar      10 UNK        -0.0972 
     15 C15        15.5433  -29.2980  -43.6207 C.3       10 UNK         0.0209 
     16 S16        16.0224  -28.6862  -41.9709 S.3       10 UNK        -0.2568 
     17 C17        16.4632  -26.9429  -42.2959 C.3       10 UNK        -0.0983 
     18 CA         17.9858  -26.6378  -42.2682 C.3       3 UNK         0.0876 
     19 N          18.2782  -25.2048  -42.3044 N.am      3 UNK        -0.4424 
     20 C          18.2170  -24.3008  -43.2920 C.2       2 UNK         0.4918 
     21 O          18.5442  -23.1329  -43.0838 O.2       2 UNK        -0.4875 
     22 CA         17.7282  -24.6990  -44.7054 C.3       2 UNK         0.0481 
     23 CB         17.7263  -23.5126  -45.6938 C.3       2 UNK        -0.1831 
     24 N          18.4547  -25.8293  -45.2850 N.am      2 UNK        -0.4498 
     25 C          19.7721  -25.9406  -45.5105 C.2       1 UNK         0.5027 
     26 O          20.5992  -25.0476  -45.3110 O.2       1 UNK        -0.4969 
     27 C          18.6843  -27.1187  -40.9837 C.2       3 UNK         0.5005 
     28 O          18.5551  -26.4536  -39.9512 O.2       3 UNK        -0.5279 
     29 N          19.4486  -28.2168  -41.0864 N.am      4 UNK        -0.4463 
     30 CA         20.3918  -28.7268  -40.0809 C.3       4 UNK         0.0283 
     31 CB         19.6570  -29.2129  -38.8148 C.3       4 UNK        -0.1875 
     32 C          21.5104  -27.7055  -39.7854 C.2       4 UNK         0.4949 
     33 O          21.9136  -27.5309  -38.6350 O.2       4 UNK        -0.5039 
     34 N          21.9639  -27.0202  -40.8440 N.am      5 UNK        -0.4663 
     35 CA         22.9009  -25.8944  -40.7916 C.3       5 UNK         0.0242 
     36 CB         22.5739  -24.9383  -41.9533 C.3       5 UNK        -0.1982 
     37 C          24.3814  -26.3188  -40.8198 C.2       5 UNK         0.5017 
     38 O          25.2542  -25.4496  -40.8153 O.2       5 UNK        -0.5012 
     39 N          24.6458  -27.6282  -40.8609 N.am      6 UNK        -0.4439 
     40 CA         25.9705  -28.2414  -40.8635 C.3       6 UNK         0.0297 
     41 CB         26.5459  -28.2578  -42.2969 C.3       6 UNK        -0.2006 
     42 C          25.8556  -29.6378  -40.2323 C.2       6 UNK         0.4892 
     43 O          24.9139  -29.8873  -39.4769 O.2       6 UNK        -0.5089 
     44 N          26.8045  -30.5281  -40.5528 N.am      7 UNK        -0.4243 
     45 CA         26.8176  -31.9275  -40.1115 C.3       7 UNK         0.0196 
     46 CB         28.1903  -32.5429  -40.4297 C.3       7 UNK        -0.2007 
     47 C          25.6896  -32.7810  -40.7242 C.2       7 UNK         0.5020 
     48 O          25.3297  -33.8056  -40.1435 O.2       7 UNK        -0.5147 
     49 N          25.1595  -32.3599  -41.8809 N.am      8 UNK        -0.4734 
     50 CA         23.9973  -32.9687  -42.5254 C.3       8 UNK         0.0238 
     51 CB         23.9519  -32.5458  -44.0036 C.3       8 UNK        -0.1912 
     52 C          22.7040  -32.5535  -41.8065 C.2       8 UNK         0.5038 
     53 O          22.4923  -31.3573  -41.5953 O.2       8 UNK        -0.5046 
     54 N          21.8589  -33.5452  -41.5000 N.am      9 UNK        -0.4200 
     55 CA         20.5484  -33.4151  -40.8387 C.3       9 UNK         0.0839 
     56 C          20.6358  -32.9576  -39.3507 C.2       9 UNK         0.5513 
     57 N          19.5034  -32.7479  -38.6916 N.am      9 UNK        -0.7519 
     58 O          21.7086  -32.8400  -38.7630 O.2       9 UNK        -0.4960 
     59 C59        19.5171  -32.5960  -41.6727 C.3       10 UNK        -0.0876 
     60 S60        19.3562  -33.2097  -43.3876 S.3       10 UNK        -0.2414 
     61 C61        19.9379  -31.7722  -44.3474 C.3       10 UNK         0.0169 
     62 H62        23.9013  -27.4755  -43.7650 H         1 UNK         0.0903 
     63 H63        23.4067  -29.1098  -43.3102 H         1 UNK         0.0903 
     64 H64        23.8389  -28.7550  -44.9830 H         1 UNK         0.0903 
     65 H65        22.2959  -27.6163  -46.3308 H         1 UNK         0.3096 
     66 H66        19.5683  -28.0427  -45.5925 H         1 UNK         0.1121 
     67 H67        20.5301  -28.3617  -47.9458 H         1 UNK         0.0849 
     68 H68        20.6315  -26.6315  -48.0966 H         1 UNK         0.0849 
     69 H69        18.5408  -29.7451  -48.7246 H         1 UNK         0.0865 
     70 H70        16.8718  -29.2571  -48.5850 H         1 UNK         0.0865 
     71 H71        19.6124  -30.7864  -46.8511 H         1 UNK         0.1346 
     72 H72        17.7353  -30.8095  -42.9961 H         1 UNK         0.1412 
     73 H73        15.9678  -28.6194  -46.2299 H         1 UNK         0.1426 
     74 H74        14.9327  -30.1919  -43.4867 H         1 UNK         0.0716 
     75 H75        14.8990  -28.5631  -44.1056 H         1 UNK         0.0716 
     76 H76        15.9522  -26.3365  -41.5458 H         1 UNK         0.0695 
     77 H77        16.0336  -26.6505  -43.2522 H         1 UNK         0.0695 
     78 H78        18.4664  -27.1400  -43.1062 H         1 UNK         0.0983 
     79 H79        18.5965  -24.8832  -41.3983 H         1 UNK         0.3095 
     80 H80        16.6912  -25.0143  -44.6003 H         1 UNK         0.0454 
     81 H81        18.7275  -23.1077  -45.8453 H         1 UNK         0.0851 
     82 H82        17.0989  -22.6991  -45.3278 H         1 UNK         0.0851 
     83 H83        17.3349  -23.8082  -46.6672 H         1 UNK         0.0851 
     84 H84        17.8774  -26.6204  -45.5350 H         1 UNK         0.2976 
     85 H85        19.5651  -28.6164  -42.0108 H         1 UNK         0.3116 
     86 H86        20.8795  -29.5915  -40.5301 H         1 UNK         0.0646 
     87 H87        19.2227  -28.3865  -38.2519 H         1 UNK         0.0847 
     88 H88        20.3432  -29.7352  -38.1471 H         1 UNK         0.0847 
     89 H89        18.8552  -29.9073  -39.0644 H         1 UNK         0.0847 
     90 H90        21.5966  -27.2666  -41.7603 H         1 UNK         0.3040 
     91 H91        22.7472  -25.3520  -39.8560 H         1 UNK         0.1015 
     92 H92        22.7340  -25.4069  -42.9244 H         1 UNK         0.0786 
     93 H93        23.1995  -24.0455  -41.9162 H         1 UNK         0.0786 
     94 H94        21.5365  -24.6048  -41.9136 H         1 UNK         0.0786 
     95 H95        23.8765  -28.2777  -40.7540 H         1 UNK         0.3172 
     96 H96        26.6320  -27.6561  -40.2215 H         1 UNK         0.0595 
     97 H97        27.5923  -28.5638  -42.3040 H         1 UNK         0.0839 
     98 H98        26.5100  -27.2671  -42.7505 H         1 UNK         0.0839 
     99 H99        25.9968  -28.9391  -42.9473 H         1 UNK         0.0839 
    100 H100       27.5524  -30.2397  -41.1672 H         1 UNK         0.2998 
    101 H101       26.6797  -31.9398  -39.0280 H         1 UNK         0.0822 
    102 H102       28.2433  -33.5770  -40.0856 H         1 UNK         0.0787 
    103 H103       28.3935  -32.5459  -41.5014 H         1 UNK         0.0787 
    104 H104       28.9948  -31.9981  -39.9351 H         1 UNK         0.0787 
    105 H105       25.4928  -31.4915  -42.2701 H         1 UNK         0.3055 
    106 H106       24.1043  -34.0553  -42.4826 H         1 UNK         0.1106 
    107 H107       23.1029  -33.0045  -44.5125 H         1 UNK         0.0828 
    108 H108       23.8505  -31.4659  -44.1144 H         1 UNK         0.0828 
    109 H109       24.8527  -32.8554  -44.5339 H         1 UNK         0.0828 
    110 H110       22.1382  -34.4937  -41.7018 H         1 UNK         0.2931 
    111 H111       20.1751  -34.4385  -40.7861 H         1 UNK         0.0412 
    112 H112       18.6055  -32.8847  -39.1274 H         1 UNK         0.3472 
    113 H113       19.5503  -32.4784  -37.7215 H         1 UNK         0.3472 
    114 H114       19.7795  -31.5374  -41.6691 H         1 UNK         0.0970 
    115 H115       18.5255  -32.6555  -41.2226 H         1 UNK         0.0970 
    116 H116       20.6238  -31.1625  -43.7581 H         1 UNK         0.0612 
    117 H117       20.5238  -32.1566  -45.1835 H         1 UNK         0.0612 
@<TRIPOS>BOND
     1    1    2 1    
     2    1   62 1    
     3    1   63 1    
     4    1   64 1    
     5    2    3 2    
     6    2    4 am   BACKBONE|DICT|INTERRES
     7    4    5 1    
     8    4   65 1    
     9    5    6 1    
    10    5   25 1    
    11    5   66 1    
    12    6    7 1    
    13    6   67 1    
    14    6   68 1    
    15    7    8 1    
    16    8    9 1    
    17    8   69 1    
    18    8   70 1    
    19    9   10 ar   
    20    9   14 ar   
    21   10   11 ar   
    22   10   71 1    
    23   11   12 ar   
    24   11   61 1    
    25   12   13 ar   
    26   12   72 1    
    27   13   14 ar   
    28   13   15 1    
    29   14   73 1    
    30   15   16 1    
    31   15   74 1    
    32   15   75 1    
    33   16   17 1    
    34   17   18 1    
    35   17   76 1    
    36   17   77 1    
    37   18   19 1    
    38   18   27 1    
    39   18   78 1    
    40   19   20 am   BACKBONE|DICT|INTERRES
    41   19   79 1    
    42   20   21 2    
    43   20   22 1    
    44   22   23 1    
    45   22   24 1    
    46   22   80 1    
    47   23   81 1    
    48   23   82 1    
    49   23   83 1    
    50   24   25 am   BACKBONE|DICT|INTERRES
    51   24   84 1    
    52   25   26 2    
    53   27   28 2    
    54   27   29 am   BACKBONE|DICT|INTERRES
    55   29   30 1    
    56   29   85 1    
    57   30   31 1    
    58   30   32 1    
    59   30   86 1    
    60   31   87 1    
    61   31   88 1    
    62   31   89 1    
    63   32   33 2    
    64   32   34 am   BACKBONE|DICT|INTERRES
    65   34   35 1    
    66   34   90 1    
    67   35   36 1    
    68   35   37 1    
    69   35   91 1    
    70   36   92 1    
    71   36   93 1    
    72   36   94 1    
    73   37   38 2    
    74   37   39 am   BACKBONE|DICT|INTERRES
    75   39   40 1    
    76   39   95 1    
    77   40   41 1    
    78   40   42 1    
    79   40   96 1    
    80   41   97 1    
    81   41   98 1    
    82   41   99 1    
    83   42   43 2    
    84   42   44 am   BACKBONE|DICT|INTERRES
    85   44   45 1    
    86   44  100 1    
    87   45   46 1    
    88   45   47 1    
    89   45  101 1    
    90   46  102 1    
    91   46  103 1    
    92   46  104 1    
    93   47   48 2    
    94   47   49 am   BACKBONE|DICT|INTERRES
    95   49   50 1    
    96   49  105 1    
    97   50   51 1    
    98   50   52 1    
    99   50  106 1    
   100   51  107 1    
   101   51  108 1    
   102   51  109 1    
   103   52   53 2    
   104   52   54 am   BACKBONE|DICT|INTERRES
   105   54   55 1    
   106   54  110 1    
   107   55   56 1    
   108   55   59 1    
   109   55  111 1    
   110   56   57 am   BACKBONE|DICT|INTERRES
   111   56   58 2    
   112   57  112 1    
   113   57  113 1    
   114   59   60 1    
   115   59  114 1    
   116   59  115 1    
   117   60   61 1    
   118   61  116 1    
   119   61  117 1    
@<TRIPOS>SUBSTRUCTURE
     1 UNK         1 GROUP             0       ****    0 ROOT    
