@<TRIPOS>MOLECULE
3R8
117   119    1
SMALL
USER_CHARGES


@<TRIPOS>ATOM
      1 CA         13.0492  -24.9504  -46.5161 C.3       0 UNK        -0.2013 
      2 C          13.7763  -25.8501  -45.5274 C.2       0 UNK         0.4866 
      3 O          13.2199  -26.1707  -44.4764 O.2       0 UNK        -0.5176 
      4 N          15.0088  -26.2555  -45.8650 N.am      1 UNK        -0.4884 
      5 CA         15.9118  -27.0986  -45.0649 C.3       1 UNK         0.0853 
      6 C6         15.3576  -28.5384  -44.8296 C.3       10 UNK        -0.0849 
      7 S7         15.3320  -29.4868  -46.3901 S.3       10 UNK        -0.2776 
      8 C8         16.6842  -30.6932  -46.1419 C.3       10 UNK         0.0316 
      9 C9         17.9807  -30.0533  -45.6542 C.ar      10 UNK        -0.0863 
     10 C10        18.5610  -30.4730  -44.4529 C.ar      10 UNK        -0.1009 
     11 C11        19.7306  -29.8710  -43.9778 C.ar      10 UNK        -0.0712 
     12 C12        20.3257  -28.8501  -44.7224 C.ar      10 UNK        -0.0894 
     13 C13        19.7549  -28.4157  -45.9231 C.ar      10 UNK        -0.0745 
     14 C14        18.5941  -29.0370  -46.3929 C.ar      10 UNK        -0.0972 
     15 C15        20.3875  -27.2839  -46.7219 C.3       10 UNK         0.0209 
     16 S16        20.0311  -25.6474  -45.9958 S.3       10 UNK        -0.2568 
     17 C17        21.3484  -25.5182  -44.7355 C.3       10 UNK        -0.0983 
     18 CA         20.8619  -25.2728  -43.2780 C.3       3 UNK         0.0876 
     19 N          19.6427  -26.0108  -42.9331 N.am      3 UNK        -0.4424 
     20 C          18.8744  -25.7501  -41.8659 C.2       2 UNK         0.4918 
     21 O          19.0824  -24.8152  -41.0897 O.2       2 UNK        -0.4875 
     22 CA         17.6758  -26.6916  -41.6313 C.3       2 UNK         0.0481 
     23 CB         16.6317  -26.1140  -40.6513 C.3       2 UNK        -0.1831 
     24 N          17.0451  -27.1455  -42.8779 N.am      2 UNK        -0.4498 
     25 C          16.4101  -26.3849  -43.7848 C.2       1 UNK         0.5027 
     26 O          16.2681  -25.1646  -43.6660 O.2       1 UNK        -0.4969 
     27 C          21.9977  -25.6291  -42.2965 C.2       3 UNK         0.5005 
     28 O          22.0048  -26.7315  -41.7388 O.2       3 UNK        -0.5279 
     29 N          22.9964  -24.7440  -42.1765 N.am      4 UNK        -0.4463 
     30 CA         24.2374  -24.9664  -41.4217 C.3       4 UNK         0.0283 
     31 CB         24.8730  -23.6035  -41.0882 C.3       4 UNK        -0.1875 
     32 C          25.2114  -25.9098  -42.1643 C.2       4 UNK         0.4949 
     33 O          26.3698  -25.5569  -42.3917 O.2       4 UNK        -0.5039 
     34 N          24.7101  -27.0884  -42.5535 N.am      5 UNK        -0.4663 
     35 CA         25.4297  -28.1109  -43.3167 C.3       5 UNK         0.0242 
     36 CB         24.4030  -29.0217  -44.0124 C.3       5 UNK        -0.1982 
     37 C          26.3894  -28.9501  -42.4571 C.2       5 UNK         0.5017 
     38 O          27.3143  -29.5478  -43.0076 O.2       5 UNK        -0.5012 
     39 N          26.1358  -28.9980  -41.1390 N.am      6 UNK        -0.4439 
     40 CA         26.8457  -29.7869  -40.1205 C.3       6 UNK         0.0297 
     41 CB         28.2984  -29.2927  -39.9525 C.3       6 UNK        -0.2006 
     42 C          26.7564  -31.3129  -40.3452 C.2       6 UNK         0.4892 
     43 O          27.6427  -32.0515  -39.9115 O.2       6 UNK        -0.5089 
     44 N          25.6809  -31.7580  -41.0035 N.am      7 UNK        -0.4243 
     45 CA         25.3601  -33.1465  -41.3085 C.3       7 UNK         0.0196 
     46 CB         26.1426  -33.6094  -42.5510 C.3       7 UNK        -0.2007 
     47 C          23.8497  -33.2360  -41.5462 C.2       7 UNK         0.5020 
     48 O          23.2355  -32.2309  -41.9177 O.2       7 UNK        -0.5147 
     49 N          23.2854  -34.4323  -41.3282 N.am      8 UNK        -0.4734 
     50 CA         21.8674  -34.8194  -41.4352 C.3       8 UNK         0.0238 
     51 CB         21.3393  -34.6563  -42.8752 C.3       8 UNK        -0.1912 
     52 C          20.9435  -34.1307  -40.4123 C.2       8 UNK         0.5038 
     53 O          20.2289  -34.8198  -39.6827 O.2       8 UNK        -0.5046 
     54 N          20.9875  -32.7971  -40.3695 N.am      9 UNK        -0.4200 
     55 CA         20.3308  -31.9426  -39.3758 C.3       9 UNK         0.0839 
     56 C          21.0065  -32.0673  -37.9837 C.2       9 UNK         0.5513 
     57 N          20.2321  -31.9862  -36.9103 N.am      9 UNK        -0.7519 
     58 O          22.2242  -32.1928  -37.8676 O.2       9 UNK        -0.4960 
     59 C59        20.3111  -30.4656  -39.8454 C.3       10 UNK        -0.0876 
     60 S60        19.2066  -30.2011  -41.2724 S.3       10 UNK        -0.2414 
     61 C61        20.3652  -30.3271  -42.6706 C.3       10 UNK         0.0169 
     62 H62        13.6590  -24.7285  -47.3931 H         1 UNK         0.0903 
     63 H63        12.1302  -25.4311  -46.8542 H         1 UNK         0.0903 
     64 H64        12.7850  -24.0056  -46.0389 H         1 UNK         0.0903 
     65 H65        15.4022  -25.9283  -46.7364 H         1 UNK         0.3096 
     66 H66        16.8149  -27.1828  -45.6679 H         1 UNK         0.1121 
     67 H67        15.9404  -29.1029  -44.1027 H         1 UNK         0.0849 
     68 H68        14.3475  -28.5099  -44.4201 H         1 UNK         0.0849 
     69 H69        16.3427  -31.4559  -45.4400 H         1 UNK         0.0865 
     70 H70        16.8752  -31.2099  -47.0835 H         1 UNK         0.0865 
     71 H71        18.1002  -31.2641  -43.8766 H         1 UNK         0.1346 
     72 H72        21.2359  -28.3979  -44.3590 H         1 UNK         0.1412 
     73 H73        18.1477  -28.7125  -47.3234 H         1 UNK         0.1426 
     74 H74        20.0078  -27.2916  -47.7448 H         1 UNK         0.0716 
     75 H75        21.4643  -27.4378  -46.8061 H         1 UNK         0.0716 
     76 H76        21.9971  -24.6943  -45.0380 H         1 UNK         0.0695 
     77 H77        21.9841  -26.4014  -44.7985 H         1 UNK         0.0695 
     78 H78        20.6376  -24.2092  -43.1687 H         1 UNK         0.0983 
     79 H79        19.4168  -26.7987  -43.5213 H         1 UNK         0.3095 
     80 H80        18.0900  -27.5812  -41.1602 H         1 UNK         0.0454 
     81 H81        17.0780  -25.9231  -39.6746 H         1 UNK         0.0851 
     82 H82        15.8051  -26.8074  -40.4971 H         1 UNK         0.0851 
     83 H83        16.2171  -25.1701  -41.0061 H         1 UNK         0.0851 
     84 H84        17.1514  -28.1314  -43.0733 H         1 UNK         0.2976 
     85 H85        22.9453  -23.8818  -42.7009 H         1 UNK         0.3116 
     86 H86        23.9853  -25.4508  -40.4757 H         1 UNK         0.0646 
     87 H87        24.1879  -22.9732  -40.5211 H         1 UNK         0.0847 
     88 H88        25.1632  -23.0606  -41.9886 H         1 UNK         0.0847 
     89 H89        25.7701  -23.7287  -40.4804 H         1 UNK         0.0847 
     90 H90        23.7373  -27.2734  -42.3193 H         1 UNK         0.3040 
     91 H91        26.0288  -27.6161  -44.0848 H         1 UNK         0.1015 
     92 H92        24.9003  -29.7949  -44.6002 H         1 UNK         0.0786 
     93 H93        23.7709  -28.4556  -44.6965 H         1 UNK         0.0786 
     94 H94        23.7551  -29.5272  -43.2947 H         1 UNK         0.0786 
     95 H95        25.3453  -28.4627  -40.8075 H         1 UNK         0.3172 
     96 H96        26.3267  -29.5959  -39.1802 H         1 UNK         0.0595 
     97 H97        28.7770  -29.7670  -39.0949 H         1 UNK         0.0839 
     98 H98        28.3354  -28.2160  -39.7871 H         1 UNK         0.0839 
     99 H99        28.9073  -29.5192  -40.8282 H         1 UNK         0.0839 
    100 H100       24.9692  -31.1012  -41.2990 H         1 UNK         0.2998 
    101 H101       25.6199  -33.7706  -40.4506 H         1 UNK         0.0822 
    102 H102       27.2189  -33.5611  -42.3842 H         1 UNK         0.0787 
    103 H103       25.9010  -34.6419  -42.8066 H         1 UNK         0.0787 
    104 H104       25.9122  -32.9929  -43.4211 H         1 UNK         0.0787 
    105 H105       23.8943  -35.1736  -41.0073 H         1 UNK         0.3055 
    106 H106       21.8346  -35.8855  -41.2023 H         1 UNK         0.1106 
    107 H107       21.9259  -35.2470  -43.5790 H         1 UNK         0.0828 
    108 H108       20.3055  -34.9960  -42.9510 H         1 UNK         0.0828 
    109 H109       21.3635  -33.6200  -43.2114 H         1 UNK         0.0828 
    110 H110       21.6672  -32.3457  -40.9759 H         1 UNK         0.2931 
    111 H111       19.2983  -32.2856  -39.2785 H         1 UNK         0.0412 
    112 H112       19.2334  -31.8737  -36.9951 H         1 UNK         0.3472 
    113 H113       20.6526  -32.0488  -35.9958 H         1 UNK         0.3472 
    114 H114       19.9469  -29.8179  -39.0452 H         1 UNK         0.0970 
    115 H115       21.3181  -30.1132  -40.0773 H         1 UNK         0.0970 
    116 H116       20.6932  -31.3604  -42.7790 H         1 UNK         0.0612 
    117 H117       21.2554  -29.7356  -42.4493 H         1 UNK         0.0612 
@<TRIPOS>BOND
     1    1    2 1    
     2    1   62 1    
     3    1   63 1    
     4    1   64 1    
     5    2    3 2    
     6    2    4 am   BACKBONE|DICT|INTERRES
     7    4    5 1    
     8    4   65 1    
     9    5    6 1    
    10    5   25 1    
    11    5   66 1    
    12    6    7 1    
    13    6   67 1    
    14    6   68 1    
    15    7    8 1    
    16    8    9 1    
    17    8   69 1    
    18    8   70 1    
    19    9   10 ar   
    20    9   14 ar   
    21   10   11 ar   
    22   10   71 1    
    23   11   12 ar   
    24   11   61 1    
    25   12   13 ar   
    26   12   72 1    
    27   13   14 ar   
    28   13   15 1    
    29   14   73 1    
    30   15   16 1    
    31   15   74 1    
    32   15   75 1    
    33   16   17 1    
    34   17   18 1    
    35   17   76 1    
    36   17   77 1    
    37   18   19 1    
    38   18   27 1    
    39   18   78 1    
    40   19   20 am   BACKBONE|DICT|INTERRES
    41   19   79 1    
    42   20   21 2    
    43   20   22 1    
    44   22   23 1    
    45   22   24 1    
    46   22   80 1    
    47   23   81 1    
    48   23   82 1    
    49   23   83 1    
    50   24   25 am   BACKBONE|DICT|INTERRES
    51   24   84 1    
    52   25   26 2    
    53   27   28 2    
    54   27   29 am   BACKBONE|DICT|INTERRES
    55   29   30 1    
    56   29   85 1    
    57   30   31 1    
    58   30   32 1    
    59   30   86 1    
    60   31   87 1    
    61   31   88 1    
    62   31   89 1    
    63   32   33 2    
    64   32   34 am   BACKBONE|DICT|INTERRES
    65   34   35 1    
    66   34   90 1    
    67   35   36 1    
    68   35   37 1    
    69   35   91 1    
    70   36   92 1    
    71   36   93 1    
    72   36   94 1    
    73   37   38 2    
    74   37   39 am   BACKBONE|DICT|INTERRES
    75   39   40 1    
    76   39   95 1    
    77   40   41 1    
    78   40   42 1    
    79   40   96 1    
    80   41   97 1    
    81   41   98 1    
    82   41   99 1    
    83   42   43 2    
    84   42   44 am   BACKBONE|DICT|INTERRES
    85   44   45 1    
    86   44  100 1    
    87   45   46 1    
    88   45   47 1    
    89   45  101 1    
    90   46  102 1    
    91   46  103 1    
    92   46  104 1    
    93   47   48 2    
    94   47   49 am   BACKBONE|DICT|INTERRES
    95   49   50 1    
    96   49  105 1    
    97   50   51 1    
    98   50   52 1    
    99   50  106 1    
   100   51  107 1    
   101   51  108 1    
   102   51  109 1    
   103   52   53 2    
   104   52   54 am   BACKBONE|DICT|INTERRES
   105   54   55 1    
   106   54  110 1    
   107   55   56 1    
   108   55   59 1    
   109   55  111 1    
   110   56   57 am   BACKBONE|DICT|INTERRES
   111   56   58 2    
   112   57  112 1    
   113   57  113 1    
   114   59   60 1    
   115   59  114 1    
   116   59  115 1    
   117   60   61 1    
   118   61  116 1    
   119   61  117 1    
@<TRIPOS>SUBSTRUCTURE
     1 UNK         1 GROUP             0       ****    0 ROOT    
