@<TRIPOS>MOLECULE
3R8
117   119    1
SMALL
USER_CHARGES


@<TRIPOS>ATOM
      1 CA         16.6864  -23.0624  -48.4219 C.3       0 UNK        -0.2013 
      2 C          15.4662  -23.4091  -47.5717 C.2       0 UNK         0.4866 
      3 O          14.5795  -22.5706  -47.4211 O.2       0 UNK        -0.5176 
      4 N          15.3595  -24.6217  -47.0097 N.am      1 UNK        -0.4884 
      5 CA         16.3586  -25.6972  -47.0244 C.3       1 UNK         0.0853 
      6 C6         15.7075  -27.0550  -46.6572 C.3       10 UNK        -0.0849 
      7 S7         16.6305  -28.4726  -47.3404 S.3       10 UNK        -0.2776 
      8 C8         15.8701  -29.8625  -46.4452 C.3       10 UNK         0.0316 
      9 C9         16.4271  -30.0136  -45.0363 C.ar      10 UNK        -0.0863 
     10 C10        17.6426  -30.6761  -44.8328 C.ar      10 UNK        -0.1009 
     11 C11        18.1411  -30.8680  -43.5405 C.ar      10 UNK        -0.0712 
     12 C12        17.3927  -30.4160  -42.4492 C.ar      10 UNK        -0.0894 
     13 C13        16.2170  -29.6871  -42.6397 C.ar      10 UNK        -0.0745 
     14 C14        15.7263  -29.5067  -43.9366 C.ar      10 UNK        -0.0972 
     15 C15        15.5001  -29.0702  -41.4444 C.3       10 UNK         0.0209 
     16 S16        16.6081  -28.0353  -40.4197 S.3       10 UNK        -0.2568 
     17 C17        17.1888  -26.7827  -41.6141 C.3       10 UNK        -0.0983 
     18 CA         18.6303  -27.0583  -42.1187 C.3       3 UNK         0.0876 
     19 N          18.8640  -26.4230  -43.4129 N.am      3 UNK        -0.4424 
     20 C          19.8386  -26.7445  -44.2708 C.2       2 UNK         0.4918 
     21 O          20.6279  -27.6744  -44.0977 O.2       2 UNK        -0.4875 
     22 CA         19.9224  -25.8881  -45.5508 C.3       2 UNK         0.0481 
     23 CB         21.1267  -26.2642  -46.4338 C.3       2 UNK        -0.1831 
     24 N          18.6994  -25.9876  -46.3511 N.am      2 UNK        -0.4498 
     25 C          17.5393  -25.3750  -46.0833 C.2       1 UNK         0.5027 
     26 O          17.3778  -24.6135  -45.1250 O.2       1 UNK        -0.4969 
     27 C          19.7121  -26.6017  -41.1197 C.2       3 UNK         0.5005 
     28 O          19.9124  -25.3950  -40.9542 O.2       3 UNK        -0.5279 
     29 N          20.3983  -27.5615  -40.4918 N.am      4 UNK        -0.4463 
     30 CA         21.5202  -27.3617  -39.5769 C.3       4 UNK         0.0283 
     31 CB         22.7840  -26.9632  -40.3732 C.3       4 UNK        -0.1875 
     32 C          21.7346  -28.6542  -38.7728 C.2       4 UNK         0.4949 
     33 O          20.8931  -29.5551  -38.8209 O.2       4 UNK        -0.5039 
     34 N          22.8661  -28.7367  -38.0598 N.am      5 UNK        -0.4663 
     35 CA         23.3710  -29.9739  -37.4560 C.3       5 UNK         0.0242 
     36 CB         24.5617  -29.6372  -36.5443 C.3       5 UNK        -0.1982 
     37 C          23.7995  -30.9729  -38.5449 C.2       5 UNK         0.5017 
     38 O          24.2322  -30.5429  -39.6154 O.2       5 UNK        -0.5012 
     39 N          23.7031  -32.2765  -38.2490 N.am      6 UNK        -0.4439 
     40 CA         23.8817  -33.3943  -39.1898 C.3       6 UNK         0.0297 
     41 CB         23.7665  -34.7223  -38.4238 C.3       6 UNK        -0.2006 
     42 C          25.1733  -33.3790  -40.0317 C.2       6 UNK         0.4892 
     43 O          25.1459  -33.8307  -41.1765 O.2       6 UNK        -0.5089 
     44 N          26.2661  -32.8498  -39.4659 N.am      7 UNK        -0.4243 
     45 CA         27.5582  -32.6964  -40.1398 C.3       7 UNK         0.0196 
     46 CB         28.6488  -32.4734  -39.0792 C.3       7 UNK        -0.2007 
     47 C          27.5890  -31.5608  -41.1818 C.2       7 UNK         0.5020 
     48 O          28.4238  -31.6080  -42.0857 O.2       7 UNK        -0.5147 
     49 N          26.7134  -30.5582  -41.0333 N.am      8 UNK        -0.4734 
     50 CA         26.6508  -29.3624  -41.8812 C.3       8 UNK         0.0238 
     51 CB         26.6594  -28.1239  -40.9681 C.3       8 UNK        -0.1912 
     52 C          25.4088  -29.3331  -42.7888 C.2       8 UNK         0.5038 
     53 O          25.3842  -28.5389  -43.7297 O.2       8 UNK        -0.5046 
     54 N          24.4009  -30.1553  -42.4705 N.am      9 UNK        -0.4200 
     55 CA         23.0774  -30.2096  -43.1054 C.3       9 UNK         0.0839 
     56 C          23.1050  -30.4176  -44.6434 C.2       9 UNK         0.5513 
     57 N          22.2553  -29.7122  -45.3760 N.am      9 UNK        -0.7519 
     58 O          23.8510  -31.2447  -45.1638 O.2       9 UNK        -0.4960 
     59 C59        22.1775  -31.2702  -42.4103 C.3       10 UNK        -0.0876 
     60 S60        20.5069  -30.6233  -42.1131 S.3       10 UNK        -0.2414 
     61 C61        19.4984  -31.5317  -43.3297 C.3       10 UNK         0.0169 
     62 H62        17.5911  -23.0341  -47.8157 H         1 UNK         0.0903 
     63 H63        16.8216  -23.7795  -49.2306 H         1 UNK         0.0903 
     64 H64        16.5651  -22.0789  -48.8758 H         1 UNK         0.0903 
     65 H65        14.5507  -24.8010  -46.4318 H         1 UNK         0.3096 
     66 H66        16.7458  -25.7708  -48.0426 H         1 UNK         0.1121 
     67 H67        15.5943  -27.1606  -45.5766 H         1 UNK         0.0849 
     68 H68        14.6989  -27.1127  -47.0706 H         1 UNK         0.0849 
     69 H69        14.7861  -29.7392  -46.4230 H         1 UNK         0.0865 
     70 H70        16.0549  -30.7807  -47.0049 H         1 UNK         0.0865 
     71 H71        18.2025  -31.0374  -45.6848 H         1 UNK         0.1346 
     72 H72        17.7642  -30.5654  -41.4446 H         1 UNK         0.1412 
     73 H73        14.8010  -28.9687  -44.0908 H         1 UNK         0.1426 
     74 H74        14.6530  -28.4636  -41.7686 H         1 UNK         0.0716 
     75 H75        15.0902  -29.8697  -40.8259 H         1 UNK         0.0716 
     76 H76        17.1098  -25.7933  -41.1595 H         1 UNK         0.0695 
     77 H77        16.4925  -26.7730  -42.4546 H         1 UNK         0.0695 
     78 H78        18.7446  -28.1301  -42.2794 H         1 UNK         0.0983 
     79 H79        18.2670  -25.6392  -43.6527 H         1 UNK         0.3095 
     80 H80        20.0548  -24.8503  -45.2378 H         1 UNK         0.0454 
     81 H81        21.2128  -25.5983  -47.2924 H         1 UNK         0.0851 
     82 H82        21.0512  -27.2858  -46.8078 H         1 UNK         0.0851 
     83 H83        22.0605  -26.1905  -45.8746 H         1 UNK         0.0851 
     84 H84        18.7228  -26.6521  -47.1126 H         1 UNK         0.2976 
     85 H85        20.1529  -28.5364  -40.6300 H         1 UNK         0.3116 
     86 H86        21.2641  -26.5678  -38.8727 H         1 UNK         0.0646 
     87 H87        22.6030  -26.1026  -41.0169 H         1 UNK         0.0847 
     88 H88        23.6057  -26.6890  -39.7116 H         1 UNK         0.0847 
     89 H89        23.1311  -27.7812  -41.0052 H         1 UNK         0.0847 
     90 H90        23.5085  -27.9590  -38.0865 H         1 UNK         0.3040 
     91 H91        22.5725  -30.4191  -36.8581 H         1 UNK         0.1015 
     92 H92        25.3877  -29.1959  -37.1043 H         1 UNK         0.0786 
     93 H93        24.9440  -30.5319  -36.0510 H         1 UNK         0.0786 
     94 H94        24.2752  -28.9357  -35.7604 H         1 UNK         0.0786 
     95 H95        23.3714  -32.5275  -37.3283 H         1 UNK         0.3172 
     96 H96        23.0480  -33.3447  -39.8925 H         1 UNK         0.0595 
     97 H97        24.5395  -34.8163  -37.6600 H         1 UNK         0.0839 
     98 H98        23.8708  -35.5737  -39.0983 H         1 UNK         0.0839 
     99 H99        22.7965  -34.8190  -37.9357 H         1 UNK         0.0839 
    100 H100       26.1946  -32.4985  -38.5221 H         1 UNK         0.2998 
    101 H101       27.7816  -33.6269  -40.6666 H         1 UNK         0.0822 
    102 H102       28.6968  -33.3061  -38.3771 H         1 UNK         0.0787 
    103 H103       29.6325  -32.3864  -39.5430 H         1 UNK         0.0787 
    104 H104       28.4762  -31.5601  -38.5082 H         1 UNK         0.0787 
    105 H105       26.0187  -30.6168  -40.2935 H         1 UNK         0.3055 
    106 H106       27.5244  -29.3105  -42.5350 H         1 UNK         0.1106 
    107 H107       27.5681  -28.0819  -40.3674 H         1 UNK         0.0828 
    108 H108       26.6156  -27.2035  -41.5523 H         1 UNK         0.0828 
    109 H109       25.8073  -28.1202  -40.2871 H         1 UNK         0.0828 
    110 H110       24.5061  -30.7105  -41.6316 H         1 UNK         0.2931 
    111 H111       22.6596  -29.2175  -42.9217 H         1 UNK         0.0412 
    112 H112       22.2367  -29.8385  -46.3748 H         1 UNK         0.3472 
    113 H113       21.6388  -29.0354  -44.9320 H         1 UNK         0.3472 
    114 H114       22.1376  -32.2133  -42.9594 H         1 UNK         0.0970 
    115 H115       22.5704  -31.5305  -41.4280 H         1 UNK         0.0970 
    116 H116       20.0450  -31.5793  -44.2729 H         1 UNK         0.0612 
    117 H117       19.3545  -32.5578  -42.9896 H         1 UNK         0.0612 
@<TRIPOS>BOND
     1    1    2 1    
     2    1   62 1    
     3    1   63 1    
     4    1   64 1    
     5    2    3 2    
     6    2    4 am   BACKBONE|DICT|INTERRES
     7    4    5 1    
     8    4   65 1    
     9    5    6 1    
    10    5   25 1    
    11    5   66 1    
    12    6    7 1    
    13    6   67 1    
    14    6   68 1    
    15    7    8 1    
    16    8    9 1    
    17    8   69 1    
    18    8   70 1    
    19    9   10 ar   
    20    9   14 ar   
    21   10   11 ar   
    22   10   71 1    
    23   11   12 ar   
    24   11   61 1    
    25   12   13 ar   
    26   12   72 1    
    27   13   14 ar   
    28   13   15 1    
    29   14   73 1    
    30   15   16 1    
    31   15   74 1    
    32   15   75 1    
    33   16   17 1    
    34   17   18 1    
    35   17   76 1    
    36   17   77 1    
    37   18   19 1    
    38   18   27 1    
    39   18   78 1    
    40   19   20 am   BACKBONE|DICT|INTERRES
    41   19   79 1    
    42   20   21 2    
    43   20   22 1    
    44   22   23 1    
    45   22   24 1    
    46   22   80 1    
    47   23   81 1    
    48   23   82 1    
    49   23   83 1    
    50   24   25 am   BACKBONE|DICT|INTERRES
    51   24   84 1    
    52   25   26 2    
    53   27   28 2    
    54   27   29 am   BACKBONE|DICT|INTERRES
    55   29   30 1    
    56   29   85 1    
    57   30   31 1    
    58   30   32 1    
    59   30   86 1    
    60   31   87 1    
    61   31   88 1    
    62   31   89 1    
    63   32   33 2    
    64   32   34 am   BACKBONE|DICT|INTERRES
    65   34   35 1    
    66   34   90 1    
    67   35   36 1    
    68   35   37 1    
    69   35   91 1    
    70   36   92 1    
    71   36   93 1    
    72   36   94 1    
    73   37   38 2    
    74   37   39 am   BACKBONE|DICT|INTERRES
    75   39   40 1    
    76   39   95 1    
    77   40   41 1    
    78   40   42 1    
    79   40   96 1    
    80   41   97 1    
    81   41   98 1    
    82   41   99 1    
    83   42   43 2    
    84   42   44 am   BACKBONE|DICT|INTERRES
    85   44   45 1    
    86   44  100 1    
    87   45   46 1    
    88   45   47 1    
    89   45  101 1    
    90   46  102 1    
    91   46  103 1    
    92   46  104 1    
    93   47   48 2    
    94   47   49 am   BACKBONE|DICT|INTERRES
    95   49   50 1    
    96   49  105 1    
    97   50   51 1    
    98   50   52 1    
    99   50  106 1    
   100   51  107 1    
   101   51  108 1    
   102   51  109 1    
   103   52   53 2    
   104   52   54 am   BACKBONE|DICT|INTERRES
   105   54   55 1    
   106   54  110 1    
   107   55   56 1    
   108   55   59 1    
   109   55  111 1    
   110   56   57 am   BACKBONE|DICT|INTERRES
   111   56   58 2    
   112   57  112 1    
   113   57  113 1    
   114   59   60 1    
   115   59  114 1    
   116   59  115 1    
   117   60   61 1    
   118   61  116 1    
   119   61  117 1    
@<TRIPOS>SUBSTRUCTURE
     1 UNK         1 GROUP             0       ****    0 ROOT    
