@<TRIPOS>MOLECULE
3R8
117   119    1
SMALL
USER_CHARGES


@<TRIPOS>ATOM
      1 CA         19.3697  -28.2820  -41.8411 C.3       0 UNK        -0.2013 
      2 C          18.4585  -27.1529  -42.2911 C.2       0 UNK         0.4866 
      3 O          18.5445  -26.0571  -41.7372 O.2       0 UNK        -0.5176 
      4 N          17.5936  -27.4008  -43.2887 N.am      1 UNK        -0.4884 
      5 CA         16.6176  -26.4240  -43.7957 C.3       1 UNK         0.0853 
      6 C6         15.5031  -27.0777  -44.6596 C.3       10 UNK        -0.0849 
      7 S7         16.0103  -27.6933  -46.3087 S.3       10 UNK        -0.2776 
      8 C8         15.9219  -29.5007  -46.1274 C.3       10 UNK         0.0316 
      9 C9         17.1287  -30.0594  -45.3894 C.ar      10 UNK        -0.0863 
     10 C10        16.9804  -30.6148  -44.1147 C.ar      10 UNK        -0.1009 
     11 C11        18.0808  -31.1684  -43.4559 C.ar      10 UNK        -0.0712 
     12 C12        19.3330  -31.1539  -44.0751 C.ar      10 UNK        -0.0894 
     13 C13        19.4988  -30.6009  -45.3463 C.ar      10 UNK        -0.0745 
     14 C14        18.3881  -30.0591  -46.0016 C.ar      10 UNK        -0.0972 
     15 C15        20.8617  -30.6560  -46.0285 C.3       10 UNK         0.0209 
     16 S16        21.5090  -29.0183  -46.4937 S.3       10 UNK        -0.2568 
     17 C17        22.0646  -28.3355  -44.8935 C.3       10 UNK        -0.0983 
     18 CA         22.1074  -26.7864  -44.9253 C.3       3 UNK         0.0876 
     19 N          20.8010  -26.2196  -45.2760 N.am      3 UNK        -0.4424 
     20 C          20.5843  -24.9795  -45.7399 C.2       2 UNK         0.4918 
     21 O          21.4756  -24.1476  -45.9102 O.2       2 UNK        -0.4875 
     22 CA         19.1295  -24.5994  -46.0662 C.3       2 UNK         0.0481 
     23 CB         18.8997  -24.6172  -47.5860 C.3       2 UNK        -0.1831 
     24 N          18.1897  -25.5233  -45.4294 N.am      2 UNK        -0.4498 
     25 C          17.3083  -25.2193  -44.4739 C.2       1 UNK         0.5027 
     26 O          17.0768  -24.0763  -44.0862 O.2       1 UNK        -0.4969 
     27 C          22.6679  -26.1995  -43.6109 C.2       3 UNK         0.5005 
     28 O          23.8860  -26.2060  -43.4209 O.2       3 UNK        -0.5279 
     29 N          21.7770  -25.6732  -42.7526 N.am      4 UNK        -0.4463 
     30 CA         22.0458  -24.9028  -41.5351 C.3       4 UNK         0.0283 
     31 CB         22.4463  -23.4597  -41.9179 C.3       4 UNK        -0.1875 
     32 C          23.0400  -25.6036  -40.5896 C.2       4 UNK         0.4949 
     33 O          22.7292  -26.6834  -40.0858 O.2       4 UNK        -0.5039 
     34 N          24.2165  -24.9944  -40.3862 N.am      5 UNK        -0.4663 
     35 CA         25.2905  -25.4517  -39.4999 C.3       5 UNK         0.0242 
     36 CB         26.3891  -24.3769  -39.4565 C.3       5 UNK        -0.1982 
     37 C          25.8953  -26.8228  -39.8543 C.2       5 UNK         0.5017 
     38 O          26.5112  -27.4359  -38.9814 O.2       5 UNK        -0.5012 
     39 N          25.7095  -27.2939  -41.0978 N.am      6 UNK        -0.4439 
     40 CA         26.0980  -28.6443  -41.5188 C.3       6 UNK         0.0297 
     41 CB         26.0711  -28.7391  -43.0518 C.3       6 UNK        -0.2006 
     42 C          25.2154  -29.7435  -40.8967 C.2       6 UNK         0.4892 
     43 O          25.6840  -30.8746  -40.7622 O.2       6 UNK        -0.5089 
     44 N          23.9751  -29.3882  -40.5219 N.am      7 UNK        -0.4243 
     45 CA         22.9263  -30.2092  -39.9093 C.3       7 UNK         0.0196 
     46 CB         23.3381  -30.7017  -38.5071 C.3       7 UNK        -0.2007 
     47 C          22.4375  -31.3582  -40.8044 C.2       7 UNK         0.5020 
     48 O          21.2994  -31.3135  -41.2649 O.2       7 UNK        -0.5147 
     49 N          23.2904  -32.3696  -41.0110 N.am      8 UNK        -0.4734 
     50 CA         23.1209  -33.6093  -41.7864 C.3       8 UNK         0.0238 
     51 CB         22.9477  -33.3078  -43.2860 C.3       8 UNK        -0.1912 
     52 C          22.0266  -34.5726  -41.2824 C.2       8 UNK         0.5038 
     53 O          22.2676  -35.7803  -41.2600 O.2       8 UNK        -0.5046 
     54 N          20.8651  -34.0446  -40.8798 N.am      9 UNK        -0.4200 
     55 CA         19.7342  -34.8014  -40.3143 C.3       9 UNK         0.0839 
     56 C          19.9558  -35.2986  -38.8553 C.2       9 UNK         0.5513 
     57 N          20.9983  -34.8711  -38.1522 N.am      9 UNK        -0.7519 
     58 O          19.1663  -36.0945  -38.3530 O.2       9 UNK        -0.4960 
     59 C59        18.3916  -34.0302  -40.4345 C.3       10 UNK        -0.0876 
     60 S60        17.9752  -33.6003  -42.1593 S.3       10 UNK        -0.2414 
     61 C61        17.9340  -31.7838  -42.0741 C.3       10 UNK         0.0169 
     62 H62        19.6430  -28.9239  -42.6716 H         1 UNK         0.0903 
     63 H63        20.2897  -27.8886  -41.4104 H         1 UNK         0.0903 
     64 H64        18.8753  -28.8877  -41.0832 H         1 UNK         0.0903 
     65 H65        17.5644  -28.3183  -43.7167 H         1 UNK         0.3096 
     66 H66        16.1158  -26.0163  -42.9145 H         1 UNK         0.1121 
     67 H67        15.0370  -27.8893  -44.0987 H         1 UNK         0.0849 
     68 H68        14.7044  -26.3515  -44.8214 H         1 UNK         0.0849 
     69 H69        14.9889  -29.7786  -45.6345 H         1 UNK         0.0865 
     70 H70        15.8806  -29.9484  -47.1214 H         1 UNK         0.0865 
     71 H71        16.0081  -30.6312  -43.6409 H         1 UNK         0.1346 
     72 H72        20.1765  -31.5849  -43.5590 H         1 UNK         0.1412 
     73 H73        18.5024  -29.6456  -46.9948 H         1 UNK         0.1426 
     74 H74        20.7698  -31.2602  -46.9319 H         1 UNK         0.0716 
     75 H75        21.5976  -31.1598  -45.3999 H         1 UNK         0.0716 
     76 H76        21.4083  -28.6914  -44.0998 H         1 UNK         0.0695 
     77 H77        23.0532  -28.7451  -44.6821 H         1 UNK         0.0695 
     78 H78        22.8096  -26.4925  -45.7091 H         1 UNK         0.0983 
     79 H79        20.0203  -26.8507  -45.1989 H         1 UNK         0.3095 
     80 H80        18.9689  -23.5824  -45.7035 H         1 UNK         0.0454 
     81 H81        19.0681  -25.6079  -48.0103 H         1 UNK         0.0851 
     82 H82        17.8825  -24.3151  -47.8354 H         1 UNK         0.0851 
     83 H83        19.5753  -23.9259  -48.0913 H         1 UNK         0.0851 
     84 H84        18.2140  -26.4847  -45.7330 H         1 UNK         0.2976 
     85 H85        20.8000  -25.7468  -42.9969 H         1 UNK         0.3116 
     86 H86        21.1019  -24.8485  -40.9905 H         1 UNK         0.0646 
     87 H87        22.6003  -22.8403  -41.0332 H         1 UNK         0.0847 
     88 H88        21.6602  -22.9820  -42.5029 H         1 UNK         0.0847 
     89 H89        23.3579  -23.4290  -42.5160 H         1 UNK         0.0847 
     90 H90        24.3842  -24.1285  -40.8779 H         1 UNK         0.3040 
     91 H91        24.8648  -25.5474  -38.4986 H         1 UNK         0.1015 
     92 H92        25.9986  -23.4216  -39.1052 H         1 UNK         0.0786 
     93 H93        26.8364  -24.2180  -40.4387 H         1 UNK         0.0786 
     94 H94        27.1920  -24.6644  -38.7759 H         1 UNK         0.0786 
     95 H95        25.1852  -26.7345  -41.7634 H         1 UNK         0.3172 
     96 H96        27.1244  -28.8202  -41.1897 H         1 UNK         0.0595 
     97 H97        26.4318  -29.7125  -43.3875 H         1 UNK         0.0839 
     98 H98        26.7070  -27.9815  -43.5102 H         1 UNK         0.0839 
     99 H99        25.0632  -28.6143  -43.4454 H         1 UNK         0.0839 
    100 H100       23.7117  -28.4168  -40.6523 H         1 UNK         0.2998 
    101 H101       22.0747  -29.5394  -39.7760 H         1 UNK         0.0822 
    102 H102       23.5606  -29.8621  -37.8483 H         1 UNK         0.0787 
    103 H103       22.5322  -31.2718  -38.0428 H         1 UNK         0.0787 
    104 H104       24.2183  -31.3444  -38.5322 H         1 UNK         0.0787 
    105 H105       24.2227  -32.2282  -40.6320 H         1 UNK         0.3055 
    106 H106       24.0655  -34.1448  -41.6753 H         1 UNK         0.1106 
    107 H107       22.0129  -32.7912  -43.4896 H         1 UNK         0.0828 
    108 H108       23.7623  -32.6896  -43.6634 H         1 UNK         0.0828 
    109 H109       22.9408  -34.2290  -43.8701 H         1 UNK         0.0828 
    110 H110       20.7580  -33.0362  -40.9546 H         1 UNK         0.2931 
    111 H111       19.6315  -35.7073  -40.9151 H         1 UNK         0.0412 
    112 H112       21.1298  -35.2055  -37.2102 H         1 UNK         0.3472 
    113 H113       21.6564  -34.2249  -38.5564 H         1 UNK         0.3472 
    114 H114       17.5695  -34.6357  -40.0478 H         1 UNK         0.0970 
    115 H115       18.4142  -33.1306  -39.8169 H         1 UNK         0.0970 
    116 H116       17.0018  -31.4681  -41.6034 H         1 UNK         0.0612 
    117 H117       18.7389  -31.4225  -41.4353 H         1 UNK         0.0612 
@<TRIPOS>BOND
     1    1    2 1    
     2    1   62 1    
     3    1   63 1    
     4    1   64 1    
     5    2    3 2    
     6    2    4 am   BACKBONE|DICT|INTERRES
     7    4    5 1    
     8    4   65 1    
     9    5    6 1    
    10    5   25 1    
    11    5   66 1    
    12    6    7 1    
    13    6   67 1    
    14    6   68 1    
    15    7    8 1    
    16    8    9 1    
    17    8   69 1    
    18    8   70 1    
    19    9   10 ar   
    20    9   14 ar   
    21   10   11 ar   
    22   10   71 1    
    23   11   12 ar   
    24   11   61 1    
    25   12   13 ar   
    26   12   72 1    
    27   13   14 ar   
    28   13   15 1    
    29   14   73 1    
    30   15   16 1    
    31   15   74 1    
    32   15   75 1    
    33   16   17 1    
    34   17   18 1    
    35   17   76 1    
    36   17   77 1    
    37   18   19 1    
    38   18   27 1    
    39   18   78 1    
    40   19   20 am   BACKBONE|DICT|INTERRES
    41   19   79 1    
    42   20   21 2    
    43   20   22 1    
    44   22   23 1    
    45   22   24 1    
    46   22   80 1    
    47   23   81 1    
    48   23   82 1    
    49   23   83 1    
    50   24   25 am   BACKBONE|DICT|INTERRES
    51   24   84 1    
    52   25   26 2    
    53   27   28 2    
    54   27   29 am   BACKBONE|DICT|INTERRES
    55   29   30 1    
    56   29   85 1    
    57   30   31 1    
    58   30   32 1    
    59   30   86 1    
    60   31   87 1    
    61   31   88 1    
    62   31   89 1    
    63   32   33 2    
    64   32   34 am   BACKBONE|DICT|INTERRES
    65   34   35 1    
    66   34   90 1    
    67   35   36 1    
    68   35   37 1    
    69   35   91 1    
    70   36   92 1    
    71   36   93 1    
    72   36   94 1    
    73   37   38 2    
    74   37   39 am   BACKBONE|DICT|INTERRES
    75   39   40 1    
    76   39   95 1    
    77   40   41 1    
    78   40   42 1    
    79   40   96 1    
    80   41   97 1    
    81   41   98 1    
    82   41   99 1    
    83   42   43 2    
    84   42   44 am   BACKBONE|DICT|INTERRES
    85   44   45 1    
    86   44  100 1    
    87   45   46 1    
    88   45   47 1    
    89   45  101 1    
    90   46  102 1    
    91   46  103 1    
    92   46  104 1    
    93   47   48 2    
    94   47   49 am   BACKBONE|DICT|INTERRES
    95   49   50 1    
    96   49  105 1    
    97   50   51 1    
    98   50   52 1    
    99   50  106 1    
   100   51  107 1    
   101   51  108 1    
   102   51  109 1    
   103   52   53 2    
   104   52   54 am   BACKBONE|DICT|INTERRES
   105   54   55 1    
   106   54  110 1    
   107   55   56 1    
   108   55   59 1    
   109   55  111 1    
   110   56   57 am   BACKBONE|DICT|INTERRES
   111   56   58 2    
   112   57  112 1    
   113   57  113 1    
   114   59   60 1    
   115   59  114 1    
   116   59  115 1    
   117   60   61 1    
   118   61  116 1    
   119   61  117 1    
@<TRIPOS>SUBSTRUCTURE
     1 UNK         1 GROUP             0       ****    0 ROOT    
