@<TRIPOS>MOLECULE
3R8
117   119    1
SMALL
USER_CHARGES


@<TRIPOS>ATOM
      1 CA         22.1968  -22.7588  -48.6601 C.3       0 UNK        -0.2013 
      2 C          22.1493  -23.7496  -47.5064 C.2       0 UNK         0.4866 
      3 O          22.8214  -23.5432  -46.4958 O.2       0 UNK        -0.5176 
      4 N          21.3662  -24.8260  -47.6532 N.am      1 UNK        -0.4884 
      5 CA         21.1457  -25.8463  -46.6234 C.3       1 UNK         0.0853 
      6 C6         20.5173  -27.1227  -47.2401 C.3       10 UNK        -0.0849 
      7 S7         20.8086  -28.6032  -46.2181 S.3       10 UNK        -0.2776 
      8 C8         19.4990  -29.7299  -46.7940 C.3       10 UNK         0.0316 
      9 C9         18.7023  -30.2808  -45.6215 C.ar      10 UNK        -0.0863 
     10 C10        19.1776  -31.3830  -44.9050 C.ar      10 UNK        -0.1009 
     11 C11        18.4611  -31.8840  -43.8138 C.ar      10 UNK        -0.0712 
     12 C12        17.2476  -31.2898  -43.4559 C.ar      10 UNK        -0.0894 
     13 C13        16.7582  -30.1922  -44.1702 C.ar      10 UNK        -0.0745 
     14 C14        17.4904  -29.6910  -45.2512 C.ar      10 UNK        -0.0972 
     15 C15        15.4379  -29.5469  -43.7776 C.3       10 UNK         0.0209 
     16 S16        15.6813  -27.8993  -43.0449 S.3       10 UNK        -0.2568 
     17 C17        16.4827  -28.2997  -41.4529 C.3       10 UNK        -0.0983 
     18 CA         18.0289  -28.1723  -41.4854 C.3       3 UNK         0.0876 
     19 N          18.4631  -26.9002  -42.0716 N.am      3 UNK        -0.4424 
     20 C          19.7199  -26.4581  -42.1961 C.2       2 UNK         0.4918 
     21 O          20.7114  -27.0139  -41.7213 O.2       2 UNK        -0.4875 
     22 CA         19.9027  -25.1893  -43.0306 C.3       2 UNK         0.0481 
     23 CB         20.6568  -24.0998  -42.2520 C.3       2 UNK        -0.1831 
     24 N          20.6525  -25.5539  -44.2303 N.am      2 UNK        -0.4498 
     25 C          20.2740  -25.2771  -45.4829 C.2       1 UNK         0.5027 
     26 O          19.2702  -24.6172  -45.7681 O.2       1 UNK        -0.4969 
     27 C          18.6185  -28.4057  -40.0790 C.2       3 UNK         0.5005 
     28 O          18.3474  -27.6171  -39.1702 O.2       3 UNK        -0.5279 
     29 N          19.4217  -29.4711  -39.9431 N.am      4 UNK        -0.4463 
     30 CA         20.1415  -29.9028  -38.7369 C.3       4 UNK         0.0283 
     31 CB         19.1525  -30.3547  -37.6422 C.3       4 UNK        -0.1875 
     32 C          21.1922  -28.9002  -38.2094 C.2       4 UNK         0.4949 
     33 O          21.6040  -29.0151  -37.0538 O.2       4 UNK        -0.5039 
     34 N          21.6272  -27.9564  -39.0529 N.am      5 UNK        -0.4663 
     35 CA         22.6734  -26.9796  -38.7651 C.3       5 UNK         0.0242 
     36 CB         22.0471  -25.5723  -38.6812 C.3       5 UNK        -0.1982 
     37 C          23.7460  -27.1297  -39.8501 C.2       5 UNK         0.5017 
     38 O          24.5646  -28.0459  -39.7606 O.2       5 UNK        -0.5012 
     39 N          23.7055  -26.2698  -40.8755 N.am      6 UNK        -0.4439 
     40 CA         24.4975  -26.3885  -42.0999 C.3       6 UNK         0.0297 
     41 CB         24.6707  -24.9961  -42.7358 C.3       6 UNK        -0.2006 
     42 C          23.8132  -27.3895  -43.0462 C.2       6 UNK         0.4892 
     43 O          23.1853  -26.9834  -44.0251 O.2       6 UNK        -0.5089 
     44 N          23.9045  -28.6745  -42.6949 N.am      7 UNK        -0.4243 
     45 CA         23.2613  -29.7964  -43.3658 C.3       7 UNK         0.0196 
     46 CB         21.7904  -29.8830  -42.9236 C.3       7 UNK        -0.2007 
     47 C          23.9947  -31.0850  -42.9894 C.2       7 UNK         0.5020 
     48 O          24.6616  -31.1300  -41.9529 O.2       7 UNK        -0.5147 
     49 N          23.8058  -32.1358  -43.7986 N.am      8 UNK        -0.4734 
     50 CA         24.3367  -33.4840  -43.5500 C.3       8 UNK         0.0238 
     51 CB         24.0707  -34.3689  -44.7788 C.3       8 UNK        -0.1912 
     52 C          23.7716  -34.1457  -42.2779 C.2       8 UNK         0.5038 
     53 O          24.4548  -34.9704  -41.6702 O.2       8 UNK        -0.5046 
     54 N          22.5498  -33.7544  -41.8967 N.am      9 UNK        -0.4200 
     55 CA         21.8937  -34.1047  -40.6304 C.3       9 UNK         0.0839 
     56 C          22.3842  -33.2849  -39.3987 C.2       9 UNK         0.5513 
     57 N          23.2661  -32.3019  -39.5450 N.am      9 UNK        -0.7519 
     58 O          21.9625  -33.5580  -38.2782 O.2       9 UNK        -0.4960 
     59 C59        20.3471  -34.0933  -40.7725 C.3       10 UNK        -0.0876 
     60 S60        19.6777  -32.5218  -41.4233 S.3       10 UNK        -0.2414 
     61 C61        18.9950  -33.0648  -43.0189 C.3       10 UNK         0.0169 
     62 H62        21.5659  -23.0698  -49.4926 H         1 UNK         0.0903 
     63 H63        21.8582  -21.7783  -48.3261 H         1 UNK         0.0903 
     64 H64        23.2179  -22.6596  -49.0276 H         1 UNK         0.0903 
     65 H65        20.8110  -24.9223  -48.4916 H         1 UNK         0.3096 
     66 H66        22.1271  -26.1034  -46.2188 H         1 UNK         0.1121 
     67 H67        19.4482  -26.9862  -47.4161 H         1 UNK         0.0849 
     68 H68        20.9601  -27.3259  -48.2166 H         1 UNK         0.0849 
     69 H69        18.8333  -29.2269  -47.4965 H         1 UNK         0.0865 
     70 H70        19.9564  -30.5493  -47.3504 H         1 UNK         0.0865 
     71 H71        20.1154  -31.8396  -45.1900 H         1 UNK         0.1346 
     72 H72        16.6916  -31.6788  -42.6137 H         1 UNK         0.1412 
     73 H73        17.1174  -28.8355  -45.7981 H         1 UNK         0.1426 
     74 H74        14.8819  -30.1770  -43.0816 H         1 UNK         0.0716 
     75 H75        14.8118  -29.4475  -44.6654 H         1 UNK         0.0716 
     76 H76        16.1895  -29.3051  -41.1451 H         1 UNK         0.0695 
     77 H77        16.0616  -27.6228  -40.7067 H         1 UNK         0.0695 
     78 H78        18.4139  -28.9492  -42.1489 H         1 UNK         0.0983 
     79 H79        17.7224  -26.3652  -42.5007 H         1 UNK         0.3095 
     80 H80        18.9173  -24.7977  -43.2918 H         1 UNK         0.0454 
     81 H81        21.6484  -24.4296  -41.9485 H         1 UNK         0.0851 
     82 H82        20.1134  -23.8203  -41.3486 H         1 UNK         0.0851 
     83 H83        20.7756  -23.1979  -42.8525 H         1 UNK         0.0851 
     84 H84        21.4738  -26.1399  -44.0811 H         1 UNK         0.2976 
     85 H85        19.5723  -30.0588  -40.7529 H         1 UNK         0.3116 
     86 H86        20.7108  -30.7825  -39.0373 H         1 UNK         0.0646 
     87 H87        18.5854  -29.5161  -37.2376 H         1 UNK         0.0847 
     88 H88        19.6773  -30.8242  -36.8094 H         1 UNK         0.0847 
     89 H89        18.4436  -31.0876  -38.0272 H         1 UNK         0.0847 
     90 H90        21.2439  -27.9198  -39.9934 H         1 UNK         0.3040 
     91 H91        23.1611  -27.1953  -37.8119 H         1 UNK         0.1015 
     92 H92        21.4462  -25.3324  -39.5583 H         1 UNK         0.0786 
     93 H93        22.8128  -24.8026  -38.5733 H         1 UNK         0.0786 
     94 H94        21.3923  -25.4954  -37.8130 H         1 UNK         0.0786 
     95 H95        22.9493  -25.6026  -40.8934 H         1 UNK         0.3172 
     96 H96        25.4916  -26.7709  -41.8579 H         1 UNK         0.0595 
     97 H97        23.7195  -24.5575  -43.0378 H         1 UNK         0.0839 
     98 H98        25.2922  -25.0564  -43.6301 H         1 UNK         0.0839 
     99 H99        25.1578  -24.3032  -42.0496 H         1 UNK         0.0839 
    100 H100       24.4310  -28.9269  -41.8642 H         1 UNK         0.2998 
    101 H101       23.3208  -29.6585  -44.4477 H         1 UNK         0.0822 
    102 H102       21.2155  -29.0344  -43.2913 H         1 UNK         0.0787 
    103 H103       21.3150  -30.7807  -43.3126 H         1 UNK         0.0787 
    104 H104       21.6993  -29.9069  -41.8373 H         1 UNK         0.0787 
    105 H105       23.2477  -32.0149  -44.6322 H         1 UNK         0.3055 
    106 H106       25.4172  -33.3977  -43.4138 H         1 UNK         0.1106 
    107 H107       24.4763  -35.3711  -44.6326 H         1 UNK         0.0828 
    108 H108       23.0036  -34.4759  -44.9779 H         1 UNK         0.0828 
    109 H109       24.5414  -33.9598  -45.6730 H         1 UNK         0.0828 
    110 H110       22.0743  -33.0605  -42.4527 H         1 UNK         0.2931 
    111 H111       22.1700  -35.1361  -40.4032 H         1 UNK         0.0412 
    112 H112       23.6564  -32.0653  -40.4495 H         1 UNK         0.3472 
    113 H113       23.5729  -31.7994  -38.7279 H         1 UNK         0.3472 
    114 H114       20.0436  -34.9114  -41.4273 H         1 UNK         0.0970 
    115 H115       19.8665  -34.3046  -39.8153 H         1 UNK         0.0970 
    116 H116       19.7674  -33.5889  -43.5841 H         1 UNK         0.0612 
    117 H117       18.1927  -33.7833  -42.8445 H         1 UNK         0.0612 
@<TRIPOS>BOND
     1    1    2 1    
     2    1   62 1    
     3    1   63 1    
     4    1   64 1    
     5    2    3 2    
     6    2    4 am   BACKBONE|DICT|INTERRES
     7    4    5 1    
     8    4   65 1    
     9    5    6 1    
    10    5   25 1    
    11    5   66 1    
    12    6    7 1    
    13    6   67 1    
    14    6   68 1    
    15    7    8 1    
    16    8    9 1    
    17    8   69 1    
    18    8   70 1    
    19    9   10 ar   
    20    9   14 ar   
    21   10   11 ar   
    22   10   71 1    
    23   11   12 ar   
    24   11   61 1    
    25   12   13 ar   
    26   12   72 1    
    27   13   14 ar   
    28   13   15 1    
    29   14   73 1    
    30   15   16 1    
    31   15   74 1    
    32   15   75 1    
    33   16   17 1    
    34   17   18 1    
    35   17   76 1    
    36   17   77 1    
    37   18   19 1    
    38   18   27 1    
    39   18   78 1    
    40   19   20 am   BACKBONE|DICT|INTERRES
    41   19   79 1    
    42   20   21 2    
    43   20   22 1    
    44   22   23 1    
    45   22   24 1    
    46   22   80 1    
    47   23   81 1    
    48   23   82 1    
    49   23   83 1    
    50   24   25 am   BACKBONE|DICT|INTERRES
    51   24   84 1    
    52   25   26 2    
    53   27   28 2    
    54   27   29 am   BACKBONE|DICT|INTERRES
    55   29   30 1    
    56   29   85 1    
    57   30   31 1    
    58   30   32 1    
    59   30   86 1    
    60   31   87 1    
    61   31   88 1    
    62   31   89 1    
    63   32   33 2    
    64   32   34 am   BACKBONE|DICT|INTERRES
    65   34   35 1    
    66   34   90 1    
    67   35   36 1    
    68   35   37 1    
    69   35   91 1    
    70   36   92 1    
    71   36   93 1    
    72   36   94 1    
    73   37   38 2    
    74   37   39 am   BACKBONE|DICT|INTERRES
    75   39   40 1    
    76   39   95 1    
    77   40   41 1    
    78   40   42 1    
    79   40   96 1    
    80   41   97 1    
    81   41   98 1    
    82   41   99 1    
    83   42   43 2    
    84   42   44 am   BACKBONE|DICT|INTERRES
    85   44   45 1    
    86   44  100 1    
    87   45   46 1    
    88   45   47 1    
    89   45  101 1    
    90   46  102 1    
    91   46  103 1    
    92   46  104 1    
    93   47   48 2    
    94   47   49 am   BACKBONE|DICT|INTERRES
    95   49   50 1    
    96   49  105 1    
    97   50   51 1    
    98   50   52 1    
    99   50  106 1    
   100   51  107 1    
   101   51  108 1    
   102   51  109 1    
   103   52   53 2    
   104   52   54 am   BACKBONE|DICT|INTERRES
   105   54   55 1    
   106   54  110 1    
   107   55   56 1    
   108   55   59 1    
   109   55  111 1    
   110   56   57 am   BACKBONE|DICT|INTERRES
   111   56   58 2    
   112   57  112 1    
   113   57  113 1    
   114   59   60 1    
   115   59  114 1    
   116   59  115 1    
   117   60   61 1    
   118   61  116 1    
   119   61  117 1    
@<TRIPOS>SUBSTRUCTURE
     1 UNK         1 GROUP             0       ****    0 ROOT    
