@<TRIPOS>MOLECULE
3R8
117   119    1
SMALL
USER_CHARGES


@<TRIPOS>ATOM
      1 CA         13.1641  -21.8266  -44.4327 C.3       0 UNK        -0.2013 
      2 C          14.2386  -22.6736  -45.0981 C.2       0 UNK         0.4866 
      3 O          14.6994  -22.3326  -46.1881 O.2       0 UNK        -0.5176 
      4 N          14.6363  -23.7794  -44.4560 N.am      1 UNK        -0.4884 
      5 CA         15.7068  -24.6705  -44.9148 C.3       1 UNK         0.0853 
      6 C6         15.6295  -26.0445  -44.2005 C.3       10 UNK        -0.0849 
      7 S7         16.3425  -27.4005  -45.1927 S.3       10 UNK        -0.2776 
      8 C8         16.0740  -28.8357  -44.0950 C.3       10 UNK         0.0316 
      9 C9         17.3152  -29.1343  -43.2668 C.ar      10 UNK        -0.0863 
     10 C10        18.1852  -30.1647  -43.6390 C.ar      10 UNK        -0.1009 
     11 C11        19.3672  -30.3891  -42.9248 C.ar      10 UNK        -0.0712 
     12 C12        19.6805  -29.5720  -41.8352 C.ar      10 UNK        -0.0894 
     13 C13        18.8219  -28.5327  -41.4635 C.ar      10 UNK        -0.0745 
     14 C14        17.6229  -28.3466  -42.1557 C.ar      10 UNK        -0.0972 
     15 C15        19.2342  -27.5275  -40.4015 C.3       10 UNK         0.0209 
     16 S16        19.6070  -25.9106  -41.1655 S.3       10 UNK        -0.2568 
     17 C17        21.0265  -26.3187  -42.2379 C.3       10 UNK        -0.0983 
     18 CA         20.6311  -26.7068  -43.6939 C.3       3 UNK         0.0876 
     19 N          19.9033  -25.6837  -44.4445 N.am      3 UNK        -0.4424 
     20 C          20.3060  -24.4494  -44.7689 C.2       2 UNK         0.4918 
     21 O          21.3854  -23.9641  -44.4272 O.2       2 UNK        -0.4875 
     22 CA         19.3522  -23.6205  -45.6512 C.3       2 UNK         0.0481 
     23 CB         19.8991  -23.5353  -47.0856 C.3       2 UNK        -0.1831 
     24 N          17.9824  -24.1499  -45.6927 N.am      2 UNK        -0.4498 
     25 C          17.0831  -24.0008  -44.7100 C.2       1 UNK         0.5027 
     26 O          17.3084  -23.3850  -43.6648 O.2       1 UNK        -0.4969 
     27 C          21.8329  -27.2581  -44.4798 C.2       3 UNK         0.5005 
     28 O          21.7684  -28.3896  -44.9636 O.2       3 UNK        -0.5279 
     29 N          22.9129  -26.4665  -44.5636 N.am      4 UNK        -0.4463 
     30 CA         24.2546  -26.7966  -45.0651 C.3       4 UNK         0.0283 
     31 CB         24.2393  -27.1594  -46.5639 C.3       4 UNK        -0.1875 
     32 C          24.9479  -27.8751  -44.2129 C.2       4 UNK         0.4949 
     33 O          25.9271  -27.5775  -43.5297 O.2       4 UNK        -0.5039 
     34 N          24.3888  -29.0896  -44.2093 N.am      5 UNK        -0.4663 
     35 CA         24.7791  -30.2197  -43.3657 C.3       5 UNK         0.0242 
     36 CB         24.4920  -31.5238  -44.1344 C.3       5 UNK        -0.1982 
     37 C          24.0550  -30.1530  -42.0067 C.2       5 UNK         0.5017 
     38 O          23.4003  -31.1188  -41.6068 O.2       5 UNK        -0.5012 
     39 N          24.1676  -28.9995  -41.3320 N.am      6 UNK        -0.4439 
     40 CA         23.5319  -28.6720  -40.0531 C.3       6 UNK         0.0297 
     41 CB         23.9125  -27.2380  -39.6482 C.3       6 UNK        -0.2006 
     42 C          23.8932  -29.6799  -38.9501 C.2       6 UNK         0.4892 
     43 O          25.0451  -29.7163  -38.5146 O.2       6 UNK        -0.5089 
     44 N          22.9036  -30.5029  -38.5723 N.am      7 UNK        -0.4243 
     45 CA         22.9764  -31.6347  -37.6369 C.3       7 UNK         0.0196 
     46 CB         23.3624  -31.1604  -36.2194 C.3       7 UNK        -0.2007 
     47 C          23.8567  -32.8096  -38.1169 C.2       7 UNK         0.5020 
     48 O          24.0912  -33.7347  -37.3383 O.2       7 UNK        -0.5147 
     49 N          24.3090  -32.7808  -39.3776 N.am      8 UNK        -0.4734 
     50 CA         25.1359  -33.8193  -39.9954 C.3       8 UNK         0.0238 
     51 CB         26.3021  -33.1583  -40.7482 C.3       8 UNK        -0.1912 
     52 C          24.3201  -34.7203  -40.9345 C.2       8 UNK         0.5038 
     53 O          24.7198  -35.8656  -41.1475 O.2       8 UNK        -0.5046 
     54 N          23.1975  -34.2133  -41.4663 N.am      9 UNK        -0.4200 
     55 CA         22.2551  -34.9782  -42.3000 C.3       9 UNK         0.0839 
     56 C          21.4023  -36.0389  -41.5405 C.2       9 UNK         0.5513 
     57 N          21.4032  -36.0717  -40.2129 N.am      9 UNK        -0.7519 
     58 O          20.7386  -36.8574  -42.1719 O.2       9 UNK        -0.4960 
     59 C59        21.3852  -34.0553  -43.1926 C.3       10 UNK        -0.0876 
     60 S60        20.3059  -32.9081  -42.2666 S.3       10 UNK        -0.2414 
     61 C61        20.3430  -31.4654  -43.3711 C.3       10 UNK         0.0169 
     62 H62        13.5425  -20.8225  -44.2429 H         1 UNK         0.0903 
     63 H63        12.2936  -21.7455  -45.0832 H         1 UNK         0.0903 
     64 H64        12.8389  -22.2513  -43.4831 H         1 UNK         0.0903 
     65 H65        14.2497  -23.9886  -43.5463 H         1 UNK         0.3096 
     66 H66        15.5517  -24.8263  -45.9854 H         1 UNK         0.1121 
     67 H67        14.5860  -26.3092  -44.0201 H         1 UNK         0.0849 
     68 H68        16.0996  -26.0039  -43.2174 H         1 UNK         0.0849 
     69 H69        15.2172  -28.6641  -43.4415 H         1 UNK         0.0865 
     70 H70        15.8155  -29.7001  -44.7085 H         1 UNK         0.0865 
     71 H71        17.9573  -30.7742  -44.5029 H         1 UNK         0.1346 
     72 H72        20.6163  -29.7208  -41.3157 H         1 UNK         0.1412 
     73 H73        16.9679  -27.5374  -41.8677 H         1 UNK         0.1426 
     74 H74        20.1012  -27.8767  -39.8392 H         1 UNK         0.0716 
     75 H75        18.4243  -27.4057  -39.6809 H         1 UNK         0.0716 
     76 H76        21.5810  -27.1328  -41.7707 H         1 UNK         0.0695 
     77 H77        21.6997  -25.4607  -42.2309 H         1 UNK         0.0695 
     78 H78        19.9301  -27.5361  -43.6418 H         1 UNK         0.0983 
     79 H79        19.0029  -25.9785  -44.7934 H         1 UNK         0.3095 
     80 H80        19.3226  -22.6091  -45.2403 H         1 UNK         0.0454 
     81 H81        19.9563  -24.5172  -47.5571 H         1 UNK         0.0851 
     82 H82        20.9044  -23.1114  -47.0958 H         1 UNK         0.0851 
     83 H83        19.2757  -22.8966  -47.7115 H         1 UNK         0.0851 
     84 H84        17.7215  -24.6679  -46.5205 H         1 UNK         0.2976 
     85 H85        22.8087  -25.5284  -44.1911 H         1 UNK         0.3116 
     86 H86        24.8442  -25.8844  -44.9599 H         1 UNK         0.0646 
     87 H87        23.6651  -28.0627  -46.7704 H         1 UNK         0.0847 
     88 H88        25.2520  -27.3315  -46.9303 H         1 UNK         0.0847 
     89 H89        23.8132  -26.3522  -47.1595 H         1 UNK         0.0847 
     90 H90        23.5051  -29.1787  -44.7055 H         1 UNK         0.3040 
     91 H91        25.8516  -30.1761  -43.1630 H         1 UNK         0.1015 
     92 H92        23.4433  -31.5981  -44.4205 H         1 UNK         0.0786 
     93 H93        24.7314  -32.4050  -43.5390 H         1 UNK         0.0786 
     94 H94        25.0877  -31.5809  -45.0455 H         1 UNK         0.0786 
     95 H95        24.7636  -28.2881  -41.7365 H         1 UNK         0.3172 
     96 H96        22.4529  -28.6985  -40.2079 H         1 UNK         0.0595 
     97 H97        24.9893  -27.1291  -39.5117 H         1 UNK         0.0839 
     98 H98        23.4359  -26.9600  -38.7072 H         1 UNK         0.0839 
     99 H99        23.5955  -26.5117  -40.3966 H         1 UNK         0.0839 
    100 H100       22.0113  -30.3981  -39.0347 H         1 UNK         0.2998 
    101 H101       21.9630  -32.0350  -37.5804 H         1 UNK         0.0822 
    102 H102       23.2581  -31.9682  -35.4939 H         1 UNK         0.0787 
    103 H103       24.3964  -30.8177  -36.1729 H         1 UNK         0.0787 
    104 H104       22.7222  -30.3440  -35.8854 H         1 UNK         0.0787 
    105 H105       24.0388  -32.0036  -39.9729 H         1 UNK         0.3055 
    106 H106       25.5634  -34.4662  -39.2257 H         1 UNK         0.1106 
    107 H107       26.9411  -33.9085  -41.2161 H         1 UNK         0.0828 
    108 H108       25.9545  -32.4901  -41.5340 H         1 UNK         0.0828 
    109 H109       26.9281  -32.5772  -40.0708 H         1 UNK         0.0828 
    110 H110       22.9477  -33.2506  -41.2781 H         1 UNK         0.2931 
    111 H111       22.8676  -35.5618  -42.9903 H         1 UNK         0.0412 
    112 H112       21.9453  -35.4058  -39.6868 H         1 UNK         0.3472 
    113 H113       20.8515  -36.7668  -39.7349 H         1 UNK         0.3472 
    114 H114       20.7610  -34.6490  -43.8631 H         1 UNK         0.0970 
    115 H115       22.0413  -33.4788  -43.8453 H         1 UNK         0.0970 
    116 H116       21.3503  -31.0496  -43.3950 H         1 UNK         0.0612 
    117 H117       20.1168  -31.7857  -44.3893 H         1 UNK         0.0612 
@<TRIPOS>BOND
     1    1    2 1    
     2    1   62 1    
     3    1   63 1    
     4    1   64 1    
     5    2    3 2    
     6    2    4 am   BACKBONE|DICT|INTERRES
     7    4    5 1    
     8    4   65 1    
     9    5    6 1    
    10    5   25 1    
    11    5   66 1    
    12    6    7 1    
    13    6   67 1    
    14    6   68 1    
    15    7    8 1    
    16    8    9 1    
    17    8   69 1    
    18    8   70 1    
    19    9   10 ar   
    20    9   14 ar   
    21   10   11 ar   
    22   10   71 1    
    23   11   12 ar   
    24   11   61 1    
    25   12   13 ar   
    26   12   72 1    
    27   13   14 ar   
    28   13   15 1    
    29   14   73 1    
    30   15   16 1    
    31   15   74 1    
    32   15   75 1    
    33   16   17 1    
    34   17   18 1    
    35   17   76 1    
    36   17   77 1    
    37   18   19 1    
    38   18   27 1    
    39   18   78 1    
    40   19   20 am   BACKBONE|DICT|INTERRES
    41   19   79 1    
    42   20   21 2    
    43   20   22 1    
    44   22   23 1    
    45   22   24 1    
    46   22   80 1    
    47   23   81 1    
    48   23   82 1    
    49   23   83 1    
    50   24   25 am   BACKBONE|DICT|INTERRES
    51   24   84 1    
    52   25   26 2    
    53   27   28 2    
    54   27   29 am   BACKBONE|DICT|INTERRES
    55   29   30 1    
    56   29   85 1    
    57   30   31 1    
    58   30   32 1    
    59   30   86 1    
    60   31   87 1    
    61   31   88 1    
    62   31   89 1    
    63   32   33 2    
    64   32   34 am   BACKBONE|DICT|INTERRES
    65   34   35 1    
    66   34   90 1    
    67   35   36 1    
    68   35   37 1    
    69   35   91 1    
    70   36   92 1    
    71   36   93 1    
    72   36   94 1    
    73   37   38 2    
    74   37   39 am   BACKBONE|DICT|INTERRES
    75   39   40 1    
    76   39   95 1    
    77   40   41 1    
    78   40   42 1    
    79   40   96 1    
    80   41   97 1    
    81   41   98 1    
    82   41   99 1    
    83   42   43 2    
    84   42   44 am   BACKBONE|DICT|INTERRES
    85   44   45 1    
    86   44  100 1    
    87   45   46 1    
    88   45   47 1    
    89   45  101 1    
    90   46  102 1    
    91   46  103 1    
    92   46  104 1    
    93   47   48 2    
    94   47   49 am   BACKBONE|DICT|INTERRES
    95   49   50 1    
    96   49  105 1    
    97   50   51 1    
    98   50   52 1    
    99   50  106 1    
   100   51  107 1    
   101   51  108 1    
   102   51  109 1    
   103   52   53 2    
   104   52   54 am   BACKBONE|DICT|INTERRES
   105   54   55 1    
   106   54  110 1    
   107   55   56 1    
   108   55   59 1    
   109   55  111 1    
   110   56   57 am   BACKBONE|DICT|INTERRES
   111   56   58 2    
   112   57  112 1    
   113   57  113 1    
   114   59   60 1    
   115   59  114 1    
   116   59  115 1    
   117   60   61 1    
   118   61  116 1    
   119   61  117 1    
@<TRIPOS>SUBSTRUCTURE
     1 UNK         1 GROUP             0       ****    0 ROOT    
