@<TRIPOS>MOLECULE
3R8
117   119    1
SMALL
USER_CHARGES


@<TRIPOS>ATOM
      1 CA         13.3034  -23.3434  -43.9075 C.3       0 UNK        -0.2013 
      2 C          14.3947  -23.9503  -44.7768 C.2       0 UNK         0.4866 
      3 O          14.4755  -23.6377  -45.9655 O.2       0 UNK        -0.5176 
      4 N          15.2283  -24.8225  -44.1970 N.am      1 UNK        -0.4884 
      5 CA         16.3626  -25.4703  -44.8652 C.3       1 UNK         0.0853 
      6 C6         16.9084  -26.6632  -44.0437 C.3       10 UNK        -0.0849 
      7 S7         15.6570  -27.9699  -43.7897 S.3       10 UNK        -0.2776 
      8 C8         16.3279  -29.3527  -44.7729 C.3       10 UNK         0.0316 
      9 C9         17.6705  -29.8356  -44.2397 C.ar      10 UNK        -0.0863 
     10 C10        17.7564  -30.4131  -42.9691 C.ar      10 UNK        -0.1009 
     11 C11        18.9912  -30.8224  -42.4599 C.ar      10 UNK        -0.0712 
     12 C12        20.1448  -30.6562  -43.2318 C.ar      10 UNK        -0.0894 
     13 C13        20.0719  -30.0980  -44.5110 C.ar      10 UNK        -0.0745 
     14 C14        18.8284  -29.6978  -45.0126 C.ar      10 UNK        -0.0972 
     15 C15        21.3375  -29.9540  -45.3498 C.3       10 UNK         0.0209 
     16 S16        21.5653  -28.2779  -46.0286 S.3       10 UNK        -0.2568 
     17 C17        21.8304  -27.3037  -44.5104 C.3       10 UNK        -0.0983 
     18 CA         21.9374  -25.7890  -44.8114 C.3       3 UNK         0.0876 
     19 N          20.7284  -25.2743  -45.4599 N.am      3 UNK        -0.4424 
     20 C          20.6114  -24.0732  -46.0413 C.2       2 UNK         0.4918 
     21 O          21.5223  -23.2453  -46.0883 O.2       2 UNK        -0.4875 
     22 CA         19.2689  -23.7433  -46.7220 C.3       2 UNK         0.0481 
     23 CB         19.4113  -23.8415  -48.2499 C.3       2 UNK        -0.1831 
     24 N          18.1595  -24.6017  -46.2921 N.am      2 UNK        -0.4498 
     25 C          17.4905  -24.4540  -45.1405 C.2       1 UNK         0.5027 
     26 O          17.7493  -23.5846  -44.3040 O.2       1 UNK        -0.4969 
     27 C          22.2622  -24.9941  -43.5305 C.2       3 UNK         0.5005 
     28 O          21.3714  -24.7663  -42.7083 O.2       3 UNK        -0.5279 
     29 N          23.5338  -24.5983  -43.3824 N.am      4 UNK        -0.4463 
     30 CA         24.0401  -23.8118  -42.2513 C.3       4 UNK         0.0283 
     31 CB         25.2843  -23.0316  -42.7095 C.3       4 UNK        -0.1875 
     32 C          24.3674  -24.6563  -41.0049 C.2       4 UNK         0.4949 
     33 O          24.6251  -24.0838  -39.9454 O.2       4 UNK        -0.5039 
     34 N          24.3709  -25.9856  -41.1446 N.am      5 UNK        -0.4663 
     35 CA         24.6351  -26.9584  -40.0887 C.3       5 UNK         0.0242 
     36 CB         26.1241  -27.3497  -40.1213 C.3       5 UNK        -0.1982 
     37 C          23.7341  -28.1804  -40.3044 C.2       5 UNK         0.5017 
     38 O          23.1439  -28.3223  -41.3787 O.2       5 UNK        -0.5012 
     39 N          23.6590  -29.0458  -39.2836 N.am      6 UNK        -0.4439 
     40 CA         22.8554  -30.2732  -39.2836 C.3       6 UNK         0.0297 
     41 CB         22.8751  -30.9015  -37.8808 C.3       6 UNK        -0.2006 
     42 C          23.2900  -31.3058  -40.3384 C.2       6 UNK         0.4892 
     43 O          22.4337  -32.0128  -40.8667 O.2       6 UNK        -0.5089 
     44 N          24.5977  -31.3645  -40.6342 N.am      7 UNK        -0.4243 
     45 CA         25.2310  -32.2339  -41.6315 C.3       7 UNK         0.0196 
     46 CB         24.8831  -31.7477  -43.0585 C.3       7 UNK        -0.2007 
     47 C          24.9121  -33.7218  -41.3807 C.2       7 UNK         0.5020 
     48 O          25.4666  -34.3062  -40.4494 O.2       7 UNK        -0.5147 
     49 N          24.0290  -34.3011  -42.2031 N.am      8 UNK        -0.4734 
     50 CA         23.5689  -35.6862  -42.0982 C.3       8 UNK         0.0238 
     51 CB         23.0398  -36.1357  -43.4707 C.3       8 UNK        -0.1912 
     52 C          22.4971  -35.9101  -41.0145 C.2       8 UNK         0.5038 
     53 O          22.2965  -37.0609  -40.6220 O.2       8 UNK        -0.5046 
     54 N          21.8091  -34.8479  -40.5713 N.am      9 UNK        -0.4200 
     55 CA         20.7471  -34.9184  -39.5549 C.3       9 UNK         0.0839 
     56 C          21.3087  -35.2274  -38.1413 C.2       9 UNK         0.5513 
     57 N          20.5869  -36.0028  -37.3439 N.am      9 UNK        -0.7519 
     58 O          22.3629  -34.7347  -37.7456 O.2       9 UNK        -0.4960 
     59 C59        19.8708  -33.6387  -39.5216 C.3       10 UNK        -0.0876 
     60 S60        19.1223  -33.2452  -41.1401 S.3       10 UNK        -0.2414 
     61 C61        19.0909  -31.4270  -41.0699 C.3       10 UNK         0.0169 
     62 H62        13.4097  -22.2594  -43.8747 H         1 UNK         0.0903 
     63 H63        12.3220  -23.5777  -44.3190 H         1 UNK         0.0903 
     64 H64        13.3404  -23.7188  -42.8849 H         1 UNK         0.0903 
     65 H65        15.1209  -25.0395  -43.2164 H         1 UNK         0.3096 
     66 H66        16.0056  -25.8502  -45.8254 H         1 UNK         0.1121 
     67 H67        17.2521  -26.3288  -43.0627 H         1 UNK         0.0849 
     68 H68        17.7843  -27.0916  -44.5326 H         1 UNK         0.0849 
     69 H69        15.6175  -30.1804  -44.7512 H         1 UNK         0.0865 
     70 H70        16.4066  -29.0451  -45.8169 H         1 UNK         0.0865 
     71 H71        16.8623  -30.5276  -42.3712 H         1 UNK         0.1346 
     72 H72        21.0998  -30.9708  -42.8338 H         1 UNK         0.1412 
     73 H73        18.7684  -29.2651  -46.0020 H         1 UNK         0.1426 
     74 H74        21.2894  -30.6632  -46.1769 H         1 UNK         0.0716 
     75 H75        22.2227  -30.2174  -44.7684 H         1 UNK         0.0716 
     76 H76        22.7427  -27.6677  -44.0340 H         1 UNK         0.0695 
     77 H77        21.0157  -27.5012  -43.8105 H         1 UNK         0.0695 
     78 H78        22.7595  -25.6461  -45.5166 H         1 UNK         0.0983 
     79 H79        19.9336  -25.8930  -45.4667 H         1 UNK         0.3095 
     80 H80        19.0236  -22.7082  -46.4743 H         1 UNK         0.0454 
     81 H81        20.2041  -23.1850  -48.6115 H         1 UNK         0.0851 
     82 H82        18.4928  -23.5426  -48.7552 H         1 UNK         0.0851 
     83 H83        19.6581  -24.8547  -48.5697 H         1 UNK         0.0851 
     84 H84        17.8861  -25.3358  -46.9306 H         1 UNK         0.2976 
     85 H85        24.2054  -24.8297  -44.1014 H         1 UNK         0.3116 
     86 H86        23.2772  -23.0869  -41.9589 H         1 UNK         0.0646 
     87 H87        25.6653  -22.3969  -41.9081 H         1 UNK         0.0847 
     88 H88        26.0941  -23.6990  -43.0071 H         1 UNK         0.0847 
     89 H89        25.0568  -22.3797  -43.5531 H         1 UNK         0.0847 
     90 H90        24.0604  -26.3897  -42.0184 H         1 UNK         0.3040 
     91 H91        24.3882  -26.5258  -39.1162 H         1 UNK         0.1015 
     92 H92        26.3677  -28.0553  -39.3263 H         1 UNK         0.0786 
     93 H93        26.7642  -26.4781  -39.9829 H         1 UNK         0.0786 
     94 H94        26.3967  -27.8161  -41.0691 H         1 UNK         0.0786 
     95 H95        24.1786  -28.8464  -38.4403 H         1 UNK         0.3172 
     96 H96        21.8270  -29.9876  -39.5122 H         1 UNK         0.0595 
     97 H97        22.4608  -30.2236  -37.1344 H         1 UNK         0.0839 
     98 H98        23.8860  -31.1688  -37.5705 H         1 UNK         0.0839 
     99 H99        22.2788  -31.8144  -37.8517 H         1 UNK         0.0839 
    100 H100       25.2215  -30.7626  -40.1166 H         1 UNK         0.2998 
    101 H101       26.3091  -32.1268  -41.5016 H         1 UNK         0.0822 
    102 H102       25.3583  -32.3730  -43.8157 H         1 UNK         0.0787 
    103 H103       23.8095  -31.7483  -43.2499 H         1 UNK         0.0787 
    104 H104       25.2378  -30.7291  -43.2176 H         1 UNK         0.0787 
    105 H105       23.5967  -33.7284  -42.9138 H         1 UNK         0.3055 
    106 H106       24.4227  -36.3169  -41.8391 H         1 UNK         0.1106 
    107 H107       23.8087  -36.0554  -44.2393 H         1 UNK         0.0828 
    108 H108       22.7200  -37.1784  -43.4440 H         1 UNK         0.0828 
    109 H109       22.1822  -35.5407  -43.7876 H         1 UNK         0.0828 
    110 H110       22.0563  -33.9158  -40.8917 H         1 UNK         0.2931 
    111 H111       20.0939  -35.7463  -39.8396 H         1 UNK         0.0412 
    112 H112       20.9258  -36.2019  -36.4152 H         1 UNK         0.3472 
    113 H113       19.7160  -36.4047  -37.6555 H         1 UNK         0.3472 
    114 H114       19.0600  -33.7512  -38.7994 H         1 UNK         0.0970 
    115 H115       20.4651  -32.7916  -39.1774 H         1 UNK         0.0970 
    116 H116       19.9909  -31.0501  -40.5861 H         1 UNK         0.0612 
    117 H117       18.2533  -31.1072  -40.4482 H         1 UNK         0.0612 
@<TRIPOS>BOND
     1    1    2 1    
     2    1   62 1    
     3    1   63 1    
     4    1   64 1    
     5    2    3 2    
     6    2    4 am   BACKBONE|DICT|INTERRES
     7    4    5 1    
     8    4   65 1    
     9    5    6 1    
    10    5   25 1    
    11    5   66 1    
    12    6    7 1    
    13    6   67 1    
    14    6   68 1    
    15    7    8 1    
    16    8    9 1    
    17    8   69 1    
    18    8   70 1    
    19    9   10 ar   
    20    9   14 ar   
    21   10   11 ar   
    22   10   71 1    
    23   11   12 ar   
    24   11   61 1    
    25   12   13 ar   
    26   12   72 1    
    27   13   14 ar   
    28   13   15 1    
    29   14   73 1    
    30   15   16 1    
    31   15   74 1    
    32   15   75 1    
    33   16   17 1    
    34   17   18 1    
    35   17   76 1    
    36   17   77 1    
    37   18   19 1    
    38   18   27 1    
    39   18   78 1    
    40   19   20 am   BACKBONE|DICT|INTERRES
    41   19   79 1    
    42   20   21 2    
    43   20   22 1    
    44   22   23 1    
    45   22   24 1    
    46   22   80 1    
    47   23   81 1    
    48   23   82 1    
    49   23   83 1    
    50   24   25 am   BACKBONE|DICT|INTERRES
    51   24   84 1    
    52   25   26 2    
    53   27   28 2    
    54   27   29 am   BACKBONE|DICT|INTERRES
    55   29   30 1    
    56   29   85 1    
    57   30   31 1    
    58   30   32 1    
    59   30   86 1    
    60   31   87 1    
    61   31   88 1    
    62   31   89 1    
    63   32   33 2    
    64   32   34 am   BACKBONE|DICT|INTERRES
    65   34   35 1    
    66   34   90 1    
    67   35   36 1    
    68   35   37 1    
    69   35   91 1    
    70   36   92 1    
    71   36   93 1    
    72   36   94 1    
    73   37   38 2    
    74   37   39 am   BACKBONE|DICT|INTERRES
    75   39   40 1    
    76   39   95 1    
    77   40   41 1    
    78   40   42 1    
    79   40   96 1    
    80   41   97 1    
    81   41   98 1    
    82   41   99 1    
    83   42   43 2    
    84   42   44 am   BACKBONE|DICT|INTERRES
    85   44   45 1    
    86   44  100 1    
    87   45   46 1    
    88   45   47 1    
    89   45  101 1    
    90   46  102 1    
    91   46  103 1    
    92   46  104 1    
    93   47   48 2    
    94   47   49 am   BACKBONE|DICT|INTERRES
    95   49   50 1    
    96   49  105 1    
    97   50   51 1    
    98   50   52 1    
    99   50  106 1    
   100   51  107 1    
   101   51  108 1    
   102   51  109 1    
   103   52   53 2    
   104   52   54 am   BACKBONE|DICT|INTERRES
   105   54   55 1    
   106   54  110 1    
   107   55   56 1    
   108   55   59 1    
   109   55  111 1    
   110   56   57 am   BACKBONE|DICT|INTERRES
   111   56   58 2    
   112   57  112 1    
   113   57  113 1    
   114   59   60 1    
   115   59  114 1    
   116   59  115 1    
   117   60   61 1    
   118   61  116 1    
   119   61  117 1    
@<TRIPOS>SUBSTRUCTURE
     1 UNK         1 GROUP             0       ****    0 ROOT    
