@<TRIPOS>MOLECULE
3R8
117   119    1
SMALL
USER_CHARGES


@<TRIPOS>ATOM
      1 CA         12.6431  -22.6755  -43.5239 C.3       0 UNK        -0.2013 
      2 C          13.5832  -23.5750  -44.3126 C.2       0 UNK         0.4866 
      3 O          13.2274  -24.0304  -45.3998 O.2       0 UNK        -0.5176 
      4 N          14.7792  -23.8339  -43.7757 N.am      1 UNK        -0.4884 
      5 CA         15.8271  -24.6472  -44.3883 C.3       1 UNK         0.0853 
      6 C6         15.6049  -26.1573  -44.1227 C.3       10 UNK        -0.0849 
      7 S7         16.5245  -27.2338  -45.2736 S.3       10 UNK        -0.2776 
      8 C8         16.1464  -28.8829  -44.5885 C.3       10 UNK         0.0316 
      9 C9         17.2757  -29.3904  -43.7030 C.ar      10 UNK        -0.0863 
     10 C10        18.1440  -30.3864  -44.1649 C.ar      10 UNK        -0.1009 
     11 C11        19.2104  -30.8205  -43.3708 C.ar      10 UNK        -0.0712 
     12 C12        19.4117  -30.2470  -42.1126 C.ar      10 UNK        -0.0894 
     13 C13        18.5575  -29.2448  -41.6483 C.ar      10 UNK        -0.0745 
     14 C14        17.4733  -28.8445  -42.4316 C.ar      10 UNK        -0.0972 
     15 C15        18.8573  -28.5287  -40.3439 C.3       10 UNK         0.0209 
     16 S16        19.5147  -26.8541  -40.6518 S.3       10 UNK        -0.2568 
     17 C17        21.0098  -27.1775  -41.6565 C.3       10 UNK        -0.0983 
     18 CA         20.7524  -27.1505  -43.1920 C.3       3 UNK         0.0876 
     19 N          20.0479  -25.9595  -43.6917 N.am      3 UNK        -0.4424 
     20 C          20.4185  -24.6752  -43.6022 C.2       2 UNK         0.4918 
     21 O          21.4359  -24.2948  -43.0210 O.2       2 UNK        -0.4875 
     22 CA         19.5485  -23.6394  -44.3363 C.3       2 UNK         0.0481 
     23 CB         20.2554  -23.1821  -45.6233 C.3       2 UNK        -0.1831 
     24 N          18.2094  -24.1316  -44.6795 N.am      2 UNK        -0.4498 
     25 C          17.1705  -24.1423  -43.8342 C.2       1 UNK         0.5027 
     26 O          17.2347  -23.7623  -42.6614 O.2       1 UNK        -0.4969 
     27 C          22.0315  -27.4629  -43.9987 C.2       3 UNK         0.5005 
     28 O          22.1762  -28.5817  -44.4943 O.2       3 UNK        -0.5279 
     29 N          22.9001  -26.4546  -44.1618 N.am      4 UNK        -0.4463 
     30 CA         24.0930  -26.3670  -45.0134 C.3       4 UNK         0.0283 
     31 CB         23.7152  -26.4662  -46.5045 C.3       4 UNK        -0.1875 
     32 C          25.2316  -27.3401  -44.6629 C.2       4 UNK         0.4949 
     33 O          26.3449  -26.8871  -44.3965 O.2       4 UNK        -0.5039 
     34 N          24.9506  -28.6471  -44.6980 N.am      5 UNK        -0.4663 
     35 CA         25.9147  -29.7182  -44.4413 C.3       5 UNK         0.0242 
     36 CB         25.3597  -31.0490  -44.9782 C.3       5 UNK        -0.1982 
     37 C          26.2658  -29.8246  -42.9510 C.2       5 UNK         0.5017 
     38 O          27.4443  -29.7904  -42.5963 O.2       5 UNK        -0.5012 
     39 N          25.2251  -29.9336  -42.1201 N.am      6 UNK        -0.4439 
     40 CA         25.2437  -30.0560  -40.6659 C.3       6 UNK         0.0297 
     41 CB         25.9922  -31.3303  -40.2184 C.3       6 UNK        -0.2006 
     42 C          23.7846  -30.1220  -40.2056 C.2       6 UNK         0.4892 
     43 O          22.8998  -30.3815  -41.0262 O.2       6 UNK        -0.5089 
     44 N          23.5583  -29.9508  -38.8969 N.am      7 UNK        -0.4243 
     45 CA         22.2406  -30.0823  -38.2623 C.3       7 UNK         0.0196 
     46 CB         22.3407  -29.6749  -36.7839 C.3       7 UNK        -0.2007 
     47 C          21.6312  -31.4925  -38.3941 C.2       7 UNK         0.5020 
     48 O          20.4108  -31.6206  -38.4800 O.2       7 UNK        -0.5147 
     49 N          22.4970  -32.5142  -38.4329 N.am      8 UNK        -0.4734 
     50 CA         22.1465  -33.9204  -38.6561 C.3       8 UNK         0.0238 
     51 CB         23.0208  -34.7910  -37.7351 C.3       8 UNK        -0.1912 
     52 C          22.3010  -34.3495  -40.1305 C.2       8 UNK         0.5038 
     53 O          22.1777  -35.5417  -40.4168 O.2       8 UNK        -0.5046 
     54 N          22.5739  -33.3922  -41.0289 N.am      9 UNK        -0.4200 
     55 CA         22.8449  -33.5744  -42.4650 C.3       9 UNK         0.0839 
     56 C          24.1988  -34.2881  -42.7589 C.2       9 UNK         0.5513 
     57 N          24.5189  -34.5295  -44.0237 N.am      9 UNK        -0.7519 
     58 O          24.9854  -34.5956  -41.8658 O.2       9 UNK        -0.4960 
     59 C59        21.6503  -34.1912  -43.2587 C.3       10 UNK        -0.0876 
     60 S60        20.0431  -33.4029  -42.9062 S.3       10 UNK        -0.2414 
     61 C61        20.1831  -31.8720  -43.8764 C.3       10 UNK         0.0169 
     62 H62        13.0796  -22.3605  -42.5760 H         1 UNK         0.0903 
     63 H63        12.4054  -21.7825  -44.1016 H         1 UNK         0.0903 
     64 H64        11.7126  -23.2010  -43.3101 H         1 UNK         0.0903 
     65 H65        15.0559  -23.4127  -42.8962 H         1 UNK         0.3096 
     66 H66        15.8111  -24.4627  -45.4653 H         1 UNK         0.1121 
     67 H67        15.8449  -26.4044  -43.0890 H         1 UNK         0.0849 
     68 H68        14.5482  -26.4007  -44.2461 H         1 UNK         0.0849 
     69 H69        15.9782  -29.5720  -45.4176 H         1 UNK         0.0865 
     70 H70        15.2124  -28.8591  -44.0249 H         1 UNK         0.0865 
     71 H71        18.0008  -30.8120  -45.1488 H         1 UNK         0.1346 
     72 H72        20.2574  -30.5580  -41.5132 H         1 UNK         0.1412 
     73 H73        16.8193  -28.0680  -42.0645 H         1 UNK         0.1426 
     74 H74        19.5635  -29.0993  -39.7424 H         1 UNK         0.0716 
     75 H75        17.9442  -28.4504  -39.7522 H         1 UNK         0.0716 
     76 H76        21.4264  -28.1408  -41.3588 H         1 UNK         0.0695 
     77 H77        21.7583  -26.4329  -41.3814 H         1 UNK         0.0695 
     78 H78        20.0742  -27.9670  -43.4287 H         1 UNK         0.0983 
     79 H79        19.2005  -26.1569  -44.2040 H         1 UNK         0.3095 
     80 H80        19.4503  -22.7714  -43.6808 H         1 UNK         0.0454 
     81 H81        19.6909  -22.3994  -46.1302 H         1 UNK         0.0851 
     82 H82        20.3944  -24.0056  -46.3249 H         1 UNK         0.0851 
     83 H83        21.2428  -22.7735  -45.4033 H         1 UNK         0.0851 
     84 H84        18.0753  -24.4644  -45.6245 H         1 UNK         0.2976 
     85 H85        22.6535  -25.5904  -43.6841 H         1 UNK         0.3116 
     86 H86        24.4863  -25.3620  -44.8509 H         1 UNK         0.0646 
     87 H87        24.5934  -26.3366  -47.1385 H         1 UNK         0.0847 
     88 H88        22.9991  -25.6931  -46.7829 H         1 UNK         0.0847 
     89 H89        23.2762  -27.4326  -46.7539 H         1 UNK         0.0847 
     90 H90        23.9776  -28.9049  -44.8506 H         1 UNK         0.3040 
     91 H91        26.8360  -29.4911  -44.9829 H         1 UNK         0.1015 
     92 H92        25.2246  -31.0114  -46.0593 H         1 UNK         0.0786 
     93 H93        24.3971  -31.3002  -44.5318 H         1 UNK         0.0786 
     94 H94        26.0435  -31.8723  -44.7664 H         1 UNK         0.0786 
     95 H95        24.2857  -29.9370  -42.5023 H         1 UNK         0.3172 
     96 H96        25.7151  -29.1681  -40.2407 H         1 UNK         0.0595 
     97 H97        25.5556  -32.2274  -40.6576 H         1 UNK         0.0839 
     98 H98        25.9623  -31.4502  -39.1351 H         1 UNK         0.0839 
     99 H99        27.0449  -31.3037  -40.4977 H         1 UNK         0.0839 
    100 H100       24.3368  -29.7390  -38.2886 H         1 UNK         0.2998 
    101 H101       21.5701  -29.3825  -38.7620 H         1 UNK         0.0822 
    102 H102       22.6876  -28.6469  -36.6775 H         1 UNK         0.0787 
    103 H103       21.3668  -29.7377  -36.2961 H         1 UNK         0.0787 
    104 H104       23.0242  -30.3207  -36.2311 H         1 UNK         0.0787 
    105 H105       23.4813  -32.3051  -38.3485 H         1 UNK         0.3055 
    106 H106       21.1006  -34.0864  -38.3880 H         1 UNK         0.1106 
    107 H107       22.7479  -35.8443  -37.8135 H         1 UNK         0.0828 
    108 H108       24.0787  -34.7095  -37.9876 H         1 UNK         0.0828 
    109 H109       22.9011  -34.5072  -36.6894 H         1 UNK         0.0828 
    110 H110       22.6313  -32.4339  -40.7085 H         1 UNK         0.2931 
    111 H111       22.9925  -32.5592  -42.8319 H         1 UNK         0.0412 
    112 H112       23.9092  -34.2728  -44.7832 H         1 UNK         0.3472 
    113 H113       25.3978  -34.9816  -44.2223 H         1 UNK         0.3472 
    114 H114       21.8245  -34.1318  -44.3338 H         1 UNK         0.0970 
    115 H115       21.5563  -35.2542  -43.0306 H         1 UNK         0.0970 
    116 H116       20.0116  -32.0963  -44.9301 H         1 UNK         0.0612 
    117 H117       21.1940  -31.4692  -43.8034 H         1 UNK         0.0612 
@<TRIPOS>BOND
     1    1    2 1    
     2    1   62 1    
     3    1   63 1    
     4    1   64 1    
     5    2    3 2    
     6    2    4 am   BACKBONE|DICT|INTERRES
     7    4    5 1    
     8    4   65 1    
     9    5    6 1    
    10    5   25 1    
    11    5   66 1    
    12    6    7 1    
    13    6   67 1    
    14    6   68 1    
    15    7    8 1    
    16    8    9 1    
    17    8   69 1    
    18    8   70 1    
    19    9   10 ar   
    20    9   14 ar   
    21   10   11 ar   
    22   10   71 1    
    23   11   12 ar   
    24   11   61 1    
    25   12   13 ar   
    26   12   72 1    
    27   13   14 ar   
    28   13   15 1    
    29   14   73 1    
    30   15   16 1    
    31   15   74 1    
    32   15   75 1    
    33   16   17 1    
    34   17   18 1    
    35   17   76 1    
    36   17   77 1    
    37   18   19 1    
    38   18   27 1    
    39   18   78 1    
    40   19   20 am   BACKBONE|DICT|INTERRES
    41   19   79 1    
    42   20   21 2    
    43   20   22 1    
    44   22   23 1    
    45   22   24 1    
    46   22   80 1    
    47   23   81 1    
    48   23   82 1    
    49   23   83 1    
    50   24   25 am   BACKBONE|DICT|INTERRES
    51   24   84 1    
    52   25   26 2    
    53   27   28 2    
    54   27   29 am   BACKBONE|DICT|INTERRES
    55   29   30 1    
    56   29   85 1    
    57   30   31 1    
    58   30   32 1    
    59   30   86 1    
    60   31   87 1    
    61   31   88 1    
    62   31   89 1    
    63   32   33 2    
    64   32   34 am   BACKBONE|DICT|INTERRES
    65   34   35 1    
    66   34   90 1    
    67   35   36 1    
    68   35   37 1    
    69   35   91 1    
    70   36   92 1    
    71   36   93 1    
    72   36   94 1    
    73   37   38 2    
    74   37   39 am   BACKBONE|DICT|INTERRES
    75   39   40 1    
    76   39   95 1    
    77   40   41 1    
    78   40   42 1    
    79   40   96 1    
    80   41   97 1    
    81   41   98 1    
    82   41   99 1    
    83   42   43 2    
    84   42   44 am   BACKBONE|DICT|INTERRES
    85   44   45 1    
    86   44  100 1    
    87   45   46 1    
    88   45   47 1    
    89   45  101 1    
    90   46  102 1    
    91   46  103 1    
    92   46  104 1    
    93   47   48 2    
    94   47   49 am   BACKBONE|DICT|INTERRES
    95   49   50 1    
    96   49  105 1    
    97   50   51 1    
    98   50   52 1    
    99   50  106 1    
   100   51  107 1    
   101   51  108 1    
   102   51  109 1    
   103   52   53 2    
   104   52   54 am   BACKBONE|DICT|INTERRES
   105   54   55 1    
   106   54  110 1    
   107   55   56 1    
   108   55   59 1    
   109   55  111 1    
   110   56   57 am   BACKBONE|DICT|INTERRES
   111   56   58 2    
   112   57  112 1    
   113   57  113 1    
   114   59   60 1    
   115   59  114 1    
   116   59  115 1    
   117   60   61 1    
   118   61  116 1    
   119   61  117 1    
@<TRIPOS>SUBSTRUCTURE
     1 UNK         1 GROUP             0       ****    0 ROOT    
