@<TRIPOS>MOLECULE
3R8
117   119    1
SMALL
USER_CHARGES


@<TRIPOS>ATOM
      1 CA         12.5307  -23.6221  -46.5649 C.3       0 UNK        -0.2013 
      2 C          13.5526  -24.7325  -46.3700 C.2       0 UNK         0.4866 
      3 O          13.5505  -25.7060  -47.1245 O.2       0 UNK        -0.5176 
      4 N          14.4188  -24.5999  -45.3581 N.am      1 UNK        -0.4884 
      5 CA         15.4980  -25.5451  -45.0544 C.3       1 UNK         0.0853 
      6 C6         16.0982  -25.3017  -43.6485 C.3       10 UNK        -0.0849 
      7 S7         14.9356  -25.6717  -42.2926 S.3       10 UNK        -0.2776 
      8 C8         15.1712  -27.4709  -42.0424 C.3       10 UNK         0.0316 
      9 C9         16.6200  -27.9159  -41.8331 C.ar      10 UNK        -0.0863 
     10 C10        17.0546  -29.1216  -42.3964 C.ar      10 UNK        -0.1009 
     11 C11        18.3739  -29.5525  -42.2287 C.ar      10 UNK        -0.0712 
     12 C12        19.2575  -28.7747  -41.4782 C.ar      10 UNK        -0.0894 
     13 C13        18.8557  -27.5472  -40.9462 C.ar      10 UNK        -0.0745 
     14 C14        17.5270  -27.1402  -41.0990 C.ar      10 UNK        -0.0972 
     15 C15        19.8559  -26.6432  -40.2328 C.3       10 UNK         0.0209 
     16 S16        21.4287  -26.4408  -41.1459 S.3       10 UNK        -0.2568 
     17 C17        20.8757  -25.7658  -42.7520 C.3       10 UNK        -0.0983 
     18 CA         20.9018  -26.8249  -43.8855 C.3       3 UNK         0.0876 
     19 N          20.0128  -26.4586  -44.9900 N.am      3 UNK        -0.4424 
     20 C          19.6162  -27.2984  -45.9560 C.2       2 UNK         0.4918 
     21 O          19.9453  -28.4842  -46.0173 O.2       2 UNK        -0.4875 
     22 CA         18.6049  -26.7275  -46.9588 C.3       2 UNK         0.0481 
     23 CB         18.4118  -27.6236  -48.1962 C.3       2 UNK        -0.1831 
     24 N          17.3386  -26.6039  -46.2442 N.am      2 UNK        -0.4498 
     25 C          16.6293  -25.4798  -46.0999 C.2       1 UNK         0.5027 
     26 O          16.8835  -24.4199  -46.6787 O.2       1 UNK        -0.4969 
     27 C          22.3280  -27.1235  -44.3890 C.2       3 UNK         0.5005 
     28 O          22.8362  -26.4010  -45.2513 O.2       3 UNK        -0.5279 
     29 N          22.9388  -28.1816  -43.8451 N.am      4 UNK        -0.4463 
     30 CA         24.2555  -28.6837  -44.2157 C.3       4 UNK         0.0283 
     31 CB         24.1495  -29.5277  -45.5004 C.3       4 UNK        -0.1875 
     32 C          24.8123  -29.5263  -43.0649 C.2       4 UNK         0.4949 
     33 O          24.0442  -29.9982  -42.2193 O.2       4 UNK        -0.5039 
     34 N          26.1401  -29.7117  -43.0811 N.am      5 UNK        -0.4663 
     35 CA         26.9315  -30.5737  -42.1921 C.3       5 UNK         0.0242 
     36 CB         26.6430  -32.0559  -42.5097 C.3       5 UNK        -0.1982 
     37 C          26.7610  -30.2436  -40.6967 C.2       5 UNK         0.5017 
     38 O          26.6475  -31.1552  -39.8783 O.2       5 UNK        -0.5012 
     39 N          26.7048  -28.9426  -40.3723 N.am      6 UNK        -0.4439 
     40 CA         26.4630  -28.3866  -39.0320 C.3       6 UNK         0.0297 
     41 CB         27.6770  -28.6343  -38.1106 C.3       6 UNK        -0.2006 
     42 C          25.1318  -28.8710  -38.4170 C.2       6 UNK         0.4892 
     43 O          25.0837  -29.2130  -37.2344 O.2       6 UNK        -0.5089 
     44 N          24.0875  -28.9026  -39.2579 N.am      7 UNK        -0.4243 
     45 CA         22.7199  -29.3594  -38.9874 C.3       7 UNK         0.0196 
     46 CB         22.0796  -28.6023  -37.8035 C.3       7 UNK        -0.2007 
     47 C          22.5669  -30.8880  -38.8706 C.2       7 UNK         0.5020 
     48 O          21.5055  -31.3471  -38.4472 O.2       7 UNK        -0.5147 
     49 N          23.5829  -31.6626  -39.2823 N.am      8 UNK        -0.4734 
     50 CA         23.4800  -33.1210  -39.4241 C.3       8 UNK         0.0238 
     51 CB         24.8737  -33.7603  -39.3224 C.3       8 UNK        -0.1912 
     52 C          22.7799  -33.5429  -40.7303 C.2       8 UNK         0.5038 
     53 O          22.3666  -34.6984  -40.8320 O.2       8 UNK        -0.5046 
     54 N          22.6590  -32.6158  -41.6931 N.am      9 UNK        -0.4200 
     55 CA         21.9601  -32.7662  -42.9828 C.3       9 UNK         0.0839 
     56 C          22.6864  -33.6670  -44.0260 C.2       9 UNK         0.5513 
     57 N          23.9068  -34.1266  -43.7798 N.am      9 UNK        -0.7519 
     58 O          22.1460  -33.9286  -45.0976 O.2       9 UNK        -0.4960 
     59 C59        20.4517  -33.1353  -42.8399 C.3       10 UNK        -0.0876 
     60 S60        19.5358  -32.0205  -41.7213 S.3       10 UNK        -0.2414 
     61 C61        18.8748  -30.8166  -42.9126 C.3       10 UNK         0.0169 
     62 H62        12.6379  -22.8336  -45.8202 H         1 UNK         0.0903 
     63 H63        12.6471  -23.1746  -47.5516 H         1 UNK         0.0903 
     64 H64        11.5207  -24.0241  -46.4896 H         1 UNK         0.0903 
     65 H65        14.3817  -23.7769  -44.7737 H         1 UNK         0.3096 
     66 H66        15.0753  -26.5522  -45.0852 H         1 UNK         0.1121 
     67 H67        17.0077  -25.8859  -43.5026 H         1 UNK         0.0849 
     68 H68        16.4105  -24.2604  -43.5472 H         1 UNK         0.0849 
     69 H69        14.7379  -27.9893  -42.8990 H         1 UNK         0.0865 
     70 H70        14.5873  -27.7794  -41.1744 H         1 UNK         0.0865 
     71 H71        16.3684  -29.7213  -42.9789 H         1 UNK         0.1346 
     72 H72        20.2791  -29.1050  -41.3560 H         1 UNK         0.1412 
     73 H73        17.2050  -26.2008  -40.6710 H         1 UNK         0.1426 
     74 H74        20.0656  -27.0605  -39.2484 H         1 UNK         0.0716 
     75 H75        19.4281  -25.6540  -40.0625 H         1 UNK         0.0716 
     76 H76        21.4940  -24.9028  -43.0066 H         1 UNK         0.0695 
     77 H77        19.8642  -25.3764  -42.6238 H         1 UNK         0.0695 
     78 H78        20.5010  -27.7585  -43.4956 H         1 UNK         0.0983 
     79 H79        19.7116  -25.4963  -45.0261 H         1 UNK         0.3095 
     80 H80        18.9727  -25.7537  -47.2889 H         1 UNK         0.0454 
     81 H81        18.0373  -28.6127  -47.9295 H         1 UNK         0.0851 
     82 H82        19.3544  -27.7625  -48.7269 H         1 UNK         0.0851 
     83 H83        17.7063  -27.1786  -48.8979 H         1 UNK         0.0851 
     84 H84        17.0743  -27.4164  -45.7033 H         1 UNK         0.2976 
     85 H85        22.5025  -28.6943  -43.0889 H         1 UNK         0.3116 
     86 H86        24.9275  -27.8389  -44.3820 H         1 UNK         0.0646 
     87 H87        23.4788  -30.3778  -45.3678 H         1 UNK         0.0847 
     88 H88        25.1218  -29.9230  -45.7966 H         1 UNK         0.0847 
     89 H89        23.7758  -28.9366  -46.3367 H         1 UNK         0.0847 
     90 H90        26.6670  -29.2567  -43.8148 H         1 UNK         0.3040 
     91 H91        27.9816  -30.3856  -42.4221 H         1 UNK         0.1015 
     92 H92        25.6129  -32.3191  -42.2736 H         1 UNK         0.0786 
     93 H93        27.2927  -32.7174  -41.9349 H         1 UNK         0.0786 
     94 H94        26.8105  -32.2762  -43.5640 H         1 UNK         0.0786 
     95 H95        26.7939  -28.2702  -41.1221 H         1 UNK         0.3172 
     96 H96        26.3626  -27.3076  -39.1595 H         1 UNK         0.0595 
     97 H97        27.5528  -28.1235  -37.1550 H         1 UNK         0.0839 
     98 H98        28.5983  -28.2618  -38.5580 H         1 UNK         0.0839 
     99 H99        27.8131  -29.6947  -37.8956 H         1 UNK         0.0839 
    100 H100       24.2638  -28.6556  -40.2228 H         1 UNK         0.2998 
    101 H101       22.1543  -29.0910  -39.8793 H         1 UNK         0.0822 
    102 H102       21.0112  -28.8115  -37.7398 H         1 UNK         0.0787 
    103 H103       22.5187  -28.8918  -36.8488 H         1 UNK         0.0787 
    104 H104       22.1924  -27.5239  -37.9142 H         1 UNK         0.0787 
    105 H105       24.4490  -31.2305  -39.5833 H         1 UNK         0.3055 
    106 H106       22.8784  -33.5101  -38.5993 H         1 UNK         0.1106 
    107 H107       24.7998  -34.8482  -39.2948 H         1 UNK         0.0828 
    108 H108       25.5036  -33.5034  -40.1727 H         1 UNK         0.0828 
    109 H109       25.3909  -33.4474  -38.4151 H         1 UNK         0.0828 
    110 H110       23.0803  -31.7061  -41.5427 H         1 UNK         0.2931 
    111 H111       21.9972  -31.7689  -43.4228 H         1 UNK         0.0412 
    112 H112       24.3551  -33.9338  -42.9002 H         1 UNK         0.3472 
    113 H113       24.3670  -34.6988  -44.4702 H         1 UNK         0.3472 
    114 H114       19.9602  -33.1298  -43.8146 H         1 UNK         0.0970 
    115 H115       20.3440  -34.1540  -42.4647 H         1 UNK         0.0970 
    116 H116       18.0814  -31.2901  -43.4926 H         1 UNK         0.0612 
    117 H117       19.6572  -30.5388  -43.6209 H         1 UNK         0.0612 
@<TRIPOS>BOND
     1    1    2 1    
     2    1   62 1    
     3    1   63 1    
     4    1   64 1    
     5    2    3 2    
     6    2    4 am   BACKBONE|DICT|INTERRES
     7    4    5 1    
     8    4   65 1    
     9    5    6 1    
    10    5   25 1    
    11    5   66 1    
    12    6    7 1    
    13    6   67 1    
    14    6   68 1    
    15    7    8 1    
    16    8    9 1    
    17    8   69 1    
    18    8   70 1    
    19    9   10 ar   
    20    9   14 ar   
    21   10   11 ar   
    22   10   71 1    
    23   11   12 ar   
    24   11   61 1    
    25   12   13 ar   
    26   12   72 1    
    27   13   14 ar   
    28   13   15 1    
    29   14   73 1    
    30   15   16 1    
    31   15   74 1    
    32   15   75 1    
    33   16   17 1    
    34   17   18 1    
    35   17   76 1    
    36   17   77 1    
    37   18   19 1    
    38   18   27 1    
    39   18   78 1    
    40   19   20 am   BACKBONE|DICT|INTERRES
    41   19   79 1    
    42   20   21 2    
    43   20   22 1    
    44   22   23 1    
    45   22   24 1    
    46   22   80 1    
    47   23   81 1    
    48   23   82 1    
    49   23   83 1    
    50   24   25 am   BACKBONE|DICT|INTERRES
    51   24   84 1    
    52   25   26 2    
    53   27   28 2    
    54   27   29 am   BACKBONE|DICT|INTERRES
    55   29   30 1    
    56   29   85 1    
    57   30   31 1    
    58   30   32 1    
    59   30   86 1    
    60   31   87 1    
    61   31   88 1    
    62   31   89 1    
    63   32   33 2    
    64   32   34 am   BACKBONE|DICT|INTERRES
    65   34   35 1    
    66   34   90 1    
    67   35   36 1    
    68   35   37 1    
    69   35   91 1    
    70   36   92 1    
    71   36   93 1    
    72   36   94 1    
    73   37   38 2    
    74   37   39 am   BACKBONE|DICT|INTERRES
    75   39   40 1    
    76   39   95 1    
    77   40   41 1    
    78   40   42 1    
    79   40   96 1    
    80   41   97 1    
    81   41   98 1    
    82   41   99 1    
    83   42   43 2    
    84   42   44 am   BACKBONE|DICT|INTERRES
    85   44   45 1    
    86   44  100 1    
    87   45   46 1    
    88   45   47 1    
    89   45  101 1    
    90   46  102 1    
    91   46  103 1    
    92   46  104 1    
    93   47   48 2    
    94   47   49 am   BACKBONE|DICT|INTERRES
    95   49   50 1    
    96   49  105 1    
    97   50   51 1    
    98   50   52 1    
    99   50  106 1    
   100   51  107 1    
   101   51  108 1    
   102   51  109 1    
   103   52   53 2    
   104   52   54 am   BACKBONE|DICT|INTERRES
   105   54   55 1    
   106   54  110 1    
   107   55   56 1    
   108   55   59 1    
   109   55  111 1    
   110   56   57 am   BACKBONE|DICT|INTERRES
   111   56   58 2    
   112   57  112 1    
   113   57  113 1    
   114   59   60 1    
   115   59  114 1    
   116   59  115 1    
   117   60   61 1    
   118   61  116 1    
   119   61  117 1    
@<TRIPOS>SUBSTRUCTURE
     1 UNK         1 GROUP             0       ****    0 ROOT    
