@<TRIPOS>MOLECULE
3R8
117   119    1
SMALL
USER_CHARGES


@<TRIPOS>ATOM
      1 CA         23.4591  -24.6454  -44.0368 C.3       0 UNK        -0.2013 
      2 C          22.5321  -24.9561  -45.2033 C.2       0 UNK         0.4866 
      3 O          22.7880  -24.5085  -46.3205 O.2       0 UNK        -0.5176 
      4 N          21.4632  -25.7189  -44.9372 N.am      1 UNK        -0.4884 
      5 CA         20.4024  -26.1263  -45.8620 C.3       1 UNK         0.0853 
      6 C6         20.9649  -26.9286  -47.0727 C.3       10 UNK        -0.0849 
      7 S7         19.7089  -27.8948  -47.9814 S.3       10 UNK        -0.2776 
      8 C8         20.0439  -29.6079  -47.4510 C.3       10 UNK         0.0316 
      9 C9         19.3686  -29.9473  -46.1289 C.ar      10 UNK        -0.0863 
     10 C10        20.1206  -30.3743  -45.0300 C.ar      10 UNK        -0.1009 
     11 C11        19.4965  -30.7107  -43.8224 C.ar      10 UNK        -0.0712 
     12 C12        18.1003  -30.6266  -43.7317 C.ar      10 UNK        -0.0894 
     13 C13        17.3406  -30.1774  -44.8159 C.ar      10 UNK        -0.0745 
     14 C14        17.9791  -29.8556  -46.0145 C.ar      10 UNK        -0.0972 
     15 C15        15.8342  -30.0024  -44.6926 C.3       10 UNK         0.0209 
     16 S16        15.3915  -28.2526  -44.4246 S.3       10 UNK        -0.2568 
     17 C17        15.8526  -28.0152  -42.6763 C.3       10 UNK        -0.0983 
     18 CA         17.2969  -27.4871  -42.5024 C.3       3 UNK         0.0876 
     19 N          17.5064  -26.1670  -43.1021 N.am      3 UNK        -0.4424 
     20 C          18.6967  -25.5587  -43.1647 C.2       2 UNK         0.4918 
     21 O          19.7429  -26.0537  -42.7332 O.2       2 UNK        -0.4875 
     22 CA         18.7296  -24.1872  -43.8554 C.3       2 UNK         0.0481 
     23 CB         19.7882  -23.2469  -43.2494 C.3       2 UNK        -0.1831 
     24 N          18.8200  -24.1969  -45.3270 N.am      2 UNK        -0.4498 
     25 C          19.4953  -24.9238  -46.2431 C.2       1 UNK         0.5027 
     26 O          19.3994  -24.6136  -47.4302 O.2       1 UNK        -0.4969 
     27 C          17.7192  -27.5280  -41.0201 C.2       3 UNK         0.5005 
     28 O          17.4639  -26.5747  -40.2816 O.2       3 UNK        -0.5279 
     29 N          18.3870  -28.6269  -40.6415 N.am      4 UNK        -0.4463 
     30 CA         19.0084  -28.9260  -39.3438 C.3       4 UNK         0.0283 
     31 CB         17.9937  -28.8362  -38.1859 C.3       4 UNK        -0.1875 
     32 C          20.2922  -28.1287  -39.0338 C.2       4 UNK         0.4949 
     33 O          21.0192  -28.5282  -38.1243 O.2       4 UNK        -0.5039 
     34 N          20.5773  -27.0482  -39.7761 N.am      5 UNK        -0.4663 
     35 CA         21.7873  -26.2366  -39.6066 C.3       5 UNK         0.0242 
     36 CB         21.5158  -24.8008  -40.0838 C.3       5 UNK        -0.1982 
     37 C          23.0010  -26.8257  -40.3439 C.2       5 UNK         0.5017 
     38 O          24.1323  -26.5930  -39.9163 O.2       5 UNK        -0.5012 
     39 N          22.7534  -27.5605  -41.4376 N.am      6 UNK        -0.4439 
     40 CA         23.7808  -28.2559  -42.2143 C.3       6 UNK         0.0297 
     41 CB         23.2178  -28.6425  -43.5898 C.3       6 UNK        -0.2006 
     42 C          24.2920  -29.5056  -41.4826 C.2       6 UNK         0.4892 
     43 O          23.4969  -30.2321  -40.8809 O.2       6 UNK        -0.5089 
     44 N          25.6013  -29.7625  -41.6130 N.am      7 UNK        -0.4243 
     45 CA         26.3237  -30.8830  -40.9967 C.3       7 UNK         0.0196 
     46 CB         27.8251  -30.7386  -41.2933 C.3       7 UNK        -0.2007 
     47 C          25.8278  -32.2791  -41.4148 C.2       7 UNK         0.5020 
     48 O          26.0294  -33.2350  -40.6660 O.2       7 UNK        -0.5147 
     49 N          25.1523  -32.3732  -42.5695 N.am      8 UNK        -0.4734 
     50 CA         24.4785  -33.5800  -43.0635 C.3       8 UNK         0.0238 
     51 CB         23.9022  -33.2959  -44.4608 C.3       8 UNK        -0.1912 
     52 C          23.3733  -34.1081  -42.1269 C.2       8 UNK         0.5038 
     53 O          23.0903  -35.3065  -42.1542 O.2       8 UNK        -0.5046 
     54 N          22.7911  -33.2170  -41.3143 N.am      9 UNK        -0.4200 
     55 CA         21.8228  -33.5402  -40.2579 C.3       9 UNK         0.0839 
     56 C          22.4863  -33.8247  -38.8776 C.2       9 UNK         0.5513 
     57 N          23.8077  -33.8105  -38.7420 N.am      9 UNK        -0.7519 
     58 O          21.7843  -34.0857  -37.9040 O.2       9 UNK        -0.4960 
     59 C59        20.7275  -32.4474  -40.1583 C.3       10 UNK        -0.0876 
     60 S60        19.6265  -32.4406  -41.6139 S.3       10 UNK        -0.2414 
     61 C61        20.3491  -31.1025  -42.6161 C.3       10 UNK         0.0169 
     62 H62        24.4546  -25.0423  -44.2336 H         1 UNK         0.0903 
     63 H63        23.5423  -23.5677  -43.8993 H         1 UNK         0.0903 
     64 H64        23.1017  -25.0791  -43.1032 H         1 UNK         0.0903 
     65 H65        21.2685  -25.9739  -43.9741 H         1 UNK         0.3096 
     66 H66        19.7714  -26.8290  -45.3180 H         1 UNK         0.1121 
     67 H67        21.7413  -27.6128  -46.7276 H         1 UNK         0.0849 
     68 H68        21.4604  -26.2644  -47.7827 H         1 UNK         0.0849 
     69 H69        19.6614  -30.2863  -48.2149 H         1 UNK         0.0865 
     70 H70        21.1200  -29.7823  -47.4072 H         1 UNK         0.0865 
     71 H71        21.1957  -30.4447  -45.1182 H         1 UNK         0.1346 
     72 H72        17.6004  -30.8768  -42.8065 H         1 UNK         0.1412 
     73 H73        17.3935  -29.5128  -46.8570 H         1 UNK         0.1426 
     74 H74        15.4317  -30.6186  -43.8872 H         1 UNK         0.0716 
     75 H75        15.3538  -30.3496  -45.6086 H         1 UNK         0.0716 
     76 H76        15.7174  -28.9634  -42.1521 H         1 UNK         0.0695 
     77 H77        15.1400  -27.3213  -42.2266 H         1 UNK         0.0695 
     78 H78        17.9749  -28.1418  -43.0459 H         1 UNK         0.0983 
     79 H79        16.6890  -25.7097  -43.4787 H         1 UNK         0.3095 
     80 H80        17.7654  -23.7241  -43.6394 H         1 UNK         0.0454 
     81 H81        20.8046  -23.5894  -43.4196 H         1 UNK         0.0851 
     82 H82        19.6561  -23.1616  -42.1701 H         1 UNK         0.0851 
     83 H83        19.7055  -22.2412  -43.6611 H         1 UNK         0.0851 
     84 H84        18.2505  -23.4713  -45.7381 H         1 UNK         0.2976 
     85 H85        18.5366  -29.3395  -41.3410 H         1 UNK         0.3116 
     86 H86        19.3176  -29.9692  -39.4114 H         1 UNK         0.0646 
     87 H87        17.6815  -27.8097  -37.9926 H         1 UNK         0.0847 
     88 H88        18.4278  -29.2167  -37.2604 H         1 UNK         0.0847 
     89 H89        17.1015  -29.4276  -38.3908 H         1 UNK         0.0847 
     90 H90        19.9261  -26.7569  -40.4945 H         1 UNK         0.3040 
     91 H91        22.0378  -26.1931  -38.5440 H         1 UNK         0.1015 
     92 H92        21.3494  -24.7557  -41.1590 H         1 UNK         0.0786 
     93 H93        22.3649  -24.1526  -39.8630 H         1 UNK         0.0786 
     94 H94        20.6437  -24.3732  -39.5888 H         1 UNK         0.0786 
     95 H95        21.7901  -27.7238  -41.6884 H         1 UNK         0.3172 
     96 H96        24.6187  -27.5721  -42.3686 H         1 UNK         0.0595 
     97 H97        23.0321  -27.7648  -44.2036 H         1 UNK         0.0839 
     98 H98        22.2834  -29.1909  -43.4973 H         1 UNK         0.0839 
     99 H99        23.9151  -29.2715  -44.1449 H         1 UNK         0.0839 
    100 H100       26.1634  -29.1153  -42.1476 H         1 UNK         0.2998 
    101 H101       26.1787  -30.8061  -39.9170 H         1 UNK         0.0822 
    102 H102       28.3955  -31.5414  -40.8233 H         1 UNK         0.0787 
    103 H103       28.0308  -30.7769  -42.3638 H         1 UNK         0.0787 
    104 H104       28.2185  -29.7978  -40.9075 H         1 UNK         0.0787 
    105 H105       25.0480  -31.5355  -43.1224 H         1 UNK         0.3055 
    106 H106       25.2301  -34.3678  -43.1502 H         1 UNK         0.1106 
    107 H107       23.4123  -34.1816  -44.8681 H         1 UNK         0.0828 
    108 H108       23.1607  -32.4963  -44.4386 H         1 UNK         0.0828 
    109 H109       24.6850  -33.0106  -45.1639 H         1 UNK         0.0828 
    110 H110       23.1137  -32.2560  -41.3296 H         1 UNK         0.2931 
    111 H111       21.3203  -34.4728  -40.5215 H         1 UNK         0.0412 
    112 H112       24.4206  -33.6249  -39.5278 H         1 UNK         0.3472 
    113 H113       24.2063  -34.0066  -37.8376 H         1 UNK         0.3472 
    114 H114       21.1766  -31.4634  -40.0116 H         1 UNK         0.0970 
    115 H115       20.0895  -32.6170  -39.2889 H         1 UNK         0.0970 
    116 H116       20.4977  -30.2207  -41.9924 H         1 UNK         0.0612 
    117 H117       21.3393  -31.4219  -42.9427 H         1 UNK         0.0612 
@<TRIPOS>BOND
     1    1    2 1    
     2    1   62 1    
     3    1   63 1    
     4    1   64 1    
     5    2    3 2    
     6    2    4 am   BACKBONE|DICT|INTERRES
     7    4    5 1    
     8    4   65 1    
     9    5    6 1    
    10    5   25 1    
    11    5   66 1    
    12    6    7 1    
    13    6   67 1    
    14    6   68 1    
    15    7    8 1    
    16    8    9 1    
    17    8   69 1    
    18    8   70 1    
    19    9   10 ar   
    20    9   14 ar   
    21   10   11 ar   
    22   10   71 1    
    23   11   12 ar   
    24   11   61 1    
    25   12   13 ar   
    26   12   72 1    
    27   13   14 ar   
    28   13   15 1    
    29   14   73 1    
    30   15   16 1    
    31   15   74 1    
    32   15   75 1    
    33   16   17 1    
    34   17   18 1    
    35   17   76 1    
    36   17   77 1    
    37   18   19 1    
    38   18   27 1    
    39   18   78 1    
    40   19   20 am   BACKBONE|DICT|INTERRES
    41   19   79 1    
    42   20   21 2    
    43   20   22 1    
    44   22   23 1    
    45   22   24 1    
    46   22   80 1    
    47   23   81 1    
    48   23   82 1    
    49   23   83 1    
    50   24   25 am   BACKBONE|DICT|INTERRES
    51   24   84 1    
    52   25   26 2    
    53   27   28 2    
    54   27   29 am   BACKBONE|DICT|INTERRES
    55   29   30 1    
    56   29   85 1    
    57   30   31 1    
    58   30   32 1    
    59   30   86 1    
    60   31   87 1    
    61   31   88 1    
    62   31   89 1    
    63   32   33 2    
    64   32   34 am   BACKBONE|DICT|INTERRES
    65   34   35 1    
    66   34   90 1    
    67   35   36 1    
    68   35   37 1    
    69   35   91 1    
    70   36   92 1    
    71   36   93 1    
    72   36   94 1    
    73   37   38 2    
    74   37   39 am   BACKBONE|DICT|INTERRES
    75   39   40 1    
    76   39   95 1    
    77   40   41 1    
    78   40   42 1    
    79   40   96 1    
    80   41   97 1    
    81   41   98 1    
    82   41   99 1    
    83   42   43 2    
    84   42   44 am   BACKBONE|DICT|INTERRES
    85   44   45 1    
    86   44  100 1    
    87   45   46 1    
    88   45   47 1    
    89   45  101 1    
    90   46  102 1    
    91   46  103 1    
    92   46  104 1    
    93   47   48 2    
    94   47   49 am   BACKBONE|DICT|INTERRES
    95   49   50 1    
    96   49  105 1    
    97   50   51 1    
    98   50   52 1    
    99   50  106 1    
   100   51  107 1    
   101   51  108 1    
   102   51  109 1    
   103   52   53 2    
   104   52   54 am   BACKBONE|DICT|INTERRES
   105   54   55 1    
   106   54  110 1    
   107   55   56 1    
   108   55   59 1    
   109   55  111 1    
   110   56   57 am   BACKBONE|DICT|INTERRES
   111   56   58 2    
   112   57  112 1    
   113   57  113 1    
   114   59   60 1    
   115   59  114 1    
   116   59  115 1    
   117   60   61 1    
   118   61  116 1    
   119   61  117 1    
@<TRIPOS>SUBSTRUCTURE
     1 UNK         1 GROUP             0       ****    0 ROOT    
