@<TRIPOS>MOLECULE
3R8
117   119    1
SMALL
USER_CHARGES


@<TRIPOS>ATOM
      1 CA         18.9435  -26.5876  -41.0451 C.3       0 UNK        -0.2013 
      2 C          18.6084  -26.5624  -42.5246 C.2       0 UNK         0.4866 
      3 O          19.3016  -27.1852  -43.3331 O.2       0 UNK        -0.5176 
      4 N          17.5546  -25.8096  -42.8730 N.am      1 UNK        -0.4884 
      5 CA         16.9193  -25.7180  -44.2010 C.3       1 UNK         0.0853 
      6 C6         16.2899  -27.0645  -44.6494 C.3       10 UNK        -0.0849 
      7 S7         15.1609  -27.7995  -43.4084 S.3       10 UNK        -0.2776 
      8 C8         14.7024  -29.3869  -44.1857 C.3       10 UNK         0.0316 
      9 C9         15.9264  -30.1950  -44.5907 C.ar      10 UNK        -0.0863 
     10 C10        16.6160  -30.9713  -43.6531 C.ar      10 UNK        -0.1009 
     11 C11        17.7880  -31.6434  -44.0182 C.ar      10 UNK        -0.0712 
     12 C12        18.2667  -31.5319  -45.3273 C.ar      10 UNK        -0.0894 
     13 C13        17.5921  -30.7449  -46.2639 C.ar      10 UNK        -0.0745 
     14 C14        16.4035  -30.1110  -45.9011 C.ar      10 UNK        -0.0972 
     15 C15        18.1825  -30.5064  -47.6438 C.3       10 UNK         0.0209 
     16 S16        18.9276  -28.8449  -47.7481 S.3       10 UNK        -0.2568 
     17 C17        20.2656  -28.9911  -46.5194 C.3       10 UNK        -0.0983 
     18 CA         21.2284  -27.7790  -46.5584 C.3       3 UNK         0.0876 
     19 N          20.6356  -26.5705  -45.9830 N.am      3 UNK        -0.4424 
     20 C          20.8260  -25.3312  -46.4602 C.2       2 UNK         0.4918 
     21 O          21.5275  -25.0835  -47.4425 O.2       2 UNK        -0.4875 
     22 CA         20.1371  -24.1628  -45.7177 C.3       2 UNK         0.0481 
     23 CB         19.7549  -23.0018  -46.6604 C.3       2 UNK        -0.1831 
     24 N          18.9948  -24.5780  -44.8953 N.am      2 UNK        -0.4498 
     25 C          17.8447  -25.1403  -45.3016 C.2       1 UNK         0.5027 
     26 O          17.5132  -25.2346  -46.4841 O.2       1 UNK        -0.4969 
     27 C          22.5529  -28.0900  -45.8439 C.2       3 UNK         0.5005 
     28 O          23.6165  -27.9411  -46.4486 O.2       3 UNK        -0.5279 
     29 N          22.4715  -28.5305  -44.5816 N.am      4 UNK        -0.4463 
     30 CA         23.6086  -29.0194  -43.8027 C.3       4 UNK         0.0283 
     31 CB         23.9829  -30.4504  -44.2431 C.3       4 UNK        -0.1875 
     32 C          23.2721  -28.9355  -42.3123 C.2       4 UNK         0.4949 
     33 O          23.1651  -29.9606  -41.6401 O.2       4 UNK        -0.5039 
     34 N          23.0818  -27.7082  -41.8132 N.am      5 UNK        -0.4663 
     35 CA         22.7036  -27.4347  -40.4222 C.3       5 UNK         0.0242 
     36 CB         22.4723  -25.9265  -40.2394 C.3       5 UNK        -0.1982 
     37 C          23.7089  -27.9595  -39.3837 C.2       5 UNK         0.5017 
     38 O          23.2935  -28.4962  -38.3561 O.2       5 UNK        -0.5012 
     39 N          25.0038  -27.8179  -39.6944 N.am      6 UNK        -0.4439 
     40 CA         26.1210  -28.2240  -38.8406 C.3       6 UNK         0.0297 
     41 CB         27.3952  -27.5043  -39.3132 C.3       6 UNK        -0.2006 
     42 C          26.3588  -29.7441  -38.7852 C.2       6 UNK         0.4892 
     43 O          27.0210  -30.2000  -37.8519 O.2       6 UNK        -0.5089 
     44 N          25.8468  -30.5001  -39.7660 N.am      7 UNK        -0.4243 
     45 CA         26.0346  -31.9465  -39.8700 C.3       7 UNK         0.0196 
     46 CB         27.3962  -32.2449  -40.5332 C.3       7 UNK        -0.2007 
     47 C          24.8535  -32.5743  -40.6315 C.2       7 UNK         0.5020 
     48 O          25.0242  -32.9565  -41.7879 O.2       7 UNK        -0.5147 
     49 N          23.6568  -32.6791  -40.0396 N.am      8 UNK        -0.4734 
     50 CA         23.2577  -32.2623  -38.6917 C.3       8 UNK         0.0238 
     51 CB         23.5629  -33.3864  -37.6785 C.3       8 UNK        -0.1912 
     52 C          21.7725  -31.8638  -38.7037 C.2       8 UNK         0.5038 
     53 O          21.0265  -32.2502  -37.8021 O.2       8 UNK        -0.5046 
     54 N          21.3567  -31.1377  -39.7493 N.am      9 UNK        -0.4200 
     55 CA         19.9580  -30.7482  -39.9945 C.3       9 UNK         0.0839 
     56 C          19.4033  -29.6504  -39.0413 C.2       9 UNK         0.5513 
     57 N          20.2194  -28.9799  -38.2359 N.am      9 UNK        -0.7519 
     58 O          18.2003  -29.4061  -39.0299 O.2       9 UNK        -0.4960 
     59 C59        19.7137  -30.3834  -41.4835 C.3       10 UNK        -0.0876 
     60 S60        20.1783  -31.7405  -42.6130 S.3       10 UNK        -0.2414 
     61 C61        18.5574  -32.4747  -43.0020 C.3       10 UNK         0.0169 
     62 H62        19.2798  -25.6080  -40.7074 H         1 UNK         0.0903 
     63 H63        18.0718  -26.8781  -40.4587 H         1 UNK         0.0903 
     64 H64        19.7312  -27.3079  -40.8485 H         1 UNK         0.0903 
     65 H65        17.0633  -25.3106  -42.1434 H         1 UNK         0.3096 
     66 H66        16.1081  -24.9953  -44.0989 H         1 UNK         0.1121 
     67 H67        17.0947  -27.7704  -44.8576 H         1 UNK         0.0849 
     68 H68        15.7336  -26.9447  -45.5810 H         1 UNK         0.0849 
     69 H69        14.0929  -29.9634  -43.4882 H         1 UNK         0.0865 
     70 H70        14.0692  -29.1920  -45.0528 H         1 UNK         0.0865 
     71 H71        16.2540  -31.0291  -42.6357 H         1 UNK         0.1346 
     72 H72        19.1907  -32.0229  -45.6007 H         1 UNK         0.1412 
     73 H73        15.8918  -29.4882  -46.6224 H         1 UNK         0.1426 
     74 H74        17.4001  -30.5963  -48.3987 H         1 UNK         0.0716 
     75 H75        18.9333  -31.2608  -47.8843 H         1 UNK         0.0716 
     76 H76        20.8019  -29.9191  -46.7289 H         1 UNK         0.0695 
     77 H77        19.8244  -29.1033  -45.5269 H         1 UNK         0.0695 
     78 H78        21.4785  -27.5987  -47.6067 H         1 UNK         0.0983 
     79 H79        20.0714  -26.6977  -45.1484 H         1 UNK         0.3095 
     80 H80        20.8799  -23.7802  -45.0165 H         1 UNK         0.0454 
     81 H81        20.6389  -22.5809  -47.1408 H         1 UNK         0.0851 
     82 H82        19.2683  -22.1919  -46.1174 H         1 UNK         0.0851 
     83 H83        19.0818  -23.3269  -47.4540 H         1 UNK         0.0851 
     84 H84        19.1522  -24.5627  -43.8970 H         1 UNK         0.2976 
     85 H85        21.5662  -28.5835  -44.1310 H         1 UNK         0.3116 
     86 H86        24.4698  -28.3695  -43.9721 H         1 UNK         0.0646 
     87 H87        23.1488  -31.1415  -44.1133 H         1 UNK         0.0847 
     88 H88        24.2868  -30.4837  -45.2891 H         1 UNK         0.0847 
     89 H89        24.8167  -30.8346  -43.6541 H         1 UNK         0.0847 
     90 H90        23.1736  -26.9134  -42.4304 H         1 UNK         0.3040 
     91 H91        21.7656  -27.9554  -40.2385 H         1 UNK         0.1015 
     92 H92        21.7363  -25.5456  -40.9468 H         1 UNK         0.0786 
     93 H93        22.1018  -25.7088  -39.2366 H         1 UNK         0.0786 
     94 H94        23.3915  -25.3561  -40.3785 H         1 UNK         0.0786 
     95 H95        25.2351  -27.3762  -40.5726 H         1 UNK         0.3172 
     96 H96        25.9047  -27.8940  -37.8221 H         1 UNK         0.0595 
     97 H97        27.6636  -27.7838  -40.3328 H         1 UNK         0.0839 
     98 H98        28.2441  -27.7533  -38.6746 H         1 UNK         0.0839 
     99 H99        27.2767  -26.4211  -39.2800 H         1 UNK         0.0839 
    100 H100       25.2555  -30.0759  -40.4699 H         1 UNK         0.2998 
    101 H101       26.0546  -32.3860  -38.8724 H         1 UNK         0.0822 
    102 H102       27.5442  -33.3186  -40.6556 H         1 UNK         0.0787 
    103 H103       27.4724  -31.7879  -41.5206 H         1 UNK         0.0787 
    104 H104       28.2236  -31.8730  -39.9288 H         1 UNK         0.0787 
    105 H105       22.9012  -33.0548  -40.5966 H         1 UNK         0.3055 
    106 H106       23.7964  -31.3642  -38.3895 H         1 UNK         0.1106 
    107 H107       24.6167  -33.6597  -37.6672 H         1 UNK         0.0828 
    108 H108       23.3042  -33.0783  -36.6646 H         1 UNK         0.0828 
    109 H109       22.9912  -34.2884  -37.9002 H         1 UNK         0.0828 
    110 H110       22.0331  -30.8410  -40.4500 H         1 UNK         0.2931 
    111 H111       19.3505  -31.6320  -39.7895 H         1 UNK         0.0412 
    112 H112       19.8323  -28.2852  -37.6174 H         1 UNK         0.3472 
    113 H113       21.2138  -29.1626  -38.2245 H         1 UNK         0.3472 
    114 H114       20.2943  -29.5030  -41.7604 H         1 UNK         0.0970 
    115 H115       18.6695  -30.1154  -41.6551 H         1 UNK         0.0970 
    116 H116       17.9856  -32.6044  -42.0818 H         1 UNK         0.0612 
    117 H117       18.7152  -33.4742  -43.4096 H         1 UNK         0.0612 
@<TRIPOS>BOND
     1    1    2 1    
     2    1   62 1    
     3    1   63 1    
     4    1   64 1    
     5    2    3 2    
     6    2    4 am   BACKBONE|DICT|INTERRES
     7    4    5 1    
     8    4   65 1    
     9    5    6 1    
    10    5   25 1    
    11    5   66 1    
    12    6    7 1    
    13    6   67 1    
    14    6   68 1    
    15    7    8 1    
    16    8    9 1    
    17    8   69 1    
    18    8   70 1    
    19    9   10 ar   
    20    9   14 ar   
    21   10   11 ar   
    22   10   71 1    
    23   11   12 ar   
    24   11   61 1    
    25   12   13 ar   
    26   12   72 1    
    27   13   14 ar   
    28   13   15 1    
    29   14   73 1    
    30   15   16 1    
    31   15   74 1    
    32   15   75 1    
    33   16   17 1    
    34   17   18 1    
    35   17   76 1    
    36   17   77 1    
    37   18   19 1    
    38   18   27 1    
    39   18   78 1    
    40   19   20 am   BACKBONE|DICT|INTERRES
    41   19   79 1    
    42   20   21 2    
    43   20   22 1    
    44   22   23 1    
    45   22   24 1    
    46   22   80 1    
    47   23   81 1    
    48   23   82 1    
    49   23   83 1    
    50   24   25 am   BACKBONE|DICT|INTERRES
    51   24   84 1    
    52   25   26 2    
    53   27   28 2    
    54   27   29 am   BACKBONE|DICT|INTERRES
    55   29   30 1    
    56   29   85 1    
    57   30   31 1    
    58   30   32 1    
    59   30   86 1    
    60   31   87 1    
    61   31   88 1    
    62   31   89 1    
    63   32   33 2    
    64   32   34 am   BACKBONE|DICT|INTERRES
    65   34   35 1    
    66   34   90 1    
    67   35   36 1    
    68   35   37 1    
    69   35   91 1    
    70   36   92 1    
    71   36   93 1    
    72   36   94 1    
    73   37   38 2    
    74   37   39 am   BACKBONE|DICT|INTERRES
    75   39   40 1    
    76   39   95 1    
    77   40   41 1    
    78   40   42 1    
    79   40   96 1    
    80   41   97 1    
    81   41   98 1    
    82   41   99 1    
    83   42   43 2    
    84   42   44 am   BACKBONE|DICT|INTERRES
    85   44   45 1    
    86   44  100 1    
    87   45   46 1    
    88   45   47 1    
    89   45  101 1    
    90   46  102 1    
    91   46  103 1    
    92   46  104 1    
    93   47   48 2    
    94   47   49 am   BACKBONE|DICT|INTERRES
    95   49   50 1    
    96   49  105 1    
    97   50   51 1    
    98   50   52 1    
    99   50  106 1    
   100   51  107 1    
   101   51  108 1    
   102   51  109 1    
   103   52   53 2    
   104   52   54 am   BACKBONE|DICT|INTERRES
   105   54   55 1    
   106   54  110 1    
   107   55   56 1    
   108   55   59 1    
   109   55  111 1    
   110   56   57 am   BACKBONE|DICT|INTERRES
   111   56   58 2    
   112   57  112 1    
   113   57  113 1    
   114   59   60 1    
   115   59  114 1    
   116   59  115 1    
   117   60   61 1    
   118   61  116 1    
   119   61  117 1    
@<TRIPOS>SUBSTRUCTURE
     1 UNK         1 GROUP             0       ****    0 ROOT    
