@<TRIPOS>MOLECULE
3R8
117   119    1
SMALL
USER_CHARGES


@<TRIPOS>ATOM
      1 CA         13.5706  -23.4887  -41.8752 C.3       0 UNK        -0.2013 
      2 C          14.9037  -23.7489  -42.5607 C.2       0 UNK         0.4866 
      3 O          15.8932  -23.0851  -42.2488 O.2       0 UNK        -0.5176 
      4 N          14.9338  -24.7009  -43.5009 N.am      1 UNK        -0.4884 
      5 CA         16.1351  -25.1414  -44.2169 C.3       1 UNK         0.0853 
      6 C6         15.7987  -25.8970  -45.5372 C.3       10 UNK        -0.0849 
      7 S7         14.3427  -27.0089  -45.5281 S.3       10 UNK        -0.2776 
      8 C8         14.7447  -28.3035  -44.3004 C.3       10 UNK         0.0316 
      9 C9         15.9999  -29.1356  -44.5722 C.ar      10 UNK        -0.0863 
     10 C10        16.6473  -29.7404  -43.4893 C.ar      10 UNK        -0.1009 
     11 C11        17.7512  -30.5754  -43.6856 C.ar      10 UNK        -0.0712 
     12 C12        18.2185  -30.7997  -44.9815 C.ar      10 UNK        -0.0894 
     13 C13        17.6031  -30.1809  -46.0724 C.ar      10 UNK        -0.0745 
     14 C14        16.4890  -29.3612  -45.8649 C.ar      10 UNK        -0.0972 
     15 C15        18.1274  -30.4116  -47.4801 C.3       10 UNK         0.0209 
     16 S16        19.3169  -29.1240  -47.9683 S.3       10 UNK        -0.2568 
     17 C17        20.8321  -29.6399  -47.0905 C.3       10 UNK        -0.0983 
     18 CA         21.3749  -28.5342  -46.1493 C.3       3 UNK         0.0876 
     19 N          20.4602  -28.2390  -45.0401 N.am      3 UNK        -0.4424 
     20 C          20.4356  -27.0845  -44.3649 C.2       2 UNK         0.4918 
     21 O          21.1736  -26.1294  -44.6179 O.2       2 UNK        -0.4875 
     22 CA         19.3832  -26.9401  -43.2646 C.3       2 UNK         0.0481 
     23 CB         19.9852  -26.3757  -41.9638 C.3       2 UNK        -0.1831 
     24 N          18.3481  -26.0635  -43.7934 N.am      2 UNK        -0.4498 
     25 C          17.1016  -25.9496  -43.3242 C.2       1 UNK         0.5027 
     26 O          16.7070  -26.4737  -42.2790 O.2       1 UNK        -0.4969 
     27 C          22.7920  -28.8529  -45.6242 C.2       3 UNK         0.5005 
     28 O          23.2258  -30.0058  -45.6767 O.2       3 UNK        -0.5279 
     29 N          23.4794  -27.8115  -45.1323 N.am      4 UNK        -0.4463 
     30 CA         24.8489  -27.8063  -44.6094 C.3       4 UNK         0.0283 
     31 CB         25.8625  -28.0611  -45.7495 C.3       4 UNK        -0.1875 
     32 C          25.0118  -28.7381  -43.3915 C.2       4 UNK         0.4949 
     33 O          24.1481  -28.7297  -42.5115 O.2       4 UNK        -0.5039 
     34 N          26.1298  -29.4804  -43.3352 N.am      5 UNK        -0.4663 
     35 CA         26.4946  -30.4739  -42.3125 C.3       5 UNK         0.0242 
     36 CB         25.5750  -31.7078  -42.4298 C.3       5 UNK        -0.1982 
     37 C          26.5313  -29.9107  -40.8772 C.2       5 UNK         0.5017 
     38 O          26.2177  -30.6324  -39.9312 O.2       5 UNK        -0.5012 
     39 N          26.8600  -28.6155  -40.7423 N.am      6 UNK        -0.4439 
     40 CA         26.8203  -27.8198  -39.5051 C.3       6 UNK         0.0297 
     41 CB         27.9415  -28.2622  -38.5405 C.3       6 UNK        -0.2006 
     42 C          25.4286  -27.8041  -38.8312 C.2       6 UNK         0.4892 
     43 O          25.3444  -27.7268  -37.6048 O.2       6 UNK        -0.5089 
     44 N          24.3702  -27.9059  -39.6517 N.am      7 UNK        -0.4243 
     45 CA         22.9552  -28.0499  -39.2917 C.3       7 UNK         0.0196 
     46 CB         22.4472  -26.8577  -38.4537 C.3       7 UNK        -0.2007 
     47 C          22.5926  -29.4146  -38.6716 C.2       7 UNK         0.5020 
     48 O          21.4610  -29.5803  -38.2165 O.2       7 UNK        -0.5147 
     49 N          23.5074  -30.3938  -38.7184 N.am      8 UNK        -0.4734 
     50 CA         23.2649  -31.7948  -38.3612 C.3       8 UNK         0.0238 
     51 CB         24.4585  -32.3273  -37.5464 C.3       8 UNK        -0.1912 
     52 C          22.9943  -32.6215  -39.6332 C.2       8 UNK         0.5038 
     53 O          23.5209  -33.7251  -39.7833 O.2       8 UNK        -0.5046 
     54 N          22.1867  -32.0531  -40.5363 N.am      9 UNK        -0.4200 
     55 CA         21.7732  -32.6229  -41.8259 C.3       9 UNK         0.0839 
     56 C          20.8108  -33.8432  -41.7379 C.2       9 UNK         0.5513 
     57 N          20.2232  -34.1508  -40.5877 N.am      9 UNK        -0.7519 
     58 O          20.5977  -34.5256  -42.7363 O.2       9 UNK        -0.4960 
     59 C59        21.2331  -31.5171  -42.7774 C.3       10 UNK        -0.0876 
     60 S60        19.9624  -30.4454  -42.0106 S.3       10 UNK        -0.2414 
     61 C61        18.4111  -31.2629  -42.5003 C.3       10 UNK         0.0169 
     62 H62        12.7804  -24.1319  -42.2622 H         1 UNK         0.0903 
     63 H63        13.6591  -23.6679  -40.8041 H         1 UNK         0.0903 
     64 H64        13.2675  -22.4527  -42.0240 H         1 UNK         0.0903 
     65 H65        14.0973  -25.2270  -43.7128 H         1 UNK         0.3096 
     66 H66        16.6808  -24.2365  -44.4961 H         1 UNK         0.1121 
     67 H67        16.6584  -26.4484  -45.9228 H         1 UNK         0.0849 
     68 H68        15.5911  -25.1501  -46.3050 H         1 UNK         0.0849 
     69 H69        14.7954  -27.8453  -43.3131 H         1 UNK         0.0865 
     70 H70        13.8991  -28.9909  -44.2578 H         1 UNK         0.0865 
     71 H71        16.2775  -29.5745  -42.4862 H         1 UNK         0.1346 
     72 H72        19.0580  -31.4611  -45.1401 H         1 UNK         0.1412 
     73 H73        16.0007  -28.9097  -46.7172 H         1 UNK         0.1426 
     74 H74        17.2959  -30.4049  -48.1866 H         1 UNK         0.0716 
     75 H75        18.5886  -31.3968  -47.5671 H         1 UNK         0.0716 
     76 H76        21.5714  -29.8784  -47.8577 H         1 UNK         0.0695 
     77 H77        20.6638  -30.5676  -46.5433 H         1 UNK         0.0695 
     78 H78        21.4725  -27.6307  -46.7565 H         1 UNK         0.0983 
     79 H79        19.8058  -28.9678  -44.7920 H         1 UNK         0.3095 
     80 H80        18.9445  -27.9168  -43.0585 H         1 UNK         0.0454 
     81 H81        19.2469  -26.3427  -41.1630 H         1 UNK         0.0851 
     82 H82        20.3764  -25.3671  -42.1016 H         1 UNK         0.0851 
     83 H83        20.8073  -27.0020  -41.6186 H         1 UNK         0.0851 
     84 H84        18.5995  -25.5894  -44.6512 H         1 UNK         0.2976 
     85 H85        22.9709  -26.9368  -45.0412 H         1 UNK         0.3116 
     86 H86        25.0226  -26.7961  -44.2361 H         1 UNK         0.0646 
     87 H87        25.7991  -29.0801  -46.1340 H         1 UNK         0.0847 
     88 H88        25.6872  -27.3848  -46.5862 H         1 UNK         0.0847 
     89 H89        26.8880  -27.8893  -45.4202 H         1 UNK         0.0847 
     90 H90        26.7832  -29.3905  -44.1013 H         1 UNK         0.3040 
     91 H91        27.5134  -30.7957  -42.5343 H         1 UNK         0.1015 
     92 H92        25.8913  -32.5068  -41.7578 H         1 UNK         0.0786 
     93 H93        25.5808  -32.1142  -43.4411 H         1 UNK         0.0786 
     94 H94        24.5451  -31.4583  -42.1764 H         1 UNK         0.0786 
     95 H95        27.0922  -28.1079  -41.5850 H         1 UNK         0.3172 
     96 H96        27.0242  -26.7889  -39.7979 H         1 UNK         0.0595 
     97 H97        27.7687  -29.2670  -38.1533 H         1 UNK         0.0839 
     98 H98        28.0085  -27.5916  -37.6830 H         1 UNK         0.0839 
     99 H99        28.9145  -28.2545  -39.0314 H         1 UNK         0.0839 
    100 H100       24.5531  -28.0163  -40.6449 H         1 UNK         0.2998 
    101 H101       22.4228  -28.0246  -40.2429 H         1 UNK         0.0822 
    102 H102       21.3617  -26.8878  -38.3520 H         1 UNK         0.0787 
    103 H103       22.8645  -26.8601  -37.4466 H         1 UNK         0.0787 
    104 H104       22.7001  -25.9066  -38.9221 H         1 UNK         0.0787 
    105 H105       24.4138  -30.2045  -39.1367 H         1 UNK         0.3055 
    106 H106       22.3748  -31.8761  -37.7333 H         1 UNK         0.1106 
    107 H107       24.6481  -31.7078  -36.6698 H         1 UNK         0.0828 
    108 H108       24.2671  -33.3407  -37.1913 H         1 UNK         0.0828 
    109 H109       25.3732  -32.3588  -38.1385 H         1 UNK         0.0828 
    110 H110       21.7778  -31.1567  -40.3147 H         1 UNK         0.2931 
    111 H111       22.6787  -33.0180  -42.2900 H         1 UNK         0.0412 
    112 H112       19.6064  -34.9467  -40.5450 H         1 UNK         0.3472 
    113 H113       20.3866  -33.5939  -39.7649 H         1 UNK         0.3472 
    114 H114       20.8628  -31.9416  -43.7115 H         1 UNK         0.0970 
    115 H115       22.0615  -30.8690  -43.0700 H         1 UNK         0.0970 
    116 H116       18.5853  -32.3127  -42.7361 H         1 UNK         0.0612 
    117 H117       17.7383  -31.2583  -41.6416 H         1 UNK         0.0612 
@<TRIPOS>BOND
     1    1    2 1    
     2    1   62 1    
     3    1   63 1    
     4    1   64 1    
     5    2    3 2    
     6    2    4 am   BACKBONE|DICT|INTERRES
     7    4    5 1    
     8    4   65 1    
     9    5    6 1    
    10    5   25 1    
    11    5   66 1    
    12    6    7 1    
    13    6   67 1    
    14    6   68 1    
    15    7    8 1    
    16    8    9 1    
    17    8   69 1    
    18    8   70 1    
    19    9   10 ar   
    20    9   14 ar   
    21   10   11 ar   
    22   10   71 1    
    23   11   12 ar   
    24   11   61 1    
    25   12   13 ar   
    26   12   72 1    
    27   13   14 ar   
    28   13   15 1    
    29   14   73 1    
    30   15   16 1    
    31   15   74 1    
    32   15   75 1    
    33   16   17 1    
    34   17   18 1    
    35   17   76 1    
    36   17   77 1    
    37   18   19 1    
    38   18   27 1    
    39   18   78 1    
    40   19   20 am   BACKBONE|DICT|INTERRES
    41   19   79 1    
    42   20   21 2    
    43   20   22 1    
    44   22   23 1    
    45   22   24 1    
    46   22   80 1    
    47   23   81 1    
    48   23   82 1    
    49   23   83 1    
    50   24   25 am   BACKBONE|DICT|INTERRES
    51   24   84 1    
    52   25   26 2    
    53   27   28 2    
    54   27   29 am   BACKBONE|DICT|INTERRES
    55   29   30 1    
    56   29   85 1    
    57   30   31 1    
    58   30   32 1    
    59   30   86 1    
    60   31   87 1    
    61   31   88 1    
    62   31   89 1    
    63   32   33 2    
    64   32   34 am   BACKBONE|DICT|INTERRES
    65   34   35 1    
    66   34   90 1    
    67   35   36 1    
    68   35   37 1    
    69   35   91 1    
    70   36   92 1    
    71   36   93 1    
    72   36   94 1    
    73   37   38 2    
    74   37   39 am   BACKBONE|DICT|INTERRES
    75   39   40 1    
    76   39   95 1    
    77   40   41 1    
    78   40   42 1    
    79   40   96 1    
    80   41   97 1    
    81   41   98 1    
    82   41   99 1    
    83   42   43 2    
    84   42   44 am   BACKBONE|DICT|INTERRES
    85   44   45 1    
    86   44  100 1    
    87   45   46 1    
    88   45   47 1    
    89   45  101 1    
    90   46  102 1    
    91   46  103 1    
    92   46  104 1    
    93   47   48 2    
    94   47   49 am   BACKBONE|DICT|INTERRES
    95   49   50 1    
    96   49  105 1    
    97   50   51 1    
    98   50   52 1    
    99   50  106 1    
   100   51  107 1    
   101   51  108 1    
   102   51  109 1    
   103   52   53 2    
   104   52   54 am   BACKBONE|DICT|INTERRES
   105   54   55 1    
   106   54  110 1    
   107   55   56 1    
   108   55   59 1    
   109   55  111 1    
   110   56   57 am   BACKBONE|DICT|INTERRES
   111   56   58 2    
   112   57  112 1    
   113   57  113 1    
   114   59   60 1    
   115   59  114 1    
   116   59  115 1    
   117   60   61 1    
   118   61  116 1    
   119   61  117 1    
@<TRIPOS>SUBSTRUCTURE
     1 UNK         1 GROUP             0       ****    0 ROOT    
