@<TRIPOS>MOLECULE
3R8
117   119    1
SMALL
USER_CHARGES


@<TRIPOS>ATOM
      1 CA         16.8516  -22.6827  -47.1263 C.3       0 UNK        -0.2013 
      2 C          18.1141  -23.3143  -46.5592 C.2       0 UNK         0.4866 
      3 O          19.1384  -22.6406  -46.4474 O.2       0 UNK        -0.5176 
      4 N          18.0495  -24.6044  -46.2039 N.am      1 UNK        -0.4884 
      5 CA         19.1673  -25.3801  -45.6501 C.3       1 UNK         0.0853 
      6 C6         18.8347  -26.8898  -45.5679 C.3       10 UNK        -0.0849 
      7 S7         18.4983  -27.6736  -47.1747 S.3       10 UNK        -0.2776 
      8 C8         17.4083  -29.0478  -46.6623 C.3       10 UNK         0.0316 
      9 C9         17.9741  -29.8525  -45.4943 C.ar      10 UNK        -0.0863 
     10 C10        19.1822  -30.5442  -45.6346 C.ar      10 UNK        -0.1009 
     11 C11        19.7059  -31.2781  -44.5671 C.ar      10 UNK        -0.0712 
     12 C12        19.0034  -31.3331  -43.3617 C.ar      10 UNK        -0.0894 
     13 C13        17.7940  -30.6517  -43.2034 C.ar      10 UNK        -0.0745 
     14 C14        17.2868  -29.9075  -44.2744 C.ar      10 UNK        -0.0972 
     15 C15        17.0179  -30.7622  -41.8937 C.3       10 UNK         0.0209 
     16 S16        18.0291  -30.3839  -40.4199 S.3       10 UNK        -0.2568 
     17 C17        18.0972  -28.5634  -40.4616 C.3       10 UNK        -0.0983 
     18 CA         19.3224  -28.0252  -41.2424 C.3       3 UNK         0.0876 
     19 N          19.1101  -26.6768  -41.7755 N.am      3 UNK        -0.4424 
     20 C          18.8702  -25.5285  -41.1265 C.2       2 UNK         0.4918 
     21 O          18.8159  -25.4410  -39.8994 O.2       2 UNK        -0.4875 
     22 CA         18.6356  -24.2613  -41.9818 C.3       2 UNK         0.0481 
     23 CB         19.6369  -23.1453  -41.6239 C.3       2 UNK        -0.1831 
     24 N          18.5904  -24.5017  -43.4352 N.am      2 UNK        -0.4498 
     25 C          19.5821  -24.9192  -44.2398 C.2       1 UNK         0.5027 
     26 O          20.7482  -25.0645  -43.8762 O.2       1 UNK        -0.4969 
     27 C          20.6519  -28.1678  -40.4742 C.2       3 UNK         0.5005 
     28 O          21.4828  -28.9944  -40.8533 O.2       3 UNK        -0.5279 
     29 N          20.8613  -27.3307  -39.4499 N.am      4 UNK        -0.4463 
     30 CA         22.0845  -27.2701  -38.6461 C.3       4 UNK         0.0283 
     31 CB         21.8658  -26.3421  -37.4412 C.3       4 UNK        -0.1875 
     32 C          23.3075  -26.8234  -39.4627 C.2       4 UNK         0.4949 
     33 O          24.3781  -27.4124  -39.3203 O.2       4 UNK        -0.5039 
     34 N          23.1170  -25.8318  -40.3461 N.am      5 UNK        -0.4663 
     35 CA         24.1466  -25.3425  -41.2725 C.3       5 UNK         0.0242 
     36 CB         23.6979  -24.0045  -41.8797 C.3       5 UNK        -0.1982 
     37 C          24.4901  -26.3530  -42.3830 C.2       5 UNK         0.5017 
     38 O          25.6006  -26.3141  -42.9123 O.2       5 UNK        -0.5012 
     39 N          23.5467  -27.2546  -42.6869 N.am      6 UNK        -0.4439 
     40 CA         23.7147  -28.3897  -43.5962 C.3       6 UNK         0.0297 
     41 CB         22.3731  -28.6608  -44.2968 C.3       6 UNK        -0.2006 
     42 C          24.2436  -29.6511  -42.8805 C.2       6 UNK         0.4892 
     43 O          24.3681  -30.6925  -43.5261 O.2       6 UNK        -0.5089 
     44 N          24.5436  -29.5405  -41.5752 N.am      7 UNK        -0.4243 
     45 CA         25.0762  -30.5725  -40.6798 C.3       7 UNK         0.0196 
     46 CB         26.4987  -30.9907  -41.1107 C.3       7 UNK        -0.2007 
     47 C          24.1309  -31.7728  -40.4832 C.2       7 UNK         0.5020 
     48 O          24.6057  -32.8950  -40.3037 O.2       7 UNK        -0.5147 
     49 N          22.8126  -31.5273  -40.5275 N.am      8 UNK        -0.4734 
     50 CA         21.6897  -32.4582  -40.3186 C.3       8 UNK         0.0238 
     51 CB         21.7054  -33.0256  -38.8858 C.3       8 UNK        -0.1912 
     52 C          21.5310  -33.5899  -41.3570 C.2       8 UNK         0.5038 
     53 O          20.4108  -34.0763  -41.5130 O.2       8 UNK        -0.5046 
     54 N          22.6185  -33.9632  -42.0453 N.am      9 UNK        -0.4200 
     55 CA         22.7358  -34.9709  -43.1124 C.3       9 UNK         0.0839 
     56 C          22.0597  -36.3420  -42.8014 C.2       9 UNK         0.5513 
     57 N          21.4518  -37.0077  -43.7749 N.am      9 UNK        -0.7519 
     58 O          22.1499  -36.8461  -41.6836 O.2       9 UNK        -0.4960 
     59 C59        22.5016  -34.3810  -44.5374 C.3       10 UNK        -0.0876 
     60 S60        20.8058  -33.7946  -44.8778 S.3       10 UNK        -0.2414 
     61 C61        21.0364  -32.0007  -44.6969 C.3       10 UNK         0.0169 
     62 H62        17.0364  -22.3174  -48.1361 H         1 UNK         0.0903 
     63 H63        16.0240  -23.3904  -47.1683 H         1 UNK         0.0903 
     64 H64        16.5448  -21.8385  -46.5094 H         1 UNK         0.0903 
     65 H65        17.1931  -25.1190  -46.3559 H         1 UNK         0.3096 
     66 H66        20.0328  -25.2451  -46.3031 H         1 UNK         0.1121 
     67 H67        17.9706  -27.0469  -44.9186 H         1 UNK         0.0849 
     68 H68        19.6583  -27.4463  -45.1164 H         1 UNK         0.0849 
     69 H69        16.4270  -28.6416  -46.4117 H         1 UNK         0.0865 
     70 H70        17.2530  -29.7131  -47.5127 H         1 UNK         0.0865 
     71 H71        19.7187  -30.4992  -46.5726 H         1 UNK         0.1346 
     72 H72        19.3969  -31.9154  -42.5420 H         1 UNK         0.1412 
     73 H73        16.3480  -29.3822  -44.1626 H         1 UNK         0.1426 
     74 H74        16.1348  -30.1216  -41.9029 H         1 UNK         0.0716 
     75 H75        16.6498  -31.7849  -41.8027 H         1 UNK         0.0716 
     76 H76        18.0851  -28.1861  -39.4375 H         1 UNK         0.0695 
     77 H77        17.1738  -28.2018  -40.9168 H         1 UNK         0.0695 
     78 H78        19.4349  -28.6411  -42.1357 H         1 UNK         0.0983 
     79 H79        19.1835  -26.6068  -42.7779 H         1 UNK         0.3095 
     80 H80        17.6406  -23.9032  -41.7142 H         1 UNK         0.0454 
     81 H81        19.4501  -22.2434  -42.2066 H         1 UNK         0.0851 
     82 H82        20.6681  -23.4482  -41.7978 H         1 UNK         0.0851 
     83 H83        19.5561  -22.8715  -40.5712 H         1 UNK         0.0851 
     84 H84        17.6715  -24.4291  -43.8511 H         1 UNK         0.2976 
     85 H85        20.1346  -26.6463  -39.2543 H         1 UNK         0.3116 
     86 H86        22.2861  -28.2759  -38.2710 H         1 UNK         0.0646 
     87 H87        21.0556  -26.7015  -36.8066 H         1 UNK         0.0847 
     88 H88        22.7620  -26.2902  -36.8212 H         1 UNK         0.0847 
     89 H89        21.6231  -25.3246  -37.7501 H         1 UNK         0.0847 
     90 H90        22.2067  -25.3986  -40.3987 H         1 UNK         0.3040 
     91 H91        25.0600  -25.1671  -40.6991 H         1 UNK         0.1015 
     92 H92        22.8222  -24.1246  -42.5168 H         1 UNK         0.0786 
     93 H93        24.4880  -23.5759  -42.4978 H         1 UNK         0.0786 
     94 H94        23.4595  -23.2730  -41.1075 H         1 UNK         0.0786 
     95 H95        22.6754  -27.2158  -42.1780 H         1 UNK         0.3172 
     96 H96        24.4446  -28.1273  -44.3646 H         1 UNK         0.0595 
     97 H97        21.6103  -29.0076  -43.5992 H         1 UNK         0.0839 
     98 H98        22.4852  -29.4247  -45.0660 H         1 UNK         0.0839 
     99 H99        22.0001  -27.7640  -44.7910 H         1 UNK         0.0839 
    100 H100       24.3780  -28.6459  -41.1306 H         1 UNK         0.2998 
    101 H101       25.1589  -30.1012  -39.6994 H         1 UNK         0.0822 
    102 H102       26.9577  -31.6435  -40.3672 H         1 UNK         0.0787 
    103 H103       26.4925  -31.5315  -42.0576 H         1 UNK         0.0787 
    104 H104       27.1496  -30.1237  -41.2232 H         1 UNK         0.0787 
    105 H105       22.5220  -30.5682  -40.7152 H         1 UNK         0.3055 
    106 H106       20.7931  -31.8430  -40.4129 H         1 UNK         0.1106 
    107 H107       21.7218  -32.2274  -38.1437 H         1 UNK         0.0828 
    108 H108       20.8142  -33.6252  -38.6957 H         1 UNK         0.0828 
    109 H109       22.5693  -33.6673  -38.7108 H         1 UNK         0.0828 
    110 H110       23.4933  -33.5511  -41.7393 H         1 UNK         0.2931 
    111 H111       23.7965  -35.2238  -43.0895 H         1 UNK         0.0412 
    112 H112       21.0401  -37.9059  -43.5752 H         1 UNK         0.3472 
    113 H113       21.3492  -36.5982  -44.6903 H         1 UNK         0.3472 
    114 H114       22.7675  -35.1165  -45.2980 H         1 UNK         0.0970 
    115 H115       23.1978  -33.5561  -44.6992 H         1 UNK         0.0970 
    116 H116       21.5990  -31.6284  -45.5540 H         1 UNK         0.0612 
    117 H117       21.6426  -31.7920  -43.8140 H         1 UNK         0.0612 
@<TRIPOS>BOND
     1    1    2 1    
     2    1   62 1    
     3    1   63 1    
     4    1   64 1    
     5    2    3 2    
     6    2    4 am   BACKBONE|DICT|INTERRES
     7    4    5 1    
     8    4   65 1    
     9    5    6 1    
    10    5   25 1    
    11    5   66 1    
    12    6    7 1    
    13    6   67 1    
    14    6   68 1    
    15    7    8 1    
    16    8    9 1    
    17    8   69 1    
    18    8   70 1    
    19    9   10 ar   
    20    9   14 ar   
    21   10   11 ar   
    22   10   71 1    
    23   11   12 ar   
    24   11   61 1    
    25   12   13 ar   
    26   12   72 1    
    27   13   14 ar   
    28   13   15 1    
    29   14   73 1    
    30   15   16 1    
    31   15   74 1    
    32   15   75 1    
    33   16   17 1    
    34   17   18 1    
    35   17   76 1    
    36   17   77 1    
    37   18   19 1    
    38   18   27 1    
    39   18   78 1    
    40   19   20 am   BACKBONE|DICT|INTERRES
    41   19   79 1    
    42   20   21 2    
    43   20   22 1    
    44   22   23 1    
    45   22   24 1    
    46   22   80 1    
    47   23   81 1    
    48   23   82 1    
    49   23   83 1    
    50   24   25 am   BACKBONE|DICT|INTERRES
    51   24   84 1    
    52   25   26 2    
    53   27   28 2    
    54   27   29 am   BACKBONE|DICT|INTERRES
    55   29   30 1    
    56   29   85 1    
    57   30   31 1    
    58   30   32 1    
    59   30   86 1    
    60   31   87 1    
    61   31   88 1    
    62   31   89 1    
    63   32   33 2    
    64   32   34 am   BACKBONE|DICT|INTERRES
    65   34   35 1    
    66   34   90 1    
    67   35   36 1    
    68   35   37 1    
    69   35   91 1    
    70   36   92 1    
    71   36   93 1    
    72   36   94 1    
    73   37   38 2    
    74   37   39 am   BACKBONE|DICT|INTERRES
    75   39   40 1    
    76   39   95 1    
    77   40   41 1    
    78   40   42 1    
    79   40   96 1    
    80   41   97 1    
    81   41   98 1    
    82   41   99 1    
    83   42   43 2    
    84   42   44 am   BACKBONE|DICT|INTERRES
    85   44   45 1    
    86   44  100 1    
    87   45   46 1    
    88   45   47 1    
    89   45  101 1    
    90   46  102 1    
    91   46  103 1    
    92   46  104 1    
    93   47   48 2    
    94   47   49 am   BACKBONE|DICT|INTERRES
    95   49   50 1    
    96   49  105 1    
    97   50   51 1    
    98   50   52 1    
    99   50  106 1    
   100   51  107 1    
   101   51  108 1    
   102   51  109 1    
   103   52   53 2    
   104   52   54 am   BACKBONE|DICT|INTERRES
   105   54   55 1    
   106   54  110 1    
   107   55   56 1    
   108   55   59 1    
   109   55  111 1    
   110   56   57 am   BACKBONE|DICT|INTERRES
   111   56   58 2    
   112   57  112 1    
   113   57  113 1    
   114   59   60 1    
   115   59  114 1    
   116   59  115 1    
   117   60   61 1    
   118   61  116 1    
   119   61  117 1    
@<TRIPOS>SUBSTRUCTURE
     1 UNK         1 GROUP             0       ****    0 ROOT    
