@<TRIPOS>MOLECULE
3R8
117   119    1
SMALL
USER_CHARGES


@<TRIPOS>ATOM
      1 CA         18.9374  -28.2612  -41.1364 C.3       0 UNK        -0.2013 
      2 C          18.3495  -27.4926  -42.3060 C.2       0 UNK         0.4866 
      3 O          19.0331  -27.2642  -43.3062 O.2       0 UNK        -0.5176 
      4 N          17.0816  -27.0833  -42.1651 N.am      1 UNK        -0.4884 
      5 CA         16.2883  -26.3362  -43.1506 C.3       1 UNK         0.0853 
      6 C6         15.9370  -27.1801  -44.4121 C.3       10 UNK        -0.0849 
      7 S7         15.1165  -28.7575  -43.9874 S.3       10 UNK        -0.2776 
      8 C8         15.4805  -29.7954  -45.4426 C.3       10 UNK         0.0316 
      9 C9         16.9734  -30.0120  -45.6572 C.ar      10 UNK        -0.0863 
     10 C10        17.7149  -30.7904  -44.7617 C.ar      10 UNK        -0.1009 
     11 C11        19.0860  -30.9851  -44.9592 C.ar      10 UNK        -0.0712 
     12 C12        19.7138  -30.3977  -46.0611 C.ar      10 UNK        -0.0894 
     13 C13        18.9843  -29.6135  -46.9591 C.ar      10 UNK        -0.0745 
     14 C14        17.6132  -29.4331  -46.7579 C.ar      10 UNK        -0.0972 
     15 C15        19.6789  -28.9516  -48.1408 C.3       10 UNK         0.0209 
     16 S16        19.8021  -27.1454  -47.9379 S.3       10 UNK        -0.2568 
     17 C17        20.8898  -27.0188  -46.4795 C.3       10 UNK        -0.0983 
     18 CA         20.9510  -25.5788  -45.9145 C.3       3 UNK         0.0876 
     19 N          19.6326  -25.0778  -45.5251 N.am      3 UNK        -0.4424 
     20 C          19.2911  -23.7829  -45.4777 C.2       2 UNK         0.4918 
     21 O          20.0844  -22.8616  -45.6736 O.2       2 UNK        -0.4875 
     22 CA         17.8096  -23.4445  -45.2152 C.3       2 UNK         0.0481 
     23 CB         17.1524  -22.9070  -46.4974 C.3       2 UNK        -0.1831 
     24 N          17.0426  -24.5996  -44.7423 N.am      2 UNK        -0.4498 
     25 C          16.9602  -24.9763  -43.4594 C.2       1 UNK         0.5027 
     26 O          17.4075  -24.3020  -42.5277 O.2       1 UNK        -0.4969 
     27 C          21.9489  -25.5027  -44.7476 C.2       3 UNK         0.5005 
     28 O          23.0407  -24.9608  -44.9279 O.2       3 UNK        -0.5279 
     29 N          21.5634  -26.0677  -43.5898 N.am      4 UNK        -0.4463 
     30 CA         22.3866  -26.2684  -42.3872 C.3       4 UNK         0.0283 
     31 CB         22.6652  -24.9228  -41.6860 C.3       4 UNK        -0.1875 
     32 C          23.6688  -27.0701  -42.6955 C.2       4 UNK         0.4949 
     33 O          24.7692  -26.6517  -42.3325 O.2       4 UNK        -0.5039 
     34 N          23.4958  -28.1861  -43.4190 N.am      5 UNK        -0.4663 
     35 CA         24.5742  -28.9603  -44.0426 C.3       5 UNK         0.0242 
     36 CB         23.9571  -29.9741  -45.0209 C.3       5 UNK        -0.1982 
     37 C          25.5220  -29.6709  -43.0602 C.2       5 UNK         0.5017 
     38 O          26.6749  -29.9170  -43.4171 O.2       5 UNK        -0.5012 
     39 N          25.0302  -29.9950  -41.8602 N.am      6 UNK        -0.4439 
     40 CA         25.7458  -30.6919  -40.7946 C.3       6 UNK         0.0297 
     41 CB         25.9546  -32.1750  -41.1675 C.3       6 UNK        -0.2006 
     42 C          24.9263  -30.5784  -39.5065 C.2       6 UNK         0.4892 
     43 O          23.7292  -30.2872  -39.5718 O.2       6 UNK        -0.5089 
     44 N          25.5614  -30.8736  -38.3649 N.am      7 UNK        -0.4243 
     45 CA         24.9136  -30.9312  -37.0483 C.3       7 UNK         0.0196 
     46 CB         25.9868  -31.0676  -35.9562 C.3       7 UNK        -0.2007 
     47 C          23.8736  -32.0615  -36.9275 C.2       7 UNK         0.5020 
     48 O          22.8964  -31.9079  -36.1955 O.2       7 UNK        -0.5147 
     49 N          24.0895  -33.1647  -37.6594 N.am      8 UNK        -0.4734 
     50 CA         23.1451  -34.2812  -37.7769 C.3       8 UNK         0.0238 
     51 CB         23.8912  -35.5212  -38.2962 C.3       8 UNK        -0.1912 
     52 C          21.9451  -33.9565  -38.6862 C.2       8 UNK         0.5038 
     53 O          20.8778  -34.5435  -38.5063 O.2       8 UNK        -0.5046 
     54 N          22.1456  -33.0389  -39.6407 N.am      9 UNK        -0.4200 
     55 CA         21.1060  -32.4747  -40.5091 C.3       9 UNK         0.0839 
     56 C          20.2732  -31.4178  -39.7315 C.2       9 UNK         0.5513 
     57 N          20.9118  -30.4248  -39.1247 N.am      9 UNK        -0.7519 
     58 O          19.0513  -31.5174  -39.6559 O.2       9 UNK        -0.4960 
     59 C59        21.7308  -31.9830  -41.8511 C.3       10 UNK        -0.0876 
     60 S60        20.7966  -30.7505  -42.8217 S.3       10 UNK        -0.2414 
     61 C61        19.8991  -31.8189  -43.9825 C.3       10 UNK         0.0169 
     62 H62        18.5667  -29.2852  -41.1492 H         1 UNK         0.0903 
     63 H63        20.0236  -28.2957  -41.1968 H         1 UNK         0.0903 
     64 H64        18.6657  -27.8049  -40.1851 H         1 UNK         0.0903 
     65 H65        16.5982  -27.2899  -41.3024 H         1 UNK         0.3096 
     66 H66        15.3492  -26.0849  -42.6549 H         1 UNK         0.1121 
     67 H67        15.2631  -26.6327  -45.0733 H         1 UNK         0.0849 
     68 H68        16.8416  -27.3892  -44.9841 H         1 UNK         0.0849 
     69 H69        14.9957  -30.7641  -45.3138 H         1 UNK         0.0865 
     70 H70        15.0225  -29.3432  -46.3238 H         1 UNK         0.0865 
     71 H71        17.2254  -31.2330  -43.9049 H         1 UNK         0.1346 
     72 H72        20.7761  -30.5382  -46.2065 H         1 UNK         0.1412 
     73 H73        17.0507  -28.8242  -47.4527 H         1 UNK         0.1426 
     74 H74        19.1208  -29.1676  -49.0528 H         1 UNK         0.0716 
     75 H75        20.6782  -29.3644  -48.2878 H         1 UNK         0.0716 
     76 H76        20.5352  -27.7081  -45.7114 H         1 UNK         0.0695 
     77 H77        21.8846  -27.3625  -46.7698 H         1 UNK         0.0695 
     78 H78        21.3368  -24.9337  -46.7077 H         1 UNK         0.0983 
     79 H79        18.9428  -25.7787  -45.2970 H         1 UNK         0.3095 
     80 H80        17.7794  -22.6518  -44.4647 H         1 UNK         0.0454 
     81 H81        17.6733  -22.0202  -46.8612 H         1 UNK         0.0851 
     82 H82        17.1676  -23.6446  -47.3009 H         1 UNK         0.0851 
     83 H83        16.1153  -22.6206  -46.3225 H         1 UNK         0.0851 
     84 H84        16.6326  -25.1883  -45.4528 H         1 UNK         0.2976 
     85 H85        20.6312  -26.4841  -43.5536 H         1 UNK         0.3116 
     86 H86        21.7990  -26.8796  -41.7027 H         1 UNK         0.0646 
     87 H87        23.1921  -25.0763  -40.7435 H         1 UNK         0.0847 
     88 H88        21.7386  -24.3966  -41.4574 H         1 UNK         0.0847 
     89 H89        23.2819  -24.2651  -42.2992 H         1 UNK         0.0847 
     90 H90        22.5515  -28.4620  -43.6501 H         1 UNK         0.3040 
     91 H91        25.1838  -28.2609  -44.6194 H         1 UNK         0.1015 
     92 H92        23.3457  -29.4793  -45.7758 H         1 UNK         0.0786 
     93 H93        23.3317  -30.7038  -44.5058 H         1 UNK         0.0786 
     94 H94        24.7340  -30.5289  -45.5488 H         1 UNK         0.0786 
     95 H95        24.0904  -29.7080  -41.6141 H         1 UNK         0.3172 
     96 H96        26.7107  -30.2055  -40.6380 H         1 UNK         0.0595 
     97 H97        26.5661  -32.2811  -42.0635 H         1 UNK         0.0839 
     98 H98        25.0078  -32.6836  -41.3523 H         1 UNK         0.0839 
     99 H99        26.4681  -32.7171  -40.3726 H         1 UNK         0.0839 
    100 H100       26.5456  -31.0999  -38.3974 H         1 UNK         0.2998 
    101 H101       24.3863  -29.9869  -36.8943 H         1 UNK         0.0822 
    102 H102       26.6817  -30.2277  -35.9751 H         1 UNK         0.0787 
    103 H103       25.5329  -31.0875  -34.9642 H         1 UNK         0.0787 
    104 H104       26.5646  -31.9859  -36.0684 H         1 UNK         0.0787 
    105 H105       24.9392  -33.2219  -38.2015 H         1 UNK         0.3055 
    106 H106       22.7497  -34.5088  -36.7840 H         1 UNK         0.1106 
    107 H107       24.3161  -35.3545  -39.2869 H         1 UNK         0.0828 
    108 H108       24.7019  -35.8067  -37.6256 H         1 UNK         0.0828 
    109 H109       23.2190  -36.3774  -38.3705 H         1 UNK         0.0828 
    110 H110       23.0321  -32.5585  -39.6488 H         1 UNK         0.2931 
    111 H111       20.4152  -33.2791  -40.7709 H         1 UNK         0.0412 
    112 H112       20.3882  -29.7459  -38.5977 H         1 UNK         0.3472 
    113 H113       21.9213  -30.3363  -39.2094 H         1 UNK         0.3472 
    114 H114       21.9584  -32.8424  -42.4833 H         1 UNK         0.0970 
    115 H115       22.6954  -31.5192  -41.6549 H         1 UNK         0.0970 
    116 H116       19.2524  -32.4966  -43.4229 H         1 UNK         0.0612 
    117 H117       20.6082  -32.4409  -44.5309 H         1 UNK         0.0612 
@<TRIPOS>BOND
     1    1    2 1    
     2    1   62 1    
     3    1   63 1    
     4    1   64 1    
     5    2    3 2    
     6    2    4 am   BACKBONE|DICT|INTERRES
     7    4    5 1    
     8    4   65 1    
     9    5    6 1    
    10    5   25 1    
    11    5   66 1    
    12    6    7 1    
    13    6   67 1    
    14    6   68 1    
    15    7    8 1    
    16    8    9 1    
    17    8   69 1    
    18    8   70 1    
    19    9   10 ar   
    20    9   14 ar   
    21   10   11 ar   
    22   10   71 1    
    23   11   12 ar   
    24   11   61 1    
    25   12   13 ar   
    26   12   72 1    
    27   13   14 ar   
    28   13   15 1    
    29   14   73 1    
    30   15   16 1    
    31   15   74 1    
    32   15   75 1    
    33   16   17 1    
    34   17   18 1    
    35   17   76 1    
    36   17   77 1    
    37   18   19 1    
    38   18   27 1    
    39   18   78 1    
    40   19   20 am   BACKBONE|DICT|INTERRES
    41   19   79 1    
    42   20   21 2    
    43   20   22 1    
    44   22   23 1    
    45   22   24 1    
    46   22   80 1    
    47   23   81 1    
    48   23   82 1    
    49   23   83 1    
    50   24   25 am   BACKBONE|DICT|INTERRES
    51   24   84 1    
    52   25   26 2    
    53   27   28 2    
    54   27   29 am   BACKBONE|DICT|INTERRES
    55   29   30 1    
    56   29   85 1    
    57   30   31 1    
    58   30   32 1    
    59   30   86 1    
    60   31   87 1    
    61   31   88 1    
    62   31   89 1    
    63   32   33 2    
    64   32   34 am   BACKBONE|DICT|INTERRES
    65   34   35 1    
    66   34   90 1    
    67   35   36 1    
    68   35   37 1    
    69   35   91 1    
    70   36   92 1    
    71   36   93 1    
    72   36   94 1    
    73   37   38 2    
    74   37   39 am   BACKBONE|DICT|INTERRES
    75   39   40 1    
    76   39   95 1    
    77   40   41 1    
    78   40   42 1    
    79   40   96 1    
    80   41   97 1    
    81   41   98 1    
    82   41   99 1    
    83   42   43 2    
    84   42   44 am   BACKBONE|DICT|INTERRES
    85   44   45 1    
    86   44  100 1    
    87   45   46 1    
    88   45   47 1    
    89   45  101 1    
    90   46  102 1    
    91   46  103 1    
    92   46  104 1    
    93   47   48 2    
    94   47   49 am   BACKBONE|DICT|INTERRES
    95   49   50 1    
    96   49  105 1    
    97   50   51 1    
    98   50   52 1    
    99   50  106 1    
   100   51  107 1    
   101   51  108 1    
   102   51  109 1    
   103   52   53 2    
   104   52   54 am   BACKBONE|DICT|INTERRES
   105   54   55 1    
   106   54  110 1    
   107   55   56 1    
   108   55   59 1    
   109   55  111 1    
   110   56   57 am   BACKBONE|DICT|INTERRES
   111   56   58 2    
   112   57  112 1    
   113   57  113 1    
   114   59   60 1    
   115   59  114 1    
   116   59  115 1    
   117   60   61 1    
   118   61  116 1    
   119   61  117 1    
@<TRIPOS>SUBSTRUCTURE
     1 UNK         1 GROUP             0       ****    0 ROOT    
