@<TRIPOS>MOLECULE
3R8
117   119    1
SMALL
USER_CHARGES


@<TRIPOS>ATOM
      1 CA         15.1483  -22.5737  -46.7014 C.3       0 UNK        -0.2013 
      2 C          16.6156  -22.8905  -46.9473 C.2       0 UNK         0.4866 
      3 O          17.4255  -21.9745  -47.0887 O.2       0 UNK        -0.5176 
      4 N          16.9674  -24.1819  -46.9915 N.am      1 UNK        -0.4884 
      5 CA         18.3297  -24.6797  -47.2317 C.3       1 UNK         0.0853 
      6 C6         18.3125  -26.0513  -47.9576 C.3       10 UNK        -0.0849 
      7 S7         17.4330  -27.3738  -47.0530 S.3       10 UNK        -0.2776 
      8 C8         18.8480  -28.3328  -46.4106 C.3       10 UNK         0.0316 
      9 C9         18.4641  -29.4874  -45.4890 C.ar      10 UNK        -0.0863 
     10 C10        19.2692  -30.6307  -45.4591 C.ar      10 UNK        -0.1009 
     11 C11        19.0005  -31.6725  -44.5662 C.ar      10 UNK        -0.0712 
     12 C12        17.9071  -31.5715  -43.7020 C.ar      10 UNK        -0.0894 
     13 C13        17.0928  -30.4365  -43.7204 C.ar      10 UNK        -0.0745 
     14 C14        17.3690  -29.4042  -44.6208 C.ar      10 UNK        -0.0972 
     15 C15        15.9323  -30.3155  -42.7460 C.3       10 UNK         0.0209 
     16 S16        16.4849  -29.6491  -41.1442 S.3       10 UNK        -0.2568 
     17 C17        16.7412  -27.8826  -41.5321 C.3       10 UNK        -0.0983 
     18 CA         18.2194  -27.5179  -41.8249 C.3       3 UNK         0.0876 
     19 N          18.3175  -26.1931  -42.4419 N.am      3 UNK        -0.4424 
     20 C          19.4405  -25.6305  -42.9068 C.2       2 UNK         0.4918 
     21 O          20.5398  -26.1880  -42.9099 O.2       2 UNK        -0.4875 
     22 CA         19.2737  -24.2122  -43.4805 C.3       2 UNK         0.0481 
     23 CB         20.5789  -23.3882  -43.4586 C.3       2 UNK        -0.1831 
     24 N          18.6732  -24.2483  -44.8196 N.am      2 UNK        -0.4498 
     25 C          19.2194  -24.6920  -45.9644 C.2       1 UNK         0.5027 
     26 O          20.3771  -25.1008  -46.0602 O.2       1 UNK        -0.4969 
     27 C          19.1017  -27.6226  -40.5635 C.2       3 UNK         0.5005 
     28 O          18.9928  -26.7766  -39.6725 O.2       3 UNK        -0.5279 
     29 N          19.9542  -28.6579  -40.5314 N.am      4 UNK        -0.4463 
     30 CA         20.8825  -29.0235  -39.4530 C.3       4 UNK         0.0283 
     31 CB         20.1091  -29.4180  -38.1771 C.3       4 UNK        -0.1875 
     32 C          21.9927  -27.9911  -39.1682 C.2       4 UNK         0.4949 
     33 O          22.6321  -28.0714  -38.1185 O.2       4 UNK        -0.5039 
     34 N          22.2336  -27.0572  -40.0997 N.am      5 UNK        -0.4663 
     35 CA         23.2825  -26.0386  -39.9848 C.3       5 UNK         0.0242 
     36 CB         22.9428  -24.8600  -40.9094 C.3       5 UNK        -0.1982 
     37 C          24.6909  -26.5774  -40.2926 C.2       5 UNK         0.5017 
     38 O          25.6718  -25.9568  -39.8802 O.2       5 UNK        -0.5012 
     39 N          24.7724  -27.7042  -41.0092 N.am      6 UNK        -0.4439 
     40 CA         25.9996  -28.3783  -41.4181 C.3       6 UNK         0.0297 
     41 CB         26.6434  -27.6257  -42.6009 C.3       6 UNK        -0.2006 
     42 C          25.6695  -29.8275  -41.7998 C.2       6 UNK         0.4892 
     43 O          24.4916  -30.1706  -41.9432 O.2       6 UNK        -0.5089 
     44 N          26.7287  -30.6280  -41.9864 N.am      7 UNK        -0.4243 
     45 CA         26.7232  -32.0313  -42.4172 C.3       7 UNK         0.0196 
     46 CB         26.1553  -32.1529  -43.8517 C.3       7 UNK        -0.2007 
     47 C          26.0379  -32.9740  -41.4065 C.2       7 UNK         0.5020 
     48 O          25.9332  -32.6489  -40.2221 O.2       7 UNK        -0.5147 
     49 N          25.6003  -34.1440  -41.8887 N.am      8 UNK        -0.4734 
     50 CA         24.9140  -35.1809  -41.1088 C.3       8 UNK         0.0238 
     51 CB         25.0435  -36.5215  -41.8533 C.3       8 UNK        -0.1912 
     52 C          23.4346  -34.8631  -40.8118 C.2       8 UNK         0.5038 
     53 O          22.7811  -35.6522  -40.1280 O.2       8 UNK        -0.5046 
     54 N          22.9280  -33.7404  -41.3377 N.am      9 UNK        -0.4200 
     55 CA         21.5458  -33.2647  -41.1826 C.3       9 UNK         0.0839 
     56 C          21.1447  -32.8769  -39.7300 C.2       9 UNK         0.5513 
     57 N          22.0841  -32.6251  -38.8258 N.am      9 UNK        -0.7519 
     58 O          19.9584  -32.8034  -39.4238 O.2       9 UNK        -0.4960 
     59 C59        21.2371  -32.0992  -42.1573 C.3       10 UNK        -0.0876 
     60 S60        21.5667  -32.5189  -43.9044 S.3       10 UNK        -0.2414 
     61 C61        19.8987  -32.9015  -44.5288 C.3       10 UNK         0.0169 
     62 H62        14.5492  -23.4769  -46.5869 H         1 UNK         0.0903 
     63 H63        15.0390  -21.9771  -45.7961 H         1 UNK         0.0903 
     64 H64        14.7434  -22.0026  -47.5364 H         1 UNK         0.0903 
     65 H65        16.2659  -24.8999  -46.8670 H         1 UNK         0.3096 
     66 H66        18.8224  -23.9796  -47.9108 H         1 UNK         0.1121 
     67 H67        17.8195  -25.9354  -48.9241 H         1 UNK         0.0849 
     68 H68        19.3276  -26.3745  -48.1969 H         1 UNK         0.0849 
     69 H69        19.4210  -28.7083  -47.2600 H         1 UNK         0.0865 
     70 H70        19.5128  -27.6706  -45.8551 H         1 UNK         0.0865 
     71 H71        20.1274  -30.7042  -46.1136 H         1 UNK         0.1346 
     72 H72        17.6983  -32.3677  -43.0002 H         1 UNK         0.1412 
     73 H73        16.7478  -28.5196  -44.6165 H         1 UNK         0.1426 
     74 H74        15.4869  -31.2980  -42.5825 H         1 UNK         0.0716 
     75 H75        15.1401  -29.6894  -43.1595 H         1 UNK         0.0716 
     76 H76        16.1138  -27.6247  -42.3864 H         1 UNK         0.0695 
     77 H77        16.3572  -27.2896  -40.6997 H         1 UNK         0.0695 
     78 H78        18.6092  -28.2198  -42.5628 H         1 UNK         0.0983 
     79 H79        17.4661  -25.6519  -42.4611 H         1 UNK         0.3095 
     80 H80        18.5595  -23.6877  -42.8437 H         1 UNK         0.0454 
     81 H81        20.9125  -23.2246  -42.4344 H         1 UNK         0.0851 
     82 H82        20.4364  -22.4068  -43.9105 H         1 UNK         0.0851 
     83 H83        21.3935  -23.8846  -43.9865 H         1 UNK         0.0851 
     84 H84        17.7123  -23.9416  -44.8749 H         1 UNK         0.2976 
     85 H85        19.9634  -29.2757  -41.3307 H         1 UNK         0.3116 
     86 H86        21.4053  -29.9128  -39.8039 H         1 UNK         0.0646 
     87 H87        19.6157  -28.5599  -37.7201 H         1 UNK         0.0847 
     88 H88        19.3485  -30.1690  -38.3913 H         1 UNK         0.0847 
     89 H89        20.7777  -29.8446  -37.4286 H         1 UNK         0.0847 
     90 H90        21.6602  -27.0340  -40.9337 H         1 UNK         0.3040 
     91 H91        23.2965  -25.6674  -38.9573 H         1 UNK         0.1015 
     92 H92        23.6826  -24.0636  -40.8176 H         1 UNK         0.0786 
     93 H93        21.9730  -24.4320  -40.6560 H         1 UNK         0.0786 
     94 H94        22.9168  -25.1622  -41.9571 H         1 UNK         0.0786 
     95 H95        23.9251  -28.1932  -41.2716 H         1 UNK         0.3172 
     96 H96        26.6908  -28.3987  -40.5729 H         1 UNK         0.0595 
     97 H97        27.5660  -28.1076  -42.9260 H         1 UNK         0.0839 
     98 H98        26.8992  -26.6006  -42.3325 H         1 UNK         0.0839 
     99 H99        25.9748  -27.5875  -43.4619 H         1 UNK         0.0839 
    100 H100       27.6442  -30.2430  -41.7996 H         1 UNK         0.2998 
    101 H101       27.7701  -32.3371  -42.4490 H         1 UNK         0.0822 
    102 H102       26.3603  -33.1322  -44.2850 H         1 UNK         0.0787 
    103 H103       26.6081  -31.4174  -44.5170 H         1 UNK         0.0787 
    104 H104       25.0755  -31.9986  -43.8774 H         1 UNK         0.0787 
    105 H105       25.7262  -34.3324  -42.8734 H         1 UNK         0.3055 
    106 H106       25.4155  -35.2767  -40.1430 H         1 UNK         0.1106 
    107 H107       26.0882  -36.7870  -42.0160 H         1 UNK         0.0828 
    108 H108       24.5932  -37.3339  -41.2810 H         1 UNK         0.0828 
    109 H109       24.5471  -36.4941  -42.8241 H         1 UNK         0.0828 
    110 H110       23.5381  -33.1507  -41.8837 H         1 UNK         0.2931 
    111 H111       20.8984  -34.0993  -41.4592 H         1 UNK         0.0412 
    112 H112       21.8133  -32.3872  -37.8851 H         1 UNK         0.3472 
    113 H113       23.0599  -32.6825  -39.0724 H         1 UNK         0.3472 
    114 H114       20.2012  -31.7751  -42.0500 H         1 UNK         0.0970 
    115 H115       21.8499  -31.2308  -41.9084 H         1 UNK         0.0970 
    116 H116       19.4603  -33.6904  -43.9155 H         1 UNK         0.0612 
    117 H117       19.9864  -33.3090  -45.5369 H         1 UNK         0.0612 
@<TRIPOS>BOND
     1    1    2 1    
     2    1   62 1    
     3    1   63 1    
     4    1   64 1    
     5    2    3 2    
     6    2    4 am   BACKBONE|DICT|INTERRES
     7    4    5 1    
     8    4   65 1    
     9    5    6 1    
    10    5   25 1    
    11    5   66 1    
    12    6    7 1    
    13    6   67 1    
    14    6   68 1    
    15    7    8 1    
    16    8    9 1    
    17    8   69 1    
    18    8   70 1    
    19    9   10 ar   
    20    9   14 ar   
    21   10   11 ar   
    22   10   71 1    
    23   11   12 ar   
    24   11   61 1    
    25   12   13 ar   
    26   12   72 1    
    27   13   14 ar   
    28   13   15 1    
    29   14   73 1    
    30   15   16 1    
    31   15   74 1    
    32   15   75 1    
    33   16   17 1    
    34   17   18 1    
    35   17   76 1    
    36   17   77 1    
    37   18   19 1    
    38   18   27 1    
    39   18   78 1    
    40   19   20 am   BACKBONE|DICT|INTERRES
    41   19   79 1    
    42   20   21 2    
    43   20   22 1    
    44   22   23 1    
    45   22   24 1    
    46   22   80 1    
    47   23   81 1    
    48   23   82 1    
    49   23   83 1    
    50   24   25 am   BACKBONE|DICT|INTERRES
    51   24   84 1    
    52   25   26 2    
    53   27   28 2    
    54   27   29 am   BACKBONE|DICT|INTERRES
    55   29   30 1    
    56   29   85 1    
    57   30   31 1    
    58   30   32 1    
    59   30   86 1    
    60   31   87 1    
    61   31   88 1    
    62   31   89 1    
    63   32   33 2    
    64   32   34 am   BACKBONE|DICT|INTERRES
    65   34   35 1    
    66   34   90 1    
    67   35   36 1    
    68   35   37 1    
    69   35   91 1    
    70   36   92 1    
    71   36   93 1    
    72   36   94 1    
    73   37   38 2    
    74   37   39 am   BACKBONE|DICT|INTERRES
    75   39   40 1    
    76   39   95 1    
    77   40   41 1    
    78   40   42 1    
    79   40   96 1    
    80   41   97 1    
    81   41   98 1    
    82   41   99 1    
    83   42   43 2    
    84   42   44 am   BACKBONE|DICT|INTERRES
    85   44   45 1    
    86   44  100 1    
    87   45   46 1    
    88   45   47 1    
    89   45  101 1    
    90   46  102 1    
    91   46  103 1    
    92   46  104 1    
    93   47   48 2    
    94   47   49 am   BACKBONE|DICT|INTERRES
    95   49   50 1    
    96   49  105 1    
    97   50   51 1    
    98   50   52 1    
    99   50  106 1    
   100   51  107 1    
   101   51  108 1    
   102   51  109 1    
   103   52   53 2    
   104   52   54 am   BACKBONE|DICT|INTERRES
   105   54   55 1    
   106   54  110 1    
   107   55   56 1    
   108   55   59 1    
   109   55  111 1    
   110   56   57 am   BACKBONE|DICT|INTERRES
   111   56   58 2    
   112   57  112 1    
   113   57  113 1    
   114   59   60 1    
   115   59  114 1    
   116   59  115 1    
   117   60   61 1    
   118   61  116 1    
   119   61  117 1    
@<TRIPOS>SUBSTRUCTURE
     1 UNK         1 GROUP             0       ****    0 ROOT    
