@<TRIPOS>MOLECULE
3R8
117   119    1
SMALL
USER_CHARGES


@<TRIPOS>ATOM
      1 CA         17.2787  -22.7324  -47.7379 C.3       0 UNK        -0.2013 
      2 C          15.9666  -23.0725  -47.0345 C.2       0 UNK         0.4866 
      3 O          15.1067  -22.2022  -46.9111 O.2       0 UNK        -0.5176 
      4 N          15.7517  -24.3123  -46.5713 N.am      1 UNK        -0.4884 
      5 CA         16.7001  -25.4323  -46.5614 C.3       1 UNK         0.0853 
      6 C6         15.9629  -26.7727  -46.3162 C.3       10 UNK        -0.0849 
      7 S7         16.9076  -28.2140  -46.9171 S.3       10 UNK        -0.2776 
      8 C8         15.8490  -29.5894  -46.3677 C.3       10 UNK         0.0316 
      9 C9         16.1624  -30.0184  -44.9407 C.ar      10 UNK        -0.0863 
     10 C10        17.0882  -31.0411  -44.7047 C.ar      10 UNK        -0.1009 
     11 C11        17.3467  -31.4741  -43.4009 C.ar      10 UNK        -0.0712 
     12 C12        16.6797  -30.8747  -42.3314 C.ar      10 UNK        -0.0894 
     13 C13        15.7822  -29.8276  -42.5499 C.ar      10 UNK        -0.0745 
     14 C14        15.5133  -29.4144  -43.8583 C.ar      10 UNK        -0.0972 
     15 C15        15.1223  -29.1369  -41.3654 C.3       10 UNK         0.0209 
     16 S16        16.3542  -28.3921  -40.2452 S.3       10 UNK        -0.2568 
     17 C17        17.1442  -27.1530  -41.3276 C.3       10 UNK        -0.0983 
     18 CA         18.5142  -27.6056  -41.9003 C.3       3 UNK         0.0876 
     19 N          18.9340  -26.7004  -42.9682 N.am      3 UNK        -0.4424 
     20 C          19.9950  -26.8378  -43.7709 C.2       2 UNK         0.4918 
     21 O          20.7940  -27.7740  -43.7051 O.2       2 UNK        -0.4875 
     22 CA         20.1484  -25.7556  -44.8600 C.3       2 UNK         0.0481 
     23 CB         21.4289  -25.9198  -45.6972 C.3       2 UNK        -0.1831 
     24 N          18.9976  -25.7538  -45.7663 N.am      2 UNK        -0.4498 
     25 C          17.8017  -25.2127  -45.5039 C.2       1 UNK         0.5027 
     26 O          17.5443  -24.6037  -44.4615 O.2       1 UNK        -0.4969 
     27 C          19.6042  -27.7133  -40.8132 C.2       3 UNK         0.5005 
     28 O          19.8426  -26.7311  -40.1061 O.2       3 UNK        -0.5279 
     29 N          20.2430  -28.8921  -40.7202 N.am      4 UNK        -0.4463 
     30 CA         21.3098  -29.2554  -39.7768 C.3       4 UNK         0.0283 
     31 CB         20.7260  -29.4425  -38.3613 C.3       4 UNK        -0.1875 
     32 C          22.5023  -28.2773  -39.8098 C.2       4 UNK         0.4949 
     33 O          22.8815  -27.7253  -38.7754 O.2       4 UNK        -0.5039 
     34 N          23.0439  -28.0586  -41.0166 N.am      5 UNK        -0.4663 
     35 CA         24.1396  -27.1271  -41.3068 C.3       5 UNK         0.0242 
     36 CB         24.4108  -27.1323  -42.8186 C.3       5 UNK        -0.1982 
     37 C          25.4401  -27.4084  -40.5330 C.2       5 UNK         0.5017 
     38 O          26.1173  -26.4619  -40.1290 O.2       5 UNK        -0.5012 
     39 N          25.7559  -28.6918  -40.3357 N.am      6 UNK        -0.4439 
     40 CA         26.8816  -29.1749  -39.5415 C.3       6 UNK         0.0297 
     41 CB         28.1576  -29.2214  -40.4113 C.3       6 UNK        -0.2006 
     42 C          26.4735  -30.5200  -38.9222 C.2       6 UNK         0.4892 
     43 O          25.3757  -30.6188  -38.3708 O.2       6 UNK        -0.5089 
     44 N          27.3298  -31.5439  -39.0502 N.am      7 UNK        -0.4243 
     45 CA         27.0278  -32.9357  -38.6900 C.3       7 UNK         0.0196 
     46 CB         28.3298  -33.7532  -38.7078 C.3       7 UNK        -0.2007 
     47 C          25.9699  -33.5834  -39.6076 C.2       7 UNK         0.5020 
     48 O          25.3689  -34.5878  -39.2259 O.2       7 UNK        -0.5147 
     49 N          25.7581  -32.9919  -40.7875 N.am      8 UNK        -0.4734 
     50 CA         24.6964  -33.3005  -41.7365 C.3       8 UNK         0.0238 
     51 CB         25.2927  -34.0873  -42.9172 C.3       8 UNK        -0.1912 
     52 C          24.0699  -31.9797  -42.2079 C.2       8 UNK         0.5038 
     53 O          24.6173  -30.9033  -41.9427 O.2       8 UNK        -0.5046 
     54 N          22.9323  -32.0895  -42.8986 N.am      9 UNK        -0.4200 
     55 CA         22.2270  -30.9677  -43.5332 C.3       9 UNK         0.0839 
     56 C          22.9632  -30.4489  -44.7988 C.2       9 UNK         0.5513 
     57 N          22.7081  -29.2107  -45.1900 N.am      9 UNK        -0.7519 
     58 O          23.7285  -31.1627  -45.4447 O.2       9 UNK        -0.4960 
     59 C59        20.7523  -31.3258  -43.8500 C.3       10 UNK        -0.0876 
     60 S60        19.8635  -31.9296  -42.3761 S.3       10 UNK        -0.2414 
     61 C61        18.3443  -32.5864  -43.1277 C.3       10 UNK         0.0169 
     62 H62        18.1143  -22.7556  -47.0393 H         1 UNK         0.0903 
     63 H63        17.4802  -23.4209  -48.5575 H         1 UNK         0.0903 
     64 H64        17.2325  -21.7289  -48.1608 H         1 UNK         0.0903 
     65 H65        14.8818  -24.4880  -46.0889 H         1 UNK         0.3096 
     66 H66        17.1677  -25.4779  -47.5469 H         1 UNK         0.1121 
     67 H67        15.0105  -26.7766  -46.8495 H         1 UNK         0.0849 
     68 H68        15.7167  -26.8976  -45.2607 H         1 UNK         0.0849 
     69 H69        14.7973  -29.3142  -46.4613 H         1 UNK         0.0865 
     70 H70        15.9965  -30.4323  -47.0447 H         1 UNK         0.0865 
     71 H71        17.6002  -31.5054  -45.5365 H         1 UNK         0.1346 
     72 H72        16.8861  -31.2018  -41.3211 H         1 UNK         0.1412 
     73 H73        14.7992  -28.6220  -44.0331 H         1 UNK         0.1426 
     74 H74        14.5333  -29.8677  -40.8096 H         1 UNK         0.0716 
     75 H75        14.4255  -28.3653  -41.6967 H         1 UNK         0.0716 
     76 H76        17.2473  -26.2219  -40.7671 H         1 UNK         0.0695 
     77 H77        16.4570  -26.9261  -42.1446 H         1 UNK         0.0695 
     78 H78        18.3847  -28.5858  -42.3629 H         1 UNK         0.0983 
     79 H79        18.3427  -25.8921  -43.1274 H         1 UNK         0.3095 
     80 H80        20.2059  -24.7892  -44.3547 H         1 UNK         0.0454 
     81 H81        21.5295  -25.1154  -46.4259 H         1 UNK         0.0851 
     82 H82        21.4397  -26.8644  -46.2414 H         1 UNK         0.0851 
     83 H83        22.3171  -25.8897  -45.0677 H         1 UNK         0.0851 
     84 H84        19.1019  -26.2979  -46.6117 H         1 UNK         0.2976 
     85 H85        19.9813  -29.6229  -41.3696 H         1 UNK         0.3116 
     86 H86        21.6975  -30.2221  -40.1031 H         1 UNK         0.0646 
     87 H87        20.3260  -28.5096  -37.9625 H         1 UNK         0.0847 
     88 H88        19.9234  -30.1799  -38.3576 H         1 UNK         0.0847 
     89 H89        21.4910  -29.7926  -37.6671 H         1 UNK         0.0847 
     90 H90        22.6351  -28.5268  -41.8118 H         1 UNK         0.3040 
     91 H91        23.8001  -26.1295  -41.0201 H         1 UNK         0.1015 
     92 H92        25.1909  -26.4163  -43.0803 H         1 UNK         0.0786 
     93 H93        23.5183  -26.8591  -43.3782 H         1 UNK         0.0786 
     94 H94        24.7364  -28.1140  -43.1664 H         1 UNK         0.0786 
     95 H95        25.1398  -29.4085  -40.7126 H         1 UNK         0.3172 
     96 H96        27.0527  -28.4915  -38.7073 H         1 UNK         0.0595 
     97 H97        28.0504  -29.9034  -41.2560 H         1 UNK         0.0839 
     98 H98        29.0273  -29.5316  -39.8309 H         1 UNK         0.0839 
     99 H99        28.3897  -28.2362  -40.8164 H         1 UNK         0.0839 
    100 H100       28.2156  -31.3758  -39.5053 H         1 UNK         0.2998 
    101 H101       26.6278  -32.9456  -37.6737 H         1 UNK         0.0822 
    102 H102       28.1450  -34.7872  -38.4129 H         1 UNK         0.0787 
    103 H103       28.7806  -33.7737  -39.7010 H         1 UNK         0.0787 
    104 H104       29.0642  -33.3466  -38.0122 H         1 UNK         0.0787 
    105 H105       26.2453  -32.1275  -40.9819 H         1 UNK         0.3055 
    106 H106       23.9170  -33.8930  -41.2513 H         1 UNK         0.1106 
    107 H107       25.7621  -35.0112  -42.5789 H         1 UNK         0.0828 
    108 H108       24.5237  -34.3628  -43.6397 H         1 UNK         0.0828 
    109 H109       26.0463  -33.5050  -43.4493 H         1 UNK         0.0828 
    110 H110       22.5535  -33.0061  -43.0829 H         1 UNK         0.2931 
    111 H111       22.2153  -30.1482  -42.8129 H         1 UNK         0.0412 
    112 H112       22.0431  -28.6357  -44.6775 H         1 UNK         0.3472 
    113 H113       23.1621  -28.8516  -46.0140 H         1 UNK         0.3472 
    114 H114       20.7058  -32.0882  -44.6299 H         1 UNK         0.0970 
    115 H115       20.2191  -30.4554  -44.2382 H         1 UNK         0.0970 
    116 H116       18.5829  -33.1379  -44.0383 H         1 UNK         0.0612 
    117 H117       17.8974  -33.3073  -42.4416 H         1 UNK         0.0612 
@<TRIPOS>BOND
     1    1    2 1    
     2    1   62 1    
     3    1   63 1    
     4    1   64 1    
     5    2    3 2    
     6    2    4 am   BACKBONE|DICT|INTERRES
     7    4    5 1    
     8    4   65 1    
     9    5    6 1    
    10    5   25 1    
    11    5   66 1    
    12    6    7 1    
    13    6   67 1    
    14    6   68 1    
    15    7    8 1    
    16    8    9 1    
    17    8   69 1    
    18    8   70 1    
    19    9   10 ar   
    20    9   14 ar   
    21   10   11 ar   
    22   10   71 1    
    23   11   12 ar   
    24   11   61 1    
    25   12   13 ar   
    26   12   72 1    
    27   13   14 ar   
    28   13   15 1    
    29   14   73 1    
    30   15   16 1    
    31   15   74 1    
    32   15   75 1    
    33   16   17 1    
    34   17   18 1    
    35   17   76 1    
    36   17   77 1    
    37   18   19 1    
    38   18   27 1    
    39   18   78 1    
    40   19   20 am   BACKBONE|DICT|INTERRES
    41   19   79 1    
    42   20   21 2    
    43   20   22 1    
    44   22   23 1    
    45   22   24 1    
    46   22   80 1    
    47   23   81 1    
    48   23   82 1    
    49   23   83 1    
    50   24   25 am   BACKBONE|DICT|INTERRES
    51   24   84 1    
    52   25   26 2    
    53   27   28 2    
    54   27   29 am   BACKBONE|DICT|INTERRES
    55   29   30 1    
    56   29   85 1    
    57   30   31 1    
    58   30   32 1    
    59   30   86 1    
    60   31   87 1    
    61   31   88 1    
    62   31   89 1    
    63   32   33 2    
    64   32   34 am   BACKBONE|DICT|INTERRES
    65   34   35 1    
    66   34   90 1    
    67   35   36 1    
    68   35   37 1    
    69   35   91 1    
    70   36   92 1    
    71   36   93 1    
    72   36   94 1    
    73   37   38 2    
    74   37   39 am   BACKBONE|DICT|INTERRES
    75   39   40 1    
    76   39   95 1    
    77   40   41 1    
    78   40   42 1    
    79   40   96 1    
    80   41   97 1    
    81   41   98 1    
    82   41   99 1    
    83   42   43 2    
    84   42   44 am   BACKBONE|DICT|INTERRES
    85   44   45 1    
    86   44  100 1    
    87   45   46 1    
    88   45   47 1    
    89   45  101 1    
    90   46  102 1    
    91   46  103 1    
    92   46  104 1    
    93   47   48 2    
    94   47   49 am   BACKBONE|DICT|INTERRES
    95   49   50 1    
    96   49  105 1    
    97   50   51 1    
    98   50   52 1    
    99   50  106 1    
   100   51  107 1    
   101   51  108 1    
   102   51  109 1    
   103   52   53 2    
   104   52   54 am   BACKBONE|DICT|INTERRES
   105   54   55 1    
   106   54  110 1    
   107   55   56 1    
   108   55   59 1    
   109   55  111 1    
   110   56   57 am   BACKBONE|DICT|INTERRES
   111   56   58 2    
   112   57  112 1    
   113   57  113 1    
   114   59   60 1    
   115   59  114 1    
   116   59  115 1    
   117   60   61 1    
   118   61  116 1    
   119   61  117 1    
@<TRIPOS>SUBSTRUCTURE
     1 UNK         1 GROUP             0       ****    0 ROOT    
