@<TRIPOS>MOLECULE
3R8
117   119    1
SMALL
USER_CHARGES


@<TRIPOS>ATOM
      1 CA         23.7706  -24.8526  -43.7571 C.3       0 UNK        -0.2013 
      2 C          22.9226  -25.2343  -44.9610 C.2       0 UNK         0.4866 
      3 O          23.2594  -24.8578  -46.0828 O.2       0 UNK        -0.5176 
      4 N          21.8274  -25.9695  -44.7239 N.am      1 UNK        -0.4884 
      5 CA         20.8201  -26.4017  -45.6981 C.3       1 UNK         0.0853 
      6 C6         21.4360  -27.2896  -46.8189 C.3       10 UNK        -0.0849 
      7 S7         20.2059  -28.2231  -47.7956 S.3       10 UNK        -0.2776 
      8 C8         20.3733  -29.9284  -47.1671 C.3       10 UNK         0.0316 
      9 C9         19.4673  -30.2221  -45.9761 C.ar      10 UNK        -0.0863 
     10 C10        19.9783  -30.8591  -44.8413 C.ar      10 UNK        -0.1009 
     11 C11        19.1390  -31.1926  -43.7730 C.ar      10 UNK        -0.0712 
     12 C12        17.7781  -30.8789  -43.8395 C.ar      10 UNK        -0.0894 
     13 C13        17.2572  -30.2313  -44.9638 C.ar      10 UNK        -0.0745 
     14 C14        18.1032  -29.9173  -46.0304 C.ar      10 UNK        -0.0972 
     15 C15        15.7815  -29.8693  -45.0379 C.3       10 UNK         0.0209 
     16 S16        15.5165  -28.0872  -44.7697 S.3       10 UNK        -0.2568 
     17 C17        15.8263  -27.9319  -42.9791 C.3       10 UNK        -0.0983 
     18 CA         17.2790  -27.5103  -42.6494 C.3       3 UNK         0.0876 
     19 N          17.6553  -26.2432  -43.2825 N.am      3 UNK        -0.4424 
     20 C          18.8723  -25.6926  -43.2141 C.2       2 UNK         0.4918 
     21 O          19.8359  -26.2194  -42.6498 O.2       2 UNK        -0.4875 
     22 CA         19.0449  -24.3453  -43.9321 C.3       2 UNK         0.0481 
     23 CB         20.0942  -23.4402  -43.2603 C.3       2 UNK        -0.1831 
     24 N          19.2608  -24.4101  -45.3882 N.am      2 UNK        -0.4498 
     25 C          19.9870  -25.1948  -46.2113 C.2       1 UNK         0.5027 
     26 O          20.0056  -24.9339  -47.4139 O.2       1 UNK        -0.4969 
     27 C          17.4885  -27.4605  -41.1220 C.2       3 UNK         0.5005 
     28 O          17.1580  -26.4518  -40.4944 O.2       3 UNK        -0.5279 
     29 N          18.0512  -28.5459  -40.5737 N.am      4 UNK        -0.4463 
     30 CA         18.4763  -28.7426  -39.1803 C.3       4 UNK         0.0283 
     31 CB         17.3218  -28.5075  -38.1830 C.3       4 UNK        -0.1875 
     32 C          19.7524  -27.9698  -38.7842 C.2       4 UNK         0.4949 
     33 O          20.1838  -28.1045  -37.6386 O.2       4 UNK        -0.5039 
     34 N          20.3511  -27.2051  -39.7101 N.am      5 UNK        -0.4663 
     35 CA         21.5665  -26.4164  -39.4813 C.3       5 UNK         0.0242 
     36 CB         21.2387  -24.9301  -39.7038 C.3       5 UNK        -0.1982 
     37 C          22.7428  -26.8510  -40.3728 C.2       5 UNK         0.5017 
     38 O          23.8364  -26.3074  -40.2090 O.2       5 UNK        -0.5012 
     39 N          22.5248  -27.7948  -41.3002 N.am      6 UNK        -0.4439 
     40 CA         23.5730  -28.3548  -42.1575 C.3       6 UNK         0.0297 
     41 CB         22.9342  -29.0082  -43.3982 C.3       6 UNK        -0.2006 
     42 C          24.4010  -29.3970  -41.3914 C.2       6 UNK         0.4892 
     43 O          23.8819  -30.0452  -40.4802 O.2       6 UNK        -0.5089 
     44 N          25.6466  -29.6126  -41.8364 N.am      7 UNK        -0.4243 
     45 CA         26.5203  -30.6886  -41.3471 C.3       7 UNK         0.0196 
     46 CB         27.9215  -30.5290  -41.9588 C.3       7 UNK        -0.2007 
     47 C          25.9603  -32.0951  -41.6363 C.2       7 UNK         0.5020 
     48 O          26.2026  -33.0214  -40.8626 O.2       7 UNK        -0.5147 
     49 N          25.1827  -32.2144  -42.7219 N.am      8 UNK        -0.4734 
     50 CA         24.4457  -33.4180  -43.1127 C.3       8 UNK         0.0238 
     51 CB         23.9141  -33.2302  -44.5437 C.3       8 UNK        -0.1912 
     52 C          23.2910  -33.7853  -42.1609 C.2       8 UNK         0.5038 
     53 O          22.8402  -34.9308  -42.1987 O.2       8 UNK        -0.5046 
     54 N          22.8242  -32.8304  -41.3427 N.am      9 UNK        -0.4200 
     55 CA         21.7520  -33.0375  -40.3568 C.3       9 UNK         0.0839 
     56 C          22.2137  -33.7727  -39.0645 C.2       9 UNK         0.5513 
     57 N          23.5043  -34.0009  -38.8469 N.am      9 UNK        -0.7519 
     58 O          21.3803  -34.1509  -38.2456 O.2       9 UNK        -0.4960 
     59 C59        21.0086  -31.7187  -40.0061 C.3       10 UNK        -0.0876 
     60 S60        20.4663  -30.6987  -41.4231 S.3       10 UNK        -0.2414 
     61 C61        19.7050  -31.8992  -42.5526 C.3       10 UNK         0.0169 
     62 H62        24.7455  -25.3353  -43.8157 H         1 UNK         0.0903 
     63 H63        23.9253  -23.7743  -43.7337 H         1 UNK         0.0903 
     64 H64        23.3017  -25.1441  -42.8179 H         1 UNK         0.0903 
     65 H65        21.5756  -26.1830  -43.7646 H         1 UNK         0.3096 
     66 H66        20.1295  -27.0553  -45.1664 H         1 UNK         0.1121 
     67 H67        22.1408  -27.9965  -46.3797 H         1 UNK         0.0849 
     68 H68        22.0257  -26.6865  -47.5110 H         1 UNK         0.0849 
     69 H69        20.1034  -30.6151  -47.9704 H         1 UNK         0.0865 
     70 H70        21.4179  -30.1383  -46.9332 H         1 UNK         0.0865 
     71 H71        21.0279  -31.1121  -44.7917 H         1 UNK         0.1346 
     72 H72        17.1262  -31.1347  -43.0155 H         1 UNK         0.1412 
     73 H73        17.6957  -29.4308  -46.9064 H         1 UNK         0.1426 
     74 H74        15.1982  -30.4439  -44.3168 H         1 UNK         0.0716 
     75 H75        15.3949  -30.1370  -46.0224 H         1 UNK         0.0716 
     76 H76        15.5796  -28.8789  -42.4951 H         1 UNK         0.0695 
     77 H77        15.1203  -27.1998  -42.5821 H         1 UNK         0.0695 
     78 H78        17.9596  -28.2597  -43.0557 H         1 UNK         0.0983 
     79 H79        16.9184  -25.7586  -43.7732 H         1 UNK         0.3095 
     80 H80        18.0929  -23.8240  -43.8200 H         1 UNK         0.0454 
     81 H81        21.0847  -23.8841  -43.2341 H         1 UNK         0.0851 
     82 H82        19.8128  -23.2314  -42.2279 H         1 UNK         0.0851 
     83 H83        20.1738  -22.4794  -43.7680 H         1 UNK         0.0851 
     84 H84        18.7531  -23.6842  -45.8733 H         1 UNK         0.2976 
     85 H85        18.3090  -29.3058  -41.1904 H         1 UNK         0.3116 
     86 H86        18.7406  -29.7979  -39.1070 H         1 UNK         0.0646 
     87 H87        17.0612  -27.4523  -38.0995 H         1 UNK         0.0847 
     88 H88        17.5970  -28.8470  -37.1838 H         1 UNK         0.0847 
     89 H89        16.4255  -29.0551  -38.4737 H         1 UNK         0.0847 
     90 H90        19.9259  -27.1105  -40.6250 H         1 UNK         0.3040 
     91 H91        21.9099  -26.5322  -38.4511 H         1 UNK         0.1015 
     92 H92        20.9507  -24.7343  -40.7352 H         1 UNK         0.0786 
     93 H93        22.1001  -24.2991  -39.4810 H         1 UNK         0.0786 
     94 H94        20.4226  -24.6030  -39.0593 H         1 UNK         0.0786 
     95 H95        21.6284  -28.2592  -41.3151 H         1 UNK         0.3172 
     96 H96        24.2263  -27.5442  -42.4861 H         1 UNK         0.0595 
     97 H97        23.6502  -29.0638  -44.2185 H         1 UNK         0.0839 
     98 H98        22.0695  -28.4543  -43.7586 H         1 UNK         0.0839 
     99 H99        22.6007  -30.0264  -43.1995 H         1 UNK         0.0839 
    100 H100       26.0045  -29.0424  -42.5899 H         1 UNK         0.2998 
    101 H101       26.6032  -30.5861  -40.2627 H         1 UNK         0.0822 
    102 H102       28.5971  -31.3028  -41.5911 H         1 UNK         0.0787 
    103 H103       27.8999  -30.6057  -43.0468 H         1 UNK         0.0787 
    104 H104       28.3620  -29.5665  -41.6974 H         1 UNK         0.0787 
    105 H105       25.0563  -31.3985  -43.3020 H         1 UNK         0.3055 
    106 H106       25.1441  -34.2581  -43.1090 H         1 UNK         0.1106 
    107 H107       23.3822  -34.1204  -44.8831 H         1 UNK         0.0828 
    108 H108       23.2196  -32.3921  -44.6105 H         1 UNK         0.0828 
    109 H109       24.7255  -33.0532  -45.2498 H         1 UNK         0.0828 
    110 H110       23.2623  -31.9177  -41.3282 H         1 UNK         0.2931 
    111 H111       21.0159  -33.7024  -40.8118 H         1 UNK         0.0412 
    112 H112       24.2003  -33.6942  -39.5109 H         1 UNK         0.3472 
    113 H113       23.7860  -34.4814  -38.0069 H         1 UNK         0.3472 
    114 H114       21.6428  -31.0874  -39.3807 H         1 UNK         0.0970 
    115 H115       20.1263  -31.9402  -39.4031 H         1 UNK         0.0970 
    116 H116       20.4449  -32.6326  -42.8740 H         1 UNK         0.0612 
    117 H117       18.9233  -32.4493  -42.0266 H         1 UNK         0.0612 
@<TRIPOS>BOND
     1    1    2 1    
     2    1   62 1    
     3    1   63 1    
     4    1   64 1    
     5    2    3 2    
     6    2    4 am   BACKBONE|DICT|INTERRES
     7    4    5 1    
     8    4   65 1    
     9    5    6 1    
    10    5   25 1    
    11    5   66 1    
    12    6    7 1    
    13    6   67 1    
    14    6   68 1    
    15    7    8 1    
    16    8    9 1    
    17    8   69 1    
    18    8   70 1    
    19    9   10 ar   
    20    9   14 ar   
    21   10   11 ar   
    22   10   71 1    
    23   11   12 ar   
    24   11   61 1    
    25   12   13 ar   
    26   12   72 1    
    27   13   14 ar   
    28   13   15 1    
    29   14   73 1    
    30   15   16 1    
    31   15   74 1    
    32   15   75 1    
    33   16   17 1    
    34   17   18 1    
    35   17   76 1    
    36   17   77 1    
    37   18   19 1    
    38   18   27 1    
    39   18   78 1    
    40   19   20 am   BACKBONE|DICT|INTERRES
    41   19   79 1    
    42   20   21 2    
    43   20   22 1    
    44   22   23 1    
    45   22   24 1    
    46   22   80 1    
    47   23   81 1    
    48   23   82 1    
    49   23   83 1    
    50   24   25 am   BACKBONE|DICT|INTERRES
    51   24   84 1    
    52   25   26 2    
    53   27   28 2    
    54   27   29 am   BACKBONE|DICT|INTERRES
    55   29   30 1    
    56   29   85 1    
    57   30   31 1    
    58   30   32 1    
    59   30   86 1    
    60   31   87 1    
    61   31   88 1    
    62   31   89 1    
    63   32   33 2    
    64   32   34 am   BACKBONE|DICT|INTERRES
    65   34   35 1    
    66   34   90 1    
    67   35   36 1    
    68   35   37 1    
    69   35   91 1    
    70   36   92 1    
    71   36   93 1    
    72   36   94 1    
    73   37   38 2    
    74   37   39 am   BACKBONE|DICT|INTERRES
    75   39   40 1    
    76   39   95 1    
    77   40   41 1    
    78   40   42 1    
    79   40   96 1    
    80   41   97 1    
    81   41   98 1    
    82   41   99 1    
    83   42   43 2    
    84   42   44 am   BACKBONE|DICT|INTERRES
    85   44   45 1    
    86   44  100 1    
    87   45   46 1    
    88   45   47 1    
    89   45  101 1    
    90   46  102 1    
    91   46  103 1    
    92   46  104 1    
    93   47   48 2    
    94   47   49 am   BACKBONE|DICT|INTERRES
    95   49   50 1    
    96   49  105 1    
    97   50   51 1    
    98   50   52 1    
    99   50  106 1    
   100   51  107 1    
   101   51  108 1    
   102   51  109 1    
   103   52   53 2    
   104   52   54 am   BACKBONE|DICT|INTERRES
   105   54   55 1    
   106   54  110 1    
   107   55   56 1    
   108   55   59 1    
   109   55  111 1    
   110   56   57 am   BACKBONE|DICT|INTERRES
   111   56   58 2    
   112   57  112 1    
   113   57  113 1    
   114   59   60 1    
   115   59  114 1    
   116   59  115 1    
   117   60   61 1    
   118   61  116 1    
   119   61  117 1    
@<TRIPOS>SUBSTRUCTURE
     1 UNK         1 GROUP             0       ****    0 ROOT    
