@<TRIPOS>MOLECULE
3R8
117   119    1
SMALL
USER_CHARGES


@<TRIPOS>ATOM
      1 CA         14.8838  -23.4689  -41.4865 C.3       0 UNK        -0.2013 
      2 C          15.5041  -23.9473  -42.7906 C.2       0 UNK         0.4866 
      3 O          15.6896  -23.1496  -43.7104 O.2       0 UNK        -0.5176 
      4 N          15.8171  -25.2454  -42.8810 N.am      1 UNK        -0.4884 
      5 CA         16.4954  -25.8776  -44.0160 C.3       1 UNK         0.0853 
      6 C6         16.3530  -27.4242  -44.0018 C.3       10 UNK        -0.0849 
      7 S7         16.4866  -28.2181  -42.3542 S.3       10 UNK        -0.2776 
      8 C8         18.1608  -28.9308  -42.3647 C.3       10 UNK         0.0316 
      9 C9         18.3270  -30.0081  -43.4252 C.ar      10 UNK        -0.0863 
     10 C10        17.7745  -31.2788  -43.2469 C.ar      10 UNK        -0.1009 
     11 C11        17.9457  -32.2645  -44.2229 C.ar      10 UNK        -0.0712 
     12 C12        18.6985  -31.9768  -45.3668 C.ar      10 UNK        -0.0894 
     13 C13        19.2669  -30.7125  -45.5579 C.ar      10 UNK        -0.0745 
     14 C14        19.0534  -29.7299  -44.5834 C.ar      10 UNK        -0.0972 
     15 C15        20.1110  -30.4780  -46.8173 C.3       10 UNK         0.0209 
     16 S16        20.7808  -28.7911  -47.0718 S.3       10 UNK        -0.2568 
     17 C17        21.9534  -28.6305  -45.6743 C.3       10 UNK        -0.0983 
     18 CA         22.0464  -27.2166  -45.0184 C.3       3 UNK         0.0876 
     19 N          20.8960  -26.3441  -45.2929 N.am      3 UNK        -0.4424 
     20 C          20.9183  -25.0075  -45.2162 C.2       2 UNK         0.4918 
     21 O          21.9035  -24.3616  -44.8579 O.2       2 UNK        -0.4875 
     22 CA         19.6263  -24.2607  -45.5890 C.3       2 UNK         0.0481 
     23 CB         19.6641  -23.8495  -47.0695 C.3       2 UNK        -0.1831 
     24 N          18.3746  -24.9814  -45.3196 N.am      2 UNK        -0.4498 
     25 C          17.9623  -25.4043  -44.1146 C.2       1 UNK         0.5027 
     26 O          18.6786  -25.4124  -43.1116 O.2       1 UNK        -0.4969 
     27 C          22.3862  -27.3229  -43.5110 C.2       3 UNK         0.5005 
     28 O          23.4115  -27.9188  -43.1818 O.2       3 UNK        -0.5279 
     29 N          21.5546  -26.7441  -42.6244 N.am      4 UNK        -0.4463 
     30 CA         21.6850  -26.7548  -41.1577 C.3       4 UNK         0.0283 
     31 CB         20.4422  -26.0974  -40.5325 C.3       4 UNK        -0.1875 
     32 C          22.9682  -26.1142  -40.5864 C.2       4 UNK         0.4949 
     33 O          23.2061  -26.2239  -39.3830 O.2       4 UNK        -0.5039 
     34 N          23.7846  -25.4764  -41.4372 N.am      5 UNK        -0.4663 
     35 CA         25.1609  -25.0765  -41.1277 C.3       5 UNK         0.0242 
     36 CB         25.6877  -24.1785  -42.2585 C.3       5 UNK        -0.1982 
     37 C          26.1015  -26.2814  -40.9097 C.2       5 UNK         0.5017 
     38 O          27.1083  -26.1370  -40.2152 O.2       5 UNK        -0.5012 
     39 N          25.7519  -27.4376  -41.4885 N.am      6 UNK        -0.4439 
     40 CA         26.3706  -28.7397  -41.2553 C.3       6 UNK         0.0297 
     41 CB         26.7155  -29.3623  -42.6195 C.3       6 UNK        -0.2006 
     42 C          25.3795  -29.6335  -40.4923 C.2       6 UNK         0.4892 
     43 O          24.2001  -29.2942  -40.3714 O.2       6 UNK        -0.5089 
     44 N          25.8522  -30.7966  -40.0266 N.am      7 UNK        -0.4243 
     45 CA         25.0537  -31.8171  -39.3320 C.3       7 UNK         0.0196 
     46 CB         25.9982  -32.7050  -38.4996 C.3       7 UNK        -0.2007 
     47 C          24.1554  -32.6393  -40.2858 C.2       7 UNK         0.5020 
     48 O          24.1039  -33.8668  -40.1840 O.2       7 UNK        -0.5147 
     49 N          23.4729  -31.9555  -41.2116 N.am      8 UNK        -0.4734 
     50 CA         22.5680  -32.5331  -42.2025 C.3       8 UNK         0.0238 
     51 CB         22.2072  -31.4603  -43.2399 C.3       8 UNK        -0.1912 
     52 C          21.3048  -33.0910  -41.5326 C.2       8 UNK         0.5038 
     53 O          20.6056  -32.3430  -40.8451 O.2       8 UNK        -0.5046 
     54 N          21.0535  -34.3895  -41.7405 N.am      9 UNK        -0.4200 
     55 CA         19.9199  -35.1480  -41.1839 C.3       9 UNK         0.0839 
     56 C          19.9193  -35.2668  -39.6277 C.2       9 UNK         0.5513 
     57 N          21.0466  -35.0725  -38.9520 N.am      9 UNK        -0.7519 
     58 O          18.8952  -35.5749  -39.0230 O.2       9 UNK        -0.4960 
     59 C59        18.5507  -34.6941  -41.7684 C.3       10 UNK        -0.0876 
     60 S60        18.4766  -34.9177  -43.5790 S.3       10 UNK        -0.2414 
     61 C61        17.2895  -33.6291  -44.0670 C.3       10 UNK         0.0169 
     62 H62        15.5109  -22.7021  -41.0325 H         1 UNK         0.0903 
     63 H63        13.9004  -23.0387  -41.6739 H         1 UNK         0.0903 
     64 H64        14.7677  -24.2807  -40.7685 H         1 UNK         0.0903 
     65 H65        15.6724  -25.8555  -42.0879 H         1 UNK         0.3096 
     66 H66        15.9861  -25.5243  -44.9160 H         1 UNK         0.1121 
     67 H67        15.3591  -27.6777  -44.3737 H         1 UNK         0.0849 
     68 H68        17.0358  -27.8881  -44.7135 H         1 UNK         0.0849 
     69 H69        18.8893  -28.1328  -42.5088 H         1 UNK         0.0865 
     70 H70        18.3715  -29.3579  -41.3830 H         1 UNK         0.0865 
     71 H71        17.2008  -31.4922  -42.3555 H         1 UNK         0.1346 
     72 H72        18.8409  -32.7462  -46.1138 H         1 UNK         0.1412 
     73 H73        19.4575  -28.7387  -44.7033 H         1 UNK         0.1426 
     74 H74        19.5046  -30.7276  -47.6891 H         1 UNK         0.0716 
     75 H75        20.9462  -31.1800  -46.8143 H         1 UNK         0.0716 
     76 H76        21.6969  -29.3866  -44.9351 H         1 UNK         0.0695 
     77 H77        22.9405  -28.9267  -46.0333 H         1 UNK         0.0695 
     78 H78        22.9107  -26.7264  -45.4729 H         1 UNK         0.0983 
     79 H79        20.0660  -26.7950  -45.6481 H         1 UNK         0.3095 
     80 H80        19.6024  -23.3490  -44.9885 H         1 UNK         0.0454 
     81 H81        20.5709  -23.2868  -47.2965 H         1 UNK         0.0851 
     82 H82        19.6461  -24.7169  -47.7307 H         1 UNK         0.0851 
     83 H83        18.8192  -23.2109  -47.3278 H         1 UNK         0.0851 
     84 H84        17.7232  -25.0276  -46.0905 H         1 UNK         0.2976 
     85 H85        20.7435  -26.2551  -42.9857 H         1 UNK         0.3116 
     86 H86        21.7039  -27.8023  -40.8497 H         1 UNK         0.0646 
     87 H87        20.4977  -26.1020  -39.4431 H         1 UNK         0.0847 
     88 H88        19.5281  -26.6241  -40.8027 H         1 UNK         0.0847 
     89 H89        20.3363  -25.0589  -40.8483 H         1 UNK         0.0847 
     90 H90        23.4971  -25.4101  -42.4030 H         1 UNK         0.3040 
     91 H91        25.1483  -24.4984  -40.2011 H         1 UNK         0.1015 
     92 H92        26.7030  -23.8400  -42.0465 H         1 UNK         0.0786 
     93 H93        25.0696  -23.2887  -42.3799 H         1 UNK         0.0786 
     94 H94        25.7120  -24.7045  -43.2138 H         1 UNK         0.0786 
     95 H95        24.8652  -27.4800  -41.9880 H         1 UNK         0.3172 
     96 H96        27.2807  -28.6395  -40.6606 H         1 UNK         0.0595 
     97 H97        27.3880  -28.7195  -43.1878 H         1 UNK         0.0839 
     98 H98        25.8218  -29.5261  -43.2242 H         1 UNK         0.0839 
     99 H99        27.2129  -30.3258  -42.5039 H         1 UNK         0.0839 
    100 H100       26.8211  -31.0266  -40.1960 H         1 UNK         0.2998 
    101 H101       24.3821  -31.3106  -38.6352 H         1 UNK         0.0822 
    102 H102       26.5875  -32.1119  -37.8000 H         1 UNK         0.0787 
    103 H103       25.4364  -33.4305  -37.9095 H         1 UNK         0.0787 
    104 H104       26.6885  -33.2635  -39.1331 H         1 UNK         0.0787 
    105 H105       23.5277  -30.9417  -41.1714 H         1 UNK         0.3055 
    106 H106       23.0963  -33.3411  -42.7135 H         1 UNK         0.1106 
    107 H107       21.6879  -30.6168  -42.7819 H         1 UNK         0.0828 
    108 H108       23.0963  -31.0749  -43.7395 H         1 UNK         0.0828 
    109 H109       21.5498  -31.8683  -44.0086 H         1 UNK         0.0828 
    110 H110       21.6981  -34.9281  -42.3003 H         1 UNK         0.2931 
    111 H111       20.0785  -36.1736  -41.5192 H         1 UNK         0.0412 
    112 H112       21.0424  -35.1636  -37.9483 H         1 UNK         0.3472 
    113 H113       21.8984  -34.8236  -39.4341 H         1 UNK         0.3472 
    114 H114       18.3519  -33.6528  -41.5117 H         1 UNK         0.0970 
    115 H115       17.7325  -35.2743  -41.3385 H         1 UNK         0.0970 
    116 H116       16.4724  -33.5900  -43.3449 H         1 UNK         0.0612 
    117 H117       16.8382  -33.9167  -45.0177 H         1 UNK         0.0612 
@<TRIPOS>BOND
     1    1    2 1    
     2    1   62 1    
     3    1   63 1    
     4    1   64 1    
     5    2    3 2    
     6    2    4 am   BACKBONE|DICT|INTERRES
     7    4    5 1    
     8    4   65 1    
     9    5    6 1    
    10    5   25 1    
    11    5   66 1    
    12    6    7 1    
    13    6   67 1    
    14    6   68 1    
    15    7    8 1    
    16    8    9 1    
    17    8   69 1    
    18    8   70 1    
    19    9   10 ar   
    20    9   14 ar   
    21   10   11 ar   
    22   10   71 1    
    23   11   12 ar   
    24   11   61 1    
    25   12   13 ar   
    26   12   72 1    
    27   13   14 ar   
    28   13   15 1    
    29   14   73 1    
    30   15   16 1    
    31   15   74 1    
    32   15   75 1    
    33   16   17 1    
    34   17   18 1    
    35   17   76 1    
    36   17   77 1    
    37   18   19 1    
    38   18   27 1    
    39   18   78 1    
    40   19   20 am   BACKBONE|DICT|INTERRES
    41   19   79 1    
    42   20   21 2    
    43   20   22 1    
    44   22   23 1    
    45   22   24 1    
    46   22   80 1    
    47   23   81 1    
    48   23   82 1    
    49   23   83 1    
    50   24   25 am   BACKBONE|DICT|INTERRES
    51   24   84 1    
    52   25   26 2    
    53   27   28 2    
    54   27   29 am   BACKBONE|DICT|INTERRES
    55   29   30 1    
    56   29   85 1    
    57   30   31 1    
    58   30   32 1    
    59   30   86 1    
    60   31   87 1    
    61   31   88 1    
    62   31   89 1    
    63   32   33 2    
    64   32   34 am   BACKBONE|DICT|INTERRES
    65   34   35 1    
    66   34   90 1    
    67   35   36 1    
    68   35   37 1    
    69   35   91 1    
    70   36   92 1    
    71   36   93 1    
    72   36   94 1    
    73   37   38 2    
    74   37   39 am   BACKBONE|DICT|INTERRES
    75   39   40 1    
    76   39   95 1    
    77   40   41 1    
    78   40   42 1    
    79   40   96 1    
    80   41   97 1    
    81   41   98 1    
    82   41   99 1    
    83   42   43 2    
    84   42   44 am   BACKBONE|DICT|INTERRES
    85   44   45 1    
    86   44  100 1    
    87   45   46 1    
    88   45   47 1    
    89   45  101 1    
    90   46  102 1    
    91   46  103 1    
    92   46  104 1    
    93   47   48 2    
    94   47   49 am   BACKBONE|DICT|INTERRES
    95   49   50 1    
    96   49  105 1    
    97   50   51 1    
    98   50   52 1    
    99   50  106 1    
   100   51  107 1    
   101   51  108 1    
   102   51  109 1    
   103   52   53 2    
   104   52   54 am   BACKBONE|DICT|INTERRES
   105   54   55 1    
   106   54  110 1    
   107   55   56 1    
   108   55   59 1    
   109   55  111 1    
   110   56   57 am   BACKBONE|DICT|INTERRES
   111   56   58 2    
   112   57  112 1    
   113   57  113 1    
   114   59   60 1    
   115   59  114 1    
   116   59  115 1    
   117   60   61 1    
   118   61  116 1    
   119   61  117 1    
@<TRIPOS>SUBSTRUCTURE
     1 UNK         1 GROUP             0       ****    0 ROOT    
