@<TRIPOS>MOLECULE
3R8
117   119    1
SMALL
USER_CHARGES


@<TRIPOS>ATOM
      1 CA         18.3092  -22.4643  -43.5309 C.3       0 UNK        -0.2013 
      2 C          17.5812  -23.4285  -42.5966 C.2       0 UNK         0.4866 
      3 O          17.1304  -23.0059  -41.5336 O.2       0 UNK        -0.5176 
      4 N          17.4188  -24.7149  -42.9395 N.am      1 UNK        -0.4884 
      5 CA         17.9297  -25.4121  -44.1292 C.3       1 UNK         0.0853 
      6 C6         17.4129  -26.8719  -44.1957 C.3       10 UNK        -0.0849 
      7 S7         15.6006  -27.0274  -44.0358 S.3       10 UNK        -0.2776 
      8 C8         15.2368  -28.4505  -45.1183 C.3       10 UNK         0.0316 
      9 C9         16.1509  -29.6426  -44.8563 C.ar      10 UNK        -0.0863 
     10 C10        16.1330  -30.2987  -43.6196 C.ar      10 UNK        -0.1009 
     11 C11        16.9798  -31.3850  -43.3684 C.ar      10 UNK        -0.0712 
     12 C12        17.8209  -31.8288  -44.3960 C.ar      10 UNK        -0.0894 
     13 C13        17.8945  -31.1462  -45.6132 C.ar      10 UNK        -0.0745 
     14 C14        17.0413  -30.0671  -45.8471 C.ar      10 UNK        -0.0972 
     15 C15        18.9575  -31.5290  -46.6363 C.3       10 UNK         0.0209 
     16 S16        20.3821  -30.3777  -46.6147 S.3       10 UNK        -0.2568 
     17 C17        20.8656  -30.3980  -44.8513 C.3       10 UNK        -0.0983 
     18 CA         21.7906  -29.2484  -44.3793 C.3       3 UNK         0.0876 
     19 N          21.4312  -27.9604  -44.9801 N.am      3 UNK        -0.4424 
     20 C          22.1485  -26.8339  -44.8794 C.2       2 UNK         0.4918 
     21 O          23.2098  -26.7499  -44.2623 O.2       2 UNK        -0.4875 
     22 CA         21.5352  -25.5751  -45.5218 C.3       2 UNK         0.0481 
     23 CB         21.8802  -25.5118  -47.0176 C.3       2 UNK        -0.1831 
     24 N          20.0785  -25.4797  -45.3422 N.am      2 UNK        -0.4498 
     25 C          19.4714  -25.4385  -44.1472 C.2       1 UNK         0.5027 
     26 O          20.0837  -25.4857  -43.0792 O.2       1 UNK        -0.4969 
     27 C          21.7612  -29.2009  -42.8338 C.2       3 UNK         0.5005 
     28 O          22.5282  -29.9154  -42.1839 O.2       3 UNK        -0.5279 
     29 N          20.8421  -28.3946  -42.2818 N.am      4 UNK        -0.4463 
     30 CA         20.6440  -28.1958  -40.8467 C.3       4 UNK         0.0283 
     31 CB         19.1932  -27.7665  -40.5759 C.3       4 UNK        -0.1875 
     32 C          21.6361  -27.1697  -40.2836 C.2       4 UNK         0.4949 
     33 O          22.1329  -27.3649  -39.1768 O.2       4 UNK        -0.5039 
     34 N          21.9624  -26.1333  -41.0697 N.am      5 UNK        -0.4663 
     35 CA         23.0300  -25.1678  -40.7857 C.3       5 UNK         0.0242 
     36 CB         22.9783  -24.0282  -41.8155 C.3       5 UNK        -0.1982 
     37 C          24.4220  -25.8251  -40.7609 C.2       5 UNK         0.5017 
     38 O          25.2524  -25.4585  -39.9296 O.2       5 UNK        -0.5012 
     39 N          24.6242  -26.8249  -41.6314 N.am      6 UNK        -0.4439 
     40 CA         25.7793  -27.7278  -41.6345 C.3       6 UNK         0.0297 
     41 CB         25.8457  -28.4427  -42.9948 C.3       6 UNK        -0.2006 
     42 C          25.7677  -28.7612  -40.4869 C.2       6 UNK         0.4892 
     43 O          26.7742  -29.4463  -40.3019 O.2       6 UNK        -0.5089 
     44 N          24.6463  -28.8656  -39.7544 N.am      7 UNK        -0.4243 
     45 CA         24.3719  -29.7843  -38.6424 C.3       7 UNK         0.0196 
     46 CB         25.2714  -29.4601  -37.4304 C.3       7 UNK        -0.2007 
     47 C          24.4198  -31.2683  -39.0520 C.2       7 UNK         0.5020 
     48 O          24.8406  -32.1087  -38.2546 O.2       7 UNK        -0.5147 
     49 N          23.9951  -31.5649  -40.2868 N.am      8 UNK        -0.4734 
     50 CA         24.0524  -32.9006  -40.8787 C.3       8 UNK         0.0238 
     51 CB         24.8347  -32.8264  -42.2019 C.3       8 UNK        -0.1912 
     52 C          22.6558  -33.4875  -41.1143 C.2       8 UNK         0.5038 
     53 O          22.4332  -34.6509  -40.7776 O.2       8 UNK        -0.5046 
     54 N          21.7583  -32.6938  -41.7187 N.am      9 UNK        -0.4200 
     55 CA         20.4790  -33.1485  -42.2967 C.3       9 UNK         0.0839 
     56 C          20.6707  -34.2549  -43.3893 C.2       9 UNK         0.5513 
     57 N          21.6964  -34.1505  -44.2268 N.am      9 UNK        -0.7519 
     58 O          19.9083  -35.2112  -43.4909 O.2       9 UNK        -0.4960 
     59 C59        19.3975  -33.4427  -41.2136 C.3       10 UNK        -0.0876 
     60 S60        17.6865  -33.6889  -41.8373 S.3       10 UNK        -0.2414 
     61 C61        16.9930  -32.0005  -41.9637 C.3       10 UNK         0.0169 
     62 H62        19.3879  -22.5539  -43.4044 H         1 UNK         0.0903 
     63 H63        18.0600  -22.6396  -44.5763 H         1 UNK         0.0903 
     64 H64        18.0325  -21.4356  -43.3007 H         1 UNK         0.0903 
     65 H65        16.9113  -25.3102  -42.3011 H         1 UNK         0.3096 
     66 H66        17.5740  -24.8792  -45.0130 H         1 UNK         0.1121 
     67 H67        17.8567  -27.4829  -43.4067 H         1 UNK         0.0849 
     68 H68        17.7203  -27.3257  -45.1398 H         1 UNK         0.0849 
     69 H69        15.3100  -28.1271  -46.1578 H         1 UNK         0.0865 
     70 H70        14.2001  -28.7546  -44.9677 H         1 UNK         0.0865 
     71 H71        15.4716  -29.9428  -42.8411 H         1 UNK         0.1346 
     72 H72        18.4724  -32.6725  -44.2423 H         1 UNK         0.1412 
     73 H73        17.0962  -29.5406  -46.7904 H         1 UNK         0.1426 
     74 H74        18.5195  -31.5354  -47.6354 H         1 UNK         0.0716 
     75 H75        19.3188  -32.5425  -46.4539 H         1 UNK         0.0716 
     76 H76        21.3348  -31.3598  -44.6460 H         1 UNK         0.0695 
     77 H77        19.9518  -30.3642  -44.2621 H         1 UNK         0.0695 
     78 H78        22.8137  -29.4783  -44.6849 H         1 UNK         0.0983 
     79 H79        20.5922  -27.9558  -45.5414 H         1 UNK         0.3095 
     80 H80        21.9834  -24.7065  -45.0351 H         1 UNK         0.0454 
     81 H81        21.4339  -26.3371  -47.5738 H         1 UNK         0.0851 
     82 H82        22.9592  -25.5624  -47.1707 H         1 UNK         0.0851 
     83 H83        21.5365  -24.5793  -47.4656 H         1 UNK         0.0851 
     84 H84        19.5206  -25.4463  -46.1841 H         1 UNK         0.2976 
     85 H85        20.2900  -27.8123  -42.8941 H         1 UNK         0.3116 
     86 H86        20.8153  -29.1456  -40.3347 H         1 UNK         0.0646 
     87 H87        18.4836  -28.5017  -40.9561 H         1 UNK         0.0847 
     88 H88        18.9584  -26.8044  -41.0321 H         1 UNK         0.0847 
     89 H89        19.0131  -27.6679  -39.5046 H         1 UNK         0.0847 
     90 H90        21.4322  -25.9889  -41.9262 H         1 UNK         0.3040 
     91 H91        22.8450  -24.7468  -39.7950 H         1 UNK         0.1015 
     92 H92        23.7300  -23.2692  -41.5948 H         1 UNK         0.0786 
     93 H93        22.0063  -23.5343  -41.8120 H         1 UNK         0.0786 
     94 H94        23.1658  -24.3886  -42.8271 H         1 UNK         0.0786 
     95 H95        23.9177  -26.9880  -42.3415 H         1 UNK         0.3172 
     96 H96        26.6829  -27.1255  -41.5211 H         1 UNK         0.0595 
     97 H97        24.9747  -29.0771  -43.1600 H         1 UNK         0.0839 
     98 H98        26.7284  -29.0803  -43.0598 H         1 UNK         0.0839 
     99 H99        25.9016  -27.7292  -43.8172 H         1 UNK         0.0839 
    100 H100       23.8828  -28.2379  -39.9736 H         1 UNK         0.2998 
    101 H101       23.3408  -29.5973  -38.3405 H         1 UNK         0.0822 
    102 H102       25.2003  -28.4074  -37.1562 H         1 UNK         0.0787 
    103 H103       24.9759  -30.0416  -36.5562 H         1 UNK         0.0787 
    104 H104       26.3192  -29.6852  -37.6315 H         1 UNK         0.0787 
    105 H105       23.6251  -30.8200  -40.8720 H         1 UNK         0.3055 
    106 H106       24.5832  -33.5921  -40.2201 H         1 UNK         0.1106 
    107 H107       24.8774  -33.8021  -42.6882 H         1 UNK         0.0828 
    108 H108       25.8624  -32.5050  -42.0311 H         1 UNK         0.0828 
    109 H109       24.3828  -32.1265  -42.9059 H         1 UNK         0.0828 
    110 H110       22.0282  -31.7374  -41.9262 H         1 UNK         0.2931 
    111 H111       20.1203  -32.2750  -42.8339 H         1 UNK         0.0412 
    112 H112       21.8265  -34.8629  -44.9280 H         1 UNK         0.3472 
    113 H113       22.3516  -33.3899  -44.1581 H         1 UNK         0.3472 
    114 H114       19.6763  -34.3379  -40.6556 H         1 UNK         0.0970 
    115 H115       19.3816  -32.6356  -40.4800 H         1 UNK         0.0970 
    116 H116       17.5327  -31.3322  -41.2917 H         1 UNK         0.0612 
    117 H117       15.9683  -32.0443  -41.5919 H         1 UNK         0.0612 
@<TRIPOS>BOND
     1    1    2 1    
     2    1   62 1    
     3    1   63 1    
     4    1   64 1    
     5    2    3 2    
     6    2    4 am   BACKBONE|DICT|INTERRES
     7    4    5 1    
     8    4   65 1    
     9    5    6 1    
    10    5   25 1    
    11    5   66 1    
    12    6    7 1    
    13    6   67 1    
    14    6   68 1    
    15    7    8 1    
    16    8    9 1    
    17    8   69 1    
    18    8   70 1    
    19    9   10 ar   
    20    9   14 ar   
    21   10   11 ar   
    22   10   71 1    
    23   11   12 ar   
    24   11   61 1    
    25   12   13 ar   
    26   12   72 1    
    27   13   14 ar   
    28   13   15 1    
    29   14   73 1    
    30   15   16 1    
    31   15   74 1    
    32   15   75 1    
    33   16   17 1    
    34   17   18 1    
    35   17   76 1    
    36   17   77 1    
    37   18   19 1    
    38   18   27 1    
    39   18   78 1    
    40   19   20 am   BACKBONE|DICT|INTERRES
    41   19   79 1    
    42   20   21 2    
    43   20   22 1    
    44   22   23 1    
    45   22   24 1    
    46   22   80 1    
    47   23   81 1    
    48   23   82 1    
    49   23   83 1    
    50   24   25 am   BACKBONE|DICT|INTERRES
    51   24   84 1    
    52   25   26 2    
    53   27   28 2    
    54   27   29 am   BACKBONE|DICT|INTERRES
    55   29   30 1    
    56   29   85 1    
    57   30   31 1    
    58   30   32 1    
    59   30   86 1    
    60   31   87 1    
    61   31   88 1    
    62   31   89 1    
    63   32   33 2    
    64   32   34 am   BACKBONE|DICT|INTERRES
    65   34   35 1    
    66   34   90 1    
    67   35   36 1    
    68   35   37 1    
    69   35   91 1    
    70   36   92 1    
    71   36   93 1    
    72   36   94 1    
    73   37   38 2    
    74   37   39 am   BACKBONE|DICT|INTERRES
    75   39   40 1    
    76   39   95 1    
    77   40   41 1    
    78   40   42 1    
    79   40   96 1    
    80   41   97 1    
    81   41   98 1    
    82   41   99 1    
    83   42   43 2    
    84   42   44 am   BACKBONE|DICT|INTERRES
    85   44   45 1    
    86   44  100 1    
    87   45   46 1    
    88   45   47 1    
    89   45  101 1    
    90   46  102 1    
    91   46  103 1    
    92   46  104 1    
    93   47   48 2    
    94   47   49 am   BACKBONE|DICT|INTERRES
    95   49   50 1    
    96   49  105 1    
    97   50   51 1    
    98   50   52 1    
    99   50  106 1    
   100   51  107 1    
   101   51  108 1    
   102   51  109 1    
   103   52   53 2    
   104   52   54 am   BACKBONE|DICT|INTERRES
   105   54   55 1    
   106   54  110 1    
   107   55   56 1    
   108   55   59 1    
   109   55  111 1    
   110   56   57 am   BACKBONE|DICT|INTERRES
   111   56   58 2    
   112   57  112 1    
   113   57  113 1    
   114   59   60 1    
   115   59  114 1    
   116   59  115 1    
   117   60   61 1    
   118   61  116 1    
   119   61  117 1    
@<TRIPOS>SUBSTRUCTURE
     1 UNK         1 GROUP             0       ****    0 ROOT    
