@<TRIPOS>MOLECULE
3R8
117   119    1
SMALL
USER_CHARGES


@<TRIPOS>ATOM
      1 CA         14.6300  -25.1893  -43.6353 C.3       0 UNK        -0.2013 
      2 C          14.8779  -24.2216  -44.7901 C.2       0 UNK         0.4866 
      3 O          14.0478  -23.3379  -44.9949 O.2       0 UNK        -0.5176 
      4 N          15.9558  -24.3102  -45.5869 N.am      1 UNK        -0.4884 
      5 CA         17.1307  -25.1948  -45.5588 C.3       1 UNK         0.0853 
      6 C6         16.8011  -26.7051  -45.7342 C.3       10 UNK        -0.0849 
      7 S7         17.9826  -27.5776  -46.8188 S.3       10 UNK        -0.2776 
      8 C8         19.2852  -28.1313  -45.6699 C.3       10 UNK         0.0316 
      9 C9         18.8586  -29.2950  -44.7866 C.ar      10 UNK        -0.0863 
     10 C10        19.1073  -30.6088  -45.1916 C.ar      10 UNK        -0.1009 
     11 C11        18.8086  -31.6846  -44.3483 C.ar      10 UNK        -0.0712 
     12 C12        18.2382  -31.4344  -43.0953 C.ar      10 UNK        -0.0894 
     13 C13        17.9638  -30.1251  -42.6863 C.ar      10 UNK        -0.0745 
     14 C14        18.2717  -29.0629  -43.5399 C.ar      10 UNK        -0.0972 
     15 C15        17.3206  -29.8593  -41.3311 C.3       10 UNK         0.0209 
     16 S16        18.5492  -29.4276  -40.0551 S.3       10 UNK        -0.2568 
     17 C17        18.8393  -27.6545  -40.3670 C.3       10 UNK        -0.0983 
     18 CA         20.1011  -27.3797  -41.2239 C.3       3 UNK         0.0876 
     19 N          19.9592  -26.1269  -41.9741 N.am      3 UNK        -0.4424 
     20 C          20.8065  -25.6575  -42.8963 C.2       2 UNK         0.4918 
     21 O          21.8656  -26.2108  -43.1948 O.2       2 UNK        -0.4875 
     22 CA         20.3721  -24.3664  -43.6167 C.3       2 UNK         0.0481 
     23 CB         21.5559  -23.6583  -44.2993 C.3       2 UNK        -0.1831 
     24 N          19.3303  -24.6248  -44.6162 N.am      2 UNK        -0.4498 
     25 C          18.0487  -24.9154  -44.3478 C.2       1 UNK         0.5027 
     26 O          17.6021  -24.9867  -43.2012 O.2       1 UNK        -0.4969 
     27 C          21.4027  -27.4696  -40.4030 C.2       3 UNK         0.5005 
     28 O          22.0002  -28.5446  -40.3382 O.2       3 UNK        -0.5279 
     29 N          21.8469  -26.3359  -39.8410 N.am      4 UNK        -0.4463 
     30 CA         23.1108  -26.2154  -39.1096 C.3       4 UNK         0.0283 
     31 CB         23.1533  -24.8670  -38.3734 C.3       4 UNK        -0.1875 
     32 C          24.3476  -26.3766  -40.0111 C.2       4 UNK         0.4949 
     33 O          25.3298  -26.9797  -39.5805 O.2       4 UNK        -0.5039 
     34 N          24.2752  -25.8557  -41.2449 N.am      5 UNK        -0.4663 
     35 CA         25.3343  -25.9748  -42.2521 C.3       5 UNK         0.0242 
     36 CB         25.1507  -24.8960  -43.3315 C.3       5 UNK        -0.1982 
     37 C          25.3661  -27.3752  -42.8823 C.2       5 UNK         0.5017 
     38 O          26.4491  -27.9130  -43.1128 O.2       5 UNK        -0.5012 
     39 N          24.1775  -27.9485  -43.1180 N.am      6 UNK        -0.4439 
     40 CA         23.9840  -29.3162  -43.6061 C.3       6 UNK         0.0297 
     41 CB         22.5319  -29.4711  -44.0904 C.3       6 UNK        -0.2006 
     42 C          24.3074  -30.3999  -42.5602 C.2       6 UNK         0.4892 
     43 O          24.4143  -31.5677  -42.9348 O.2       6 UNK        -0.5089 
     44 N          24.4010  -30.0141  -41.2767 N.am      7 UNK        -0.4243 
     45 CA         24.5461  -30.8709  -40.0910 C.3       7 UNK         0.0196 
     46 CB         25.9434  -31.5240  -40.0577 C.3       7 UNK        -0.2007 
     47 C          23.3988  -31.8946  -39.9780 C.2       7 UNK         0.5020 
     48 O          23.6333  -33.0614  -39.6572 O.2       7 UNK        -0.5147 
     49 N          22.1840  -31.4436  -40.3269 N.am      8 UNK        -0.4734 
     50 CA         20.9489  -32.2220  -40.4946 C.3       8 UNK         0.0238 
     51 CB         20.3987  -32.6513  -39.1192 C.3       8 UNK        -0.1912 
     52 C          21.0624  -33.4058  -41.4805 C.2       8 UNK         0.5038 
     53 O          20.2746  -34.3483  -41.3833 O.2       8 UNK        -0.5046 
     54 N          22.0387  -33.3439  -42.3977 N.am      9 UNK        -0.4200 
     55 CA         22.4406  -34.4176  -43.3190 C.3       9 UNK         0.0839 
     56 C          23.0739  -35.6550  -42.6112 C.2       9 UNK         0.5513 
     57 N          23.5484  -35.5433  -41.3749 N.am      9 UNK        -0.7519 
     58 O          23.1666  -36.7301  -43.1987 O.2       9 UNK        -0.4960 
     59 C59        21.3393  -34.7986  -44.3497 C.3       10 UNK        -0.0876 
     60 S60        20.7958  -33.3689  -45.3490 S.3       10 UNK        -0.2414 
     61 C61        19.0732  -33.1164  -44.7996 C.3       10 UNK         0.0169 
     62 H62        13.5694  -25.4315  -43.5751 H         1 UNK         0.0903 
     63 H63        15.1673  -26.1266  -43.7238 H         1 UNK         0.0903 
     64 H64        14.9185  -24.7225  -42.6941 H         1 UNK         0.0903 
     65 H65        16.0140  -23.6116  -46.3155 H         1 UNK         0.3096 
     66 H66        17.6826  -24.8816  -46.4470 H         1 UNK         0.1121 
     67 H67        16.7128  -27.2303  -44.7861 H         1 UNK         0.0849 
     68 H68        15.8253  -26.8145  -46.2102 H         1 UNK         0.0849 
     69 H69        20.1536  -28.4267  -46.2608 H         1 UNK         0.0865 
     70 H70        19.6264  -27.3023  -45.0538 H         1 UNK         0.0865 
     71 H71        19.5543  -30.7960  -46.1585 H         1 UNK         0.1346 
     72 H72        17.9992  -32.2607  -42.4395 H         1 UNK         0.1412 
     73 H73        18.0762  -28.0505  -43.2173 H         1 UNK         0.1426 
     74 H74        16.5712  -29.0709  -41.4152 H         1 UNK         0.0716 
     75 H75        16.7809  -30.7476  -40.9992 H         1 UNK         0.0716 
     76 H76        18.8955  -27.1352  -39.4083 H         1 UNK         0.0695 
     77 H77        17.9507  -27.2528  -40.8566 H         1 UNK         0.0695 
     78 H78        20.1874  -28.1643  -41.9748 H         1 UNK         0.0983 
     79 H79        19.0813  -25.6314  -41.8644 H         1 UNK         0.3095 
     80 H80        19.9705  -23.6844  -42.8643 H         1 UNK         0.0454 
     81 H81        21.2469  -22.7172  -44.7542 H         1 UNK         0.0851 
     82 H82        22.0060  -24.2752  -45.0782 H         1 UNK         0.0851 
     83 H83        22.3376  -23.4224  -43.5763 H         1 UNK         0.0851 
     84 H84        19.6321  -24.6062  -45.5802 H         1 UNK         0.2976 
     85 H85        21.2913  -25.4989  -39.9443 H         1 UNK         0.3116 
     86 H86        23.1419  -27.0113  -38.3620 H         1 UNK         0.0646 
     87 H87        22.3278  -24.7732  -37.6676 H         1 UNK         0.0847 
     88 H88        24.0772  -24.7648  -37.8022 H         1 UNK         0.0847 
     89 H89        23.1037  -24.0243  -39.0640 H         1 UNK         0.0847 
     90 H90        23.4133  -25.4191  -41.5391 H         1 UNK         0.3040 
     91 H91        26.2975  -25.8066  -41.7642 H         1 UNK         0.1015 
     92 H92        24.2285  -25.0382  -43.8950 H         1 UNK         0.0786 
     93 H93        25.9732  -24.9217  -44.0476 H         1 UNK         0.0786 
     94 H94        25.1311  -23.8964  -42.8972 H         1 UNK         0.0786 
     95 H95        23.3391  -27.3929  -42.9658 H         1 UNK         0.3172 
     96 H96        24.6489  -29.4721  -44.4580 H         1 UNK         0.0595 
     97 H97        21.8188  -29.3527  -43.2744 H         1 UNK         0.0839 
     98 H98        22.3641  -30.4585  -44.5238 H         1 UNK         0.0839 
     99 H99        22.2886  -28.7360  -44.8572 H         1 UNK         0.0839 
    100 H100       24.2267  -29.0375  -41.0796 H         1 UNK         0.2998 
    101 H101       24.4602  -30.2146  -39.2236 H         1 UNK         0.0822 
    102 H102       26.0981  -32.0678  -39.1250 H         1 UNK         0.0787 
    103 H103       26.0780  -32.2343  -40.8743 H         1 UNK         0.0787 
    104 H104       26.7318  -30.7748  -40.1310 H         1 UNK         0.0787 
    105 H105       22.1028  -30.4458  -40.5173 H         1 UNK         0.3055 
    106 H106       20.2281  -31.5437  -40.9489 H         1 UNK         0.1106 
    107 H107       19.4125  -33.1071  -39.2146 H         1 UNK         0.0828 
    108 H108       21.0504  -33.3783  -38.6339 H         1 UNK         0.0828 
    109 H109       20.2920  -31.7956  -38.4525 H         1 UNK         0.0828 
    110 H110       22.6648  -32.5472  -42.3882 H         1 UNK         0.2931 
    111 H111       23.2663  -33.9921  -43.8903 H         1 UNK         0.0412 
    112 H112       23.9644  -36.3479  -40.9336 H         1 UNK         0.3472 
    113 H113       23.5017  -34.6620  -40.8732 H         1 UNK         0.3472 
    114 H114       20.4936  -35.2778  -43.8562 H         1 UNK         0.0970 
    115 H115       21.7245  -35.5410  -45.0508 H         1 UNK         0.0970 
    116 H116       18.8235  -33.8141  -43.9997 H         1 UNK         0.0612 
    117 H117       18.4053  -33.3526  -45.6288 H         1 UNK         0.0612 
@<TRIPOS>BOND
     1    1    2 1    
     2    1   62 1    
     3    1   63 1    
     4    1   64 1    
     5    2    3 2    
     6    2    4 am   BACKBONE|DICT|INTERRES
     7    4    5 1    
     8    4   65 1    
     9    5    6 1    
    10    5   25 1    
    11    5   66 1    
    12    6    7 1    
    13    6   67 1    
    14    6   68 1    
    15    7    8 1    
    16    8    9 1    
    17    8   69 1    
    18    8   70 1    
    19    9   10 ar   
    20    9   14 ar   
    21   10   11 ar   
    22   10   71 1    
    23   11   12 ar   
    24   11   61 1    
    25   12   13 ar   
    26   12   72 1    
    27   13   14 ar   
    28   13   15 1    
    29   14   73 1    
    30   15   16 1    
    31   15   74 1    
    32   15   75 1    
    33   16   17 1    
    34   17   18 1    
    35   17   76 1    
    36   17   77 1    
    37   18   19 1    
    38   18   27 1    
    39   18   78 1    
    40   19   20 am   BACKBONE|DICT|INTERRES
    41   19   79 1    
    42   20   21 2    
    43   20   22 1    
    44   22   23 1    
    45   22   24 1    
    46   22   80 1    
    47   23   81 1    
    48   23   82 1    
    49   23   83 1    
    50   24   25 am   BACKBONE|DICT|INTERRES
    51   24   84 1    
    52   25   26 2    
    53   27   28 2    
    54   27   29 am   BACKBONE|DICT|INTERRES
    55   29   30 1    
    56   29   85 1    
    57   30   31 1    
    58   30   32 1    
    59   30   86 1    
    60   31   87 1    
    61   31   88 1    
    62   31   89 1    
    63   32   33 2    
    64   32   34 am   BACKBONE|DICT|INTERRES
    65   34   35 1    
    66   34   90 1    
    67   35   36 1    
    68   35   37 1    
    69   35   91 1    
    70   36   92 1    
    71   36   93 1    
    72   36   94 1    
    73   37   38 2    
    74   37   39 am   BACKBONE|DICT|INTERRES
    75   39   40 1    
    76   39   95 1    
    77   40   41 1    
    78   40   42 1    
    79   40   96 1    
    80   41   97 1    
    81   41   98 1    
    82   41   99 1    
    83   42   43 2    
    84   42   44 am   BACKBONE|DICT|INTERRES
    85   44   45 1    
    86   44  100 1    
    87   45   46 1    
    88   45   47 1    
    89   45  101 1    
    90   46  102 1    
    91   46  103 1    
    92   46  104 1    
    93   47   48 2    
    94   47   49 am   BACKBONE|DICT|INTERRES
    95   49   50 1    
    96   49  105 1    
    97   50   51 1    
    98   50   52 1    
    99   50  106 1    
   100   51  107 1    
   101   51  108 1    
   102   51  109 1    
   103   52   53 2    
   104   52   54 am   BACKBONE|DICT|INTERRES
   105   54   55 1    
   106   54  110 1    
   107   55   56 1    
   108   55   59 1    
   109   55  111 1    
   110   56   57 am   BACKBONE|DICT|INTERRES
   111   56   58 2    
   112   57  112 1    
   113   57  113 1    
   114   59   60 1    
   115   59  114 1    
   116   59  115 1    
   117   60   61 1    
   118   61  116 1    
   119   61  117 1    
@<TRIPOS>SUBSTRUCTURE
     1 UNK         1 GROUP             0       ****    0 ROOT    
