@<TRIPOS>MOLECULE
3R8
117   119    1
SMALL
USER_CHARGES


@<TRIPOS>ATOM
      1 CA         14.2353  -24.5790  -41.0333 C.3       0 UNK        -0.2013 
      2 C          14.9156  -24.8597  -42.3650 C.2       0 UNK         0.4866 
      3 O          14.5710  -24.2391  -43.3716 O.2       0 UNK        -0.5176 
      4 N          15.8716  -25.7965  -42.3812 N.am      1 UNK        -0.4884 
      5 CA         16.6631  -26.1672  -43.5596 C.3       1 UNK         0.0853 
      6 C6         17.4372  -27.4899  -43.3402 C.3       10 UNK        -0.0849 
      7 S7         16.3463  -28.9053  -42.9521 S.3       10 UNK        -0.2776 
      8 C8         16.6293  -30.0367  -44.3581 C.3       10 UNK         0.0316 
      9 C9         18.1008  -30.3940  -44.5315 C.ar      10 UNK        -0.0863 
     10 C10        18.8053  -31.0197  -43.4970 C.ar      10 UNK        -0.1009 
     11 C11        20.1728  -31.2785  -43.6262 C.ar      10 UNK        -0.0712 
     12 C12        20.8286  -30.9308  -44.8106 C.ar      10 UNK        -0.0894 
     13 C13        20.1332  -30.3184  -45.8570 C.ar      10 UNK        -0.0745 
     14 C14        18.7671  -30.0610  -45.7158 C.ar      10 UNK        -0.0972 
     15 C15        20.8739  -29.8889  -47.1169 C.3       10 UNK         0.0209 
     16 S16        21.0526  -28.0758  -47.2338 S.3       10 UNK        -0.2568 
     17 C17        21.8423  -27.6760  -45.6362 C.3       10 UNK        -0.0983 
     18 CA         21.8809  -26.1583  -45.3165 C.3       3 UNK         0.0876 
     19 N          20.5526  -25.5515  -45.4428 N.am      3 UNK        -0.4424 
     20 C          20.2853  -24.2527  -45.6273 C.2       2 UNK         0.4918 
     21 O          21.1539  -23.3806  -45.6803 O.2       2 UNK        -0.4875 
     22 CA         18.8053  -23.8556  -45.7886 C.3       2 UNK         0.0481 
     23 CB         18.4804  -23.6173  -47.2718 C.3       2 UNK        -0.1831 
     24 N          17.8663  -24.8440  -45.2435 N.am      2 UNK        -0.4498 
     25 C          17.6487  -25.0404  -43.9352 C.2       1 UNK         0.5027 
     26 O          18.2198  -24.4053  -43.0446 O.2       1 UNK        -0.4969 
     27 C          22.4749  -25.8952  -43.9135 C.2       3 UNK         0.5005 
     28 O          22.6899  -26.8383  -43.1522 O.2       3 UNK        -0.5279 
     29 N          22.7192  -24.6203  -43.5803 N.am      4 UNK        -0.4463 
     30 CA         23.1486  -24.1421  -42.2575 C.3       4 UNK         0.0283 
     31 CB         23.2515  -22.6087  -42.2907 C.3       4 UNK        -0.1875 
     32 C          24.4571  -24.7550  -41.7174 C.2       4 UNK         0.4949 
     33 O          24.6599  -24.7636  -40.5031 O.2       4 UNK        -0.5039 
     34 N          25.3158  -25.2544  -42.6153 N.am      5 UNK        -0.4663 
     35 CA         26.5598  -25.9514  -42.2828 C.3       5 UNK         0.0242 
     36 CB         27.5164  -25.8454  -43.4827 C.3       5 UNK        -0.1982 
     37 C          26.3601  -27.4284  -41.8859 C.2       5 UNK         0.5017 
     38 O          27.2995  -28.0236  -41.3557 O.2       5 UNK        -0.5012 
     39 N          25.1825  -28.0051  -42.1632 N.am      6 UNK        -0.4439 
     40 CA         24.8481  -29.4051  -41.8971 C.3       6 UNK         0.0297 
     41 CB         24.2282  -30.0057  -43.1706 C.3       6 UNK        -0.2006 
     42 C          23.8703  -29.5098  -40.7163 C.2       6 UNK         0.4892 
     43 O          23.1963  -28.5342  -40.3782 O.2       6 UNK        -0.5089 
     44 N          23.7942  -30.7051  -40.1216 N.am      7 UNK        -0.4243 
     45 CA         22.9015  -31.0497  -39.0174 C.3       7 UNK         0.0196 
     46 CB         23.4274  -30.4497  -37.6976 C.3       7 UNK        -0.2007 
     47 C          22.7985  -32.5763  -38.9136 C.2       7 UNK         0.5020 
     48 O          23.6679  -33.2814  -39.4316 O.2       7 UNK        -0.5147 
     49 N          21.7530  -33.0457  -38.2162 N.am      8 UNK        -0.4734 
     50 CA         21.4716  -34.4484  -37.8652 C.3       8 UNK         0.0238 
     51 CB         22.5355  -34.9825  -36.8811 C.3       8 UNK        -0.1912 
     52 C          21.2622  -35.3827  -39.0763 C.2       8 UNK         0.5038 
     53 O          21.5783  -36.5717  -38.9951 O.2       8 UNK        -0.5046 
     54 N          20.7315  -34.8310  -40.1737 N.am      9 UNK        -0.4200 
     55 CA         20.4218  -35.5551  -41.4152 C.3       9 UNK         0.0839 
     56 C          19.2161  -36.5193  -41.2537 C.2       9 UNK         0.5513 
     57 N          19.2138  -37.6334  -41.9724 N.am      9 UNK        -0.7519 
     58 O          18.2682  -36.2474  -40.5190 O.2       9 UNK        -0.4960 
     59 C59        20.1968  -34.5860  -42.6041 C.3       10 UNK        -0.0876 
     60 S60        21.6435  -33.5112  -42.8902 S.3       10 UNK        -0.2414 
     61 C61        20.9607  -31.8785  -42.4715 C.3       10 UNK         0.0169 
     62 H62        13.1640  -24.7617  -41.1132 H         1 UNK         0.0903 
     63 H63        14.6276  -25.2078  -40.2342 H         1 UNK         0.0903 
     64 H64        14.3834  -23.5376  -40.7489 H         1 UNK         0.0903 
     65 H65        16.1189  -26.2730  -41.5257 H         1 UNK         0.3096 
     66 H66        15.9698  -26.3081  -44.3923 H         1 UNK         0.1121 
     67 H67        18.0335  -27.7229  -44.2231 H         1 UNK         0.0849 
     68 H68        18.1517  -27.3857  -42.5209 H         1 UNK         0.0849 
     69 H69        16.0573  -30.9517  -44.1983 H         1 UNK         0.0865 
     70 H70        16.2285  -29.5794  -45.2641 H         1 UNK         0.0865 
     71 H71        18.2933  -31.2677  -42.5772 H         1 UNK         0.1346 
     72 H72        21.8893  -31.1181  -44.9058 H         1 UNK         0.1412 
     73 H73        18.2348  -29.5684  -46.5183 H         1 UNK         0.1426 
     74 H74        20.3355  -30.2500  -47.9942 H         1 UNK         0.0716 
     75 H75        21.8646  -30.3443  -47.1566 H         1 UNK         0.0716 
     76 H76        21.2969  -28.1929  -44.8460 H         1 UNK         0.0695 
     77 H77        22.8510  -28.0935  -45.6397 H         1 UNK         0.0695 
     78 H78        22.5445  -25.6837  -46.0428 H         1 UNK         0.0983 
     79 H79        19.7783  -26.1962  -45.4204 H         1 UNK         0.3095 
     80 H80        18.6598  -22.9136  -45.2555 H         1 UNK         0.0454 
     81 H81        18.6009  -24.5253  -47.8643 H         1 UNK         0.0851 
     82 H82        17.4582  -23.2620  -47.4032 H         1 UNK         0.0851 
     83 H83        19.1402  -22.8609  -47.6992 H         1 UNK         0.0851 
     84 H84        17.3565  -25.3992  -45.9166 H         1 UNK         0.2976 
     85 H85        22.4644  -23.9115  -44.2618 H         1 UNK         0.3116 
     86 H86        22.3604  -24.4134  -41.5522 H         1 UNK         0.0646 
     87 H87        23.5343  -22.2137  -41.3138 H         1 UNK         0.0847 
     88 H88        22.2987  -22.1514  -42.5583 H         1 UNK         0.0847 
     89 H89        24.0006  -22.2710  -43.0079 H         1 UNK         0.0847 
     90 H90        25.0681  -25.1992  -43.5924 H         1 UNK         0.3040 
     91 H91        27.0261  -25.4506  -41.4311 H         1 UNK         0.1015 
     92 H92        27.7229  -24.8052  -43.7356 H         1 UNK         0.0786 
     93 H93        27.1086  -26.3335  -44.3689 H         1 UNK         0.0786 
     94 H94        28.4745  -26.3185  -43.2625 H         1 UNK         0.0786 
     95 H95        24.4091  -27.4319  -42.4943 H         1 UNK         0.3172 
     96 H96        25.7475  -29.9735  -41.6510 H         1 UNK         0.0595 
     97 H97        24.8922  -29.8910  -44.0274 H         1 UNK         0.0839 
     98 H98        23.2791  -29.5286  -43.4184 H         1 UNK         0.0839 
     99 H99        24.0404  -31.0733  -43.0519 H         1 UNK         0.0839 
    100 H100       24.3446  -31.4851  -40.4622 H         1 UNK         0.2998 
    101 H101       21.9074  -30.6517  -39.2332 H         1 UNK         0.0822 
    102 H102       23.4667  -29.3611  -37.7392 H         1 UNK         0.0787 
    103 H103       22.7831  -30.7134  -36.8580 H         1 UNK         0.0787 
    104 H104       24.4300  -30.8111  -37.4655 H         1 UNK         0.0787 
    105 H105       21.0978  -32.3721  -37.8415 H         1 UNK         0.3055 
    106 H106       20.5166  -34.4439  -37.3368 H         1 UNK         0.1106 
    107 H107       23.5120  -35.0817  -37.3563 H         1 UNK         0.0828 
    108 H108       22.6468  -34.3239  -36.0199 H         1 UNK         0.0828 
    109 H109       22.2596  -35.9662  -36.4989 H         1 UNK         0.0828 
    110 H110       20.4923  -33.8526  -40.1526 H         1 UNK         0.2931 
    111 H111       21.2975  -36.1640  -41.6515 H         1 UNK         0.0412 
    112 H112       18.4327  -38.2665  -41.8942 H         1 UNK         0.3472 
    113 H113       19.9830  -37.8612  -42.5838 H         1 UNK         0.3472 
    114 H114       19.3021  -33.9805  -42.4476 H         1 UNK         0.0970 
    115 H115       20.0194  -35.1478  -43.5231 H         1 UNK         0.0970 
    116 H116       21.7799  -31.2066  -42.2213 H         1 UNK         0.0612 
    117 H117       20.3504  -31.9528  -41.5704 H         1 UNK         0.0612 
@<TRIPOS>BOND
     1    1    2 1    
     2    1   62 1    
     3    1   63 1    
     4    1   64 1    
     5    2    3 2    
     6    2    4 am   BACKBONE|DICT|INTERRES
     7    4    5 1    
     8    4   65 1    
     9    5    6 1    
    10    5   25 1    
    11    5   66 1    
    12    6    7 1    
    13    6   67 1    
    14    6   68 1    
    15    7    8 1    
    16    8    9 1    
    17    8   69 1    
    18    8   70 1    
    19    9   10 ar   
    20    9   14 ar   
    21   10   11 ar   
    22   10   71 1    
    23   11   12 ar   
    24   11   61 1    
    25   12   13 ar   
    26   12   72 1    
    27   13   14 ar   
    28   13   15 1    
    29   14   73 1    
    30   15   16 1    
    31   15   74 1    
    32   15   75 1    
    33   16   17 1    
    34   17   18 1    
    35   17   76 1    
    36   17   77 1    
    37   18   19 1    
    38   18   27 1    
    39   18   78 1    
    40   19   20 am   BACKBONE|DICT|INTERRES
    41   19   79 1    
    42   20   21 2    
    43   20   22 1    
    44   22   23 1    
    45   22   24 1    
    46   22   80 1    
    47   23   81 1    
    48   23   82 1    
    49   23   83 1    
    50   24   25 am   BACKBONE|DICT|INTERRES
    51   24   84 1    
    52   25   26 2    
    53   27   28 2    
    54   27   29 am   BACKBONE|DICT|INTERRES
    55   29   30 1    
    56   29   85 1    
    57   30   31 1    
    58   30   32 1    
    59   30   86 1    
    60   31   87 1    
    61   31   88 1    
    62   31   89 1    
    63   32   33 2    
    64   32   34 am   BACKBONE|DICT|INTERRES
    65   34   35 1    
    66   34   90 1    
    67   35   36 1    
    68   35   37 1    
    69   35   91 1    
    70   36   92 1    
    71   36   93 1    
    72   36   94 1    
    73   37   38 2    
    74   37   39 am   BACKBONE|DICT|INTERRES
    75   39   40 1    
    76   39   95 1    
    77   40   41 1    
    78   40   42 1    
    79   40   96 1    
    80   41   97 1    
    81   41   98 1    
    82   41   99 1    
    83   42   43 2    
    84   42   44 am   BACKBONE|DICT|INTERRES
    85   44   45 1    
    86   44  100 1    
    87   45   46 1    
    88   45   47 1    
    89   45  101 1    
    90   46  102 1    
    91   46  103 1    
    92   46  104 1    
    93   47   48 2    
    94   47   49 am   BACKBONE|DICT|INTERRES
    95   49   50 1    
    96   49  105 1    
    97   50   51 1    
    98   50   52 1    
    99   50  106 1    
   100   51  107 1    
   101   51  108 1    
   102   51  109 1    
   103   52   53 2    
   104   52   54 am   BACKBONE|DICT|INTERRES
   105   54   55 1    
   106   54  110 1    
   107   55   56 1    
   108   55   59 1    
   109   55  111 1    
   110   56   57 am   BACKBONE|DICT|INTERRES
   111   56   58 2    
   112   57  112 1    
   113   57  113 1    
   114   59   60 1    
   115   59  114 1    
   116   59  115 1    
   117   60   61 1    
   118   61  116 1    
   119   61  117 1    
@<TRIPOS>SUBSTRUCTURE
     1 UNK         1 GROUP             0       ****    0 ROOT    
