@<TRIPOS>MOLECULE
3R8
117   119    1
SMALL
USER_CHARGES


@<TRIPOS>ATOM
      1 CA         14.5090  -27.5216  -47.0832 C.3       0 UNK        -0.2013 
      2 C          15.8781  -27.3026  -46.4582 C.2       0 UNK         0.4866 
      3 O          16.8910  -27.6695  -47.0552 O.2       0 UNK        -0.5176 
      4 N          15.9219  -26.6956  -45.2656 N.am      1 UNK        -0.4884 
      5 CA         17.1359  -26.4180  -44.4857 C.3       1 UNK         0.0853 
      6 C6         16.8211  -26.2516  -42.9749 C.3       10 UNK        -0.0849 
      7 S7         16.0375  -27.7255  -42.2370 S.3       10 UNK        -0.2776 
      8 C8         17.4178  -28.4455  -41.2912 C.3       10 UNK         0.0316 
      9 C9         18.4135  -29.1528  -42.1981 C.ar      10 UNK        -0.0863 
     10 C10        18.1707  -30.4666  -42.6074 C.ar      10 UNK        -0.1009 
     11 C11        19.0821  -31.1350  -43.4296 C.ar      10 UNK        -0.0712 
     12 C12        20.2472  -30.4805  -43.8410 C.ar      10 UNK        -0.0894 
     13 C13        20.5024  -29.1675  -43.4346 C.ar      10 UNK        -0.0745 
     14 C14        19.5798  -28.5062  -42.6177 C.ar      10 UNK        -0.0972 
     15 C15        21.7741  -28.4600  -43.8719 C.3       10 UNK         0.0209 
     16 S16        21.5104  -27.5996  -45.4464 S.3       10 UNK        -0.2568 
     17 C17        22.7678  -26.2691  -45.3772 C.3       10 UNK        -0.0983 
     18 CA         22.2346  -24.8726  -44.9301 C.3       3 UNK         0.0876 
     19 N          20.9135  -24.5499  -45.4543 N.am      3 UNK        -0.4424 
     20 C          20.5843  -24.3498  -46.7323 C.2       2 UNK         0.4918 
     21 O          21.4108  -24.2808  -47.6438 O.2       2 UNK        -0.4875 
     22 CA         19.0743  -24.2384  -47.0396 C.3       2 UNK         0.0481 
     23 CB         18.7694  -24.3430  -48.5451 C.3       2 UNK        -0.1831 
     24 N          18.2877  -25.2538  -46.3282 N.am      2 UNK        -0.4498 
     25 C          17.9048  -25.1988  -45.0463 C.2       1 UNK         0.5027 
     26 O          18.1515  -24.2330  -44.3213 O.2       1 UNK        -0.4969 
     27 C          22.1513  -24.7315  -43.4016 C.2       3 UNK         0.5005 
     28 O          21.1890  -25.2129  -42.7985 O.2       3 UNK        -0.5279 
     29 N          23.1460  -24.0658  -42.8006 N.am      4 UNK        -0.4463 
     30 CA         23.1989  -23.7876  -41.3599 C.3       4 UNK         0.0283 
     31 CB         23.9398  -22.4585  -41.1362 C.3       4 UNK        -0.1875 
     32 C          23.8688  -24.9085  -40.5458 C.2       4 UNK         0.4949 
     33 O          23.7034  -24.9453  -39.3269 O.2       4 UNK        -0.5039 
     34 N          24.6288  -25.7858  -41.2165 N.am      5 UNK        -0.4663 
     35 CA         25.4360  -26.8417  -40.5946 C.3       5 UNK         0.0242 
     36 CB         26.4782  -27.3281  -41.6164 C.3       5 UNK        -0.1982 
     37 C          24.6259  -28.0348  -40.0553 C.2       5 UNK         0.5017 
     38 O          25.1740  -28.8230  -39.2860 O.2       5 UNK        -0.5012 
     39 N          23.3686  -28.1737  -40.5033 N.am      6 UNK        -0.4439 
     40 CA         22.4140  -29.2584  -40.2157 C.3       6 UNK         0.0297 
     41 CB         22.1051  -29.3507  -38.7071 C.3       6 UNK        -0.2006 
     42 C          22.7878  -30.6363  -40.8064 C.2       6 UNK         0.4892 
     43 O          22.0416  -31.5938  -40.5946 O.2       6 UNK        -0.5089 
     44 N          23.9089  -30.7168  -41.5434 N.am      7 UNK        -0.4243 
     45 CA         24.4871  -31.9138  -42.1654 C.3       7 UNK         0.0196 
     46 CB         23.6557  -32.3215  -43.4039 C.3       7 UNK        -0.2007 
     47 C          24.6817  -33.0378  -41.1275 C.2       7 UNK         0.5020 
     48 O          25.4672  -32.8657  -40.1945 O.2       7 UNK        -0.5147 
     49 N          23.9386  -34.1368  -41.2826 N.am      8 UNK        -0.4734 
     50 CA         23.7654  -35.1910  -40.2820 C.3       8 UNK         0.0238 
     51 CB         24.5605  -36.4380  -40.7131 C.3       8 UNK        -0.1912 
     52 C          22.2663  -35.4854  -40.0808 C.2       8 UNK         0.5038 
     53 O          21.9109  -36.6043  -39.7054 O.2       8 UNK        -0.5046 
     54 N          21.4112  -34.4965  -40.3733 N.am      9 UNK        -0.4200 
     55 CA         19.9482  -34.6049  -40.3362 C.3       9 UNK         0.0839 
     56 C          19.3861  -34.4912  -38.8944 C.2       9 UNK         0.5513 
     57 N          18.2057  -35.0441  -38.6499 N.am      9 UNK        -0.7519 
     58 O          19.9852  -33.8875  -38.0064 O.2       9 UNK        -0.4960 
     59 C59        19.2896  -33.5690  -41.2831 C.3       10 UNK        -0.0876 
     60 S60        19.8420  -33.7744  -43.0124 S.3       10 UNK        -0.2414 
     61 C61        18.8007  -32.5611  -43.8798 C.3       10 UNK         0.0169 
     62 H62        14.4479  -27.0077  -48.0421 H         1 UNK         0.0903 
     63 H63        14.3416  -28.5846  -47.2548 H         1 UNK         0.0903 
     64 H64        13.7056  -27.1505  -46.4470 H         1 UNK         0.0903 
     65 H65        15.0577  -26.4084  -44.8280 H         1 UNK         0.3096 
     66 H66        17.8078  -27.2740  -44.5869 H         1 UNK         0.1121 
     67 H67        16.1523  -25.4031  -42.8182 H         1 UNK         0.0849 
     68 H68        17.7302  -26.0181  -42.4172 H         1 UNK         0.0849 
     69 H69        17.9112  -27.6730  -40.6991 H         1 UNK         0.0865 
     70 H70        17.0136  -29.1592  -40.5716 H         1 UNK         0.0865 
     71 H71        17.2679  -30.9681  -42.2861 H         1 UNK         0.1346 
     72 H72        20.9551  -30.9953  -44.4758 H         1 UNK         0.1412 
     73 H73        19.7749  -27.4884  -42.3069 H         1 UNK         0.1426 
     74 H74        22.5941  -29.1716  -43.9779 H         1 UNK         0.0716 
     75 H75        22.0795  -27.7478  -43.1064 H         1 UNK         0.0716 
     76 H76        23.6132  -26.5881  -44.7646 H         1 UNK         0.0695 
     77 H77        23.1704  -26.1773  -46.3870 H         1 UNK         0.0695 
     78 H78        22.9228  -24.1091  -45.2992 H         1 UNK         0.0983 
     79 H79        20.1759  -24.5600  -44.7568 H         1 UNK         0.3095 
     80 H80        18.7534  -23.2497  -46.7061 H         1 UNK         0.0454 
     81 H81        19.2833  -23.5611  -49.1057 H         1 UNK         0.0851 
     82 H82        19.0881  -25.3026  -48.9540 H         1 UNK         0.0851 
     83 H83        17.7033  -24.2315  -48.7430 H         1 UNK         0.0851 
     84 H84        18.0438  -26.0948  -46.8446 H         1 UNK         0.2976 
     85 H85        23.8965  -23.6862  -43.3618 H         1 UNK         0.3116 
     86 H86        22.1822  -23.6713  -40.9774 H         1 UNK         0.0646 
     87 H87        23.9687  -22.2009  -40.0764 H         1 UNK         0.0847 
     88 H88        23.4445  -21.6358  -41.6522 H         1 UNK         0.0847 
     89 H89        24.9715  -22.5041  -41.4872 H         1 UNK         0.0847 
     90 H90        24.7182  -25.6722  -42.2154 H         1 UNK         0.3040 
     91 H91        25.9674  -26.4087  -39.7437 H         1 UNK         0.1015 
     92 H92        27.1270  -26.5135  -41.9392 H         1 UNK         0.0786 
     93 H93        26.0089  -27.7557  -42.5034 H         1 UNK         0.0786 
     94 H94        27.1219  -28.0966  -41.1854 H         1 UNK         0.0786 
     95 H95        23.0300  -27.4481  -41.1190 H         1 UNK         0.3172 
     96 H96        21.4869  -28.9691  -40.7075 H         1 UNK         0.0595 
     97 H97        21.8139  -28.3823  -38.3005 H         1 UNK         0.0839 
     98 H98        22.9609  -29.7129  -38.1371 H         1 UNK         0.0839 
     99 H99        21.2807  -30.0404  -38.5204 H         1 UNK         0.0839 
    100 H100       24.4739  -29.8832  -41.6021 H         1 UNK         0.2998 
    101 H101       25.4856  -31.6404  -42.5098 H         1 UNK         0.0822 
    102 H102       24.0824  -33.1945  -43.8997 H         1 UNK         0.0787 
    103 H103       22.6206  -32.5508  -43.1493 H         1 UNK         0.0787 
    104 H104       23.6378  -31.5184  -44.1403 H         1 UNK         0.0787 
    105 H105       23.3144  -34.1788  -42.0772 H         1 UNK         0.3055 
    106 H106       24.1414  -34.8568  -39.3122 H         1 UNK         0.1106 
    107 H107       25.6175  -36.2065  -40.8453 H         1 UNK         0.0828 
    108 H108       24.4959  -37.2258  -39.9614 H         1 UNK         0.0828 
    109 H109       24.1867  -36.8485  -41.6517 H         1 UNK         0.0828 
    110 H110       21.7718  -33.5695  -40.5802 H         1 UNK         0.2931 
    111 H111       19.6844  -35.5985  -40.7054 H         1 UNK         0.0412 
    112 H112       17.8143  -34.9741  -37.7232 H         1 UNK         0.3472 
    113 H113       17.7028  -35.5411  -39.3690 H         1 UNK         0.3472 
    114 H114       19.5212  -32.5535  -40.9561 H         1 UNK         0.0970 
    115 H115       18.2023  -33.6614  -41.2584 H         1 UNK         0.0970 
    116 H116       18.9848  -32.6430  -44.9519 H         1 UNK         0.0612 
    117 H117       17.7507  -32.8168  -43.7294 H         1 UNK         0.0612 
@<TRIPOS>BOND
     1    1    2 1    
     2    1   62 1    
     3    1   63 1    
     4    1   64 1    
     5    2    3 2    
     6    2    4 am   BACKBONE|DICT|INTERRES
     7    4    5 1    
     8    4   65 1    
     9    5    6 1    
    10    5   25 1    
    11    5   66 1    
    12    6    7 1    
    13    6   67 1    
    14    6   68 1    
    15    7    8 1    
    16    8    9 1    
    17    8   69 1    
    18    8   70 1    
    19    9   10 ar   
    20    9   14 ar   
    21   10   11 ar   
    22   10   71 1    
    23   11   12 ar   
    24   11   61 1    
    25   12   13 ar   
    26   12   72 1    
    27   13   14 ar   
    28   13   15 1    
    29   14   73 1    
    30   15   16 1    
    31   15   74 1    
    32   15   75 1    
    33   16   17 1    
    34   17   18 1    
    35   17   76 1    
    36   17   77 1    
    37   18   19 1    
    38   18   27 1    
    39   18   78 1    
    40   19   20 am   BACKBONE|DICT|INTERRES
    41   19   79 1    
    42   20   21 2    
    43   20   22 1    
    44   22   23 1    
    45   22   24 1    
    46   22   80 1    
    47   23   81 1    
    48   23   82 1    
    49   23   83 1    
    50   24   25 am   BACKBONE|DICT|INTERRES
    51   24   84 1    
    52   25   26 2    
    53   27   28 2    
    54   27   29 am   BACKBONE|DICT|INTERRES
    55   29   30 1    
    56   29   85 1    
    57   30   31 1    
    58   30   32 1    
    59   30   86 1    
    60   31   87 1    
    61   31   88 1    
    62   31   89 1    
    63   32   33 2    
    64   32   34 am   BACKBONE|DICT|INTERRES
    65   34   35 1    
    66   34   90 1    
    67   35   36 1    
    68   35   37 1    
    69   35   91 1    
    70   36   92 1    
    71   36   93 1    
    72   36   94 1    
    73   37   38 2    
    74   37   39 am   BACKBONE|DICT|INTERRES
    75   39   40 1    
    76   39   95 1    
    77   40   41 1    
    78   40   42 1    
    79   40   96 1    
    80   41   97 1    
    81   41   98 1    
    82   41   99 1    
    83   42   43 2    
    84   42   44 am   BACKBONE|DICT|INTERRES
    85   44   45 1    
    86   44  100 1    
    87   45   46 1    
    88   45   47 1    
    89   45  101 1    
    90   46  102 1    
    91   46  103 1    
    92   46  104 1    
    93   47   48 2    
    94   47   49 am   BACKBONE|DICT|INTERRES
    95   49   50 1    
    96   49  105 1    
    97   50   51 1    
    98   50   52 1    
    99   50  106 1    
   100   51  107 1    
   101   51  108 1    
   102   51  109 1    
   103   52   53 2    
   104   52   54 am   BACKBONE|DICT|INTERRES
   105   54   55 1    
   106   54  110 1    
   107   55   56 1    
   108   55   59 1    
   109   55  111 1    
   110   56   57 am   BACKBONE|DICT|INTERRES
   111   56   58 2    
   112   57  112 1    
   113   57  113 1    
   114   59   60 1    
   115   59  114 1    
   116   59  115 1    
   117   60   61 1    
   118   61  116 1    
   119   61  117 1    
@<TRIPOS>SUBSTRUCTURE
     1 UNK         1 GROUP             0       ****    0 ROOT    
