@<TRIPOS>MOLECULE
3R8
117   119    1
SMALL
USER_CHARGES


@<TRIPOS>ATOM
      1 CA         12.9181  -24.0816  -47.5553 C.3       0 UNK        -0.2013 
      2 C          13.4803  -25.4326  -47.1388 C.2       0 UNK         0.4866 
      3 O          12.7702  -26.4367  -47.1977 O.2       0 UNK        -0.5176 
      4 N          14.7486  -25.4666  -46.7198 N.am      1 UNK        -0.4884 
      5 CA         15.4757  -26.6650  -46.3080 C.3       1 UNK         0.0853 
      6 C6         15.1708  -27.0401  -44.8365 C.3       10 UNK        -0.0849 
      7 S7         15.6586  -28.7464  -44.4107 S.3       10 UNK        -0.2776 
      8 C8         15.5573  -28.7021  -42.5912 C.3       10 UNK         0.0316 
      9 C9         16.8797  -28.2941  -41.9556 C.ar      10 UNK        -0.0863 
     10 C10        17.7628  -29.2696  -41.4809 C.ar      10 UNK        -0.1009 
     11 C11        18.9696  -28.9007  -40.8782 C.ar      10 UNK        -0.0712 
     12 C12        19.3009  -27.5476  -40.7666 C.ar      10 UNK        -0.0894 
     13 C13        18.4409  -26.5672  -41.2643 C.ar      10 UNK        -0.0745 
     14 C14        17.2204  -26.9442  -41.8301 C.ar      10 UNK        -0.0972 
     15 C15        18.8344  -25.1006  -41.2196 C.3       10 UNK         0.0209 
     16 S16        19.3077  -24.5058  -42.8743 S.3       10 UNK        -0.2568 
     17 C17        20.9731  -25.2243  -43.0978 C.3       10 UNK        -0.0983 
     18 CA         21.0049  -26.5764  -43.8628 C.3       3 UNK         0.0876 
     19 N          20.2107  -26.5522  -45.0951 N.am      3 UNK        -0.4424 
     20 C          19.9078  -27.6348  -45.8210 C.2       2 UNK         0.4918 
     21 O          20.1744  -28.7885  -45.4810 O.2       2 UNK        -0.4875 
     22 CA         19.1616  -27.3878  -47.1393 C.3       2 UNK         0.0481 
     23 CB         19.5338  -28.4267  -48.2128 C.3       2 UNK        -0.1831 
     24 N          17.7221  -27.4415  -46.9019 N.am      2 UNK        -0.4498 
     25 C          16.9705  -26.3934  -46.5480 C.2       1 UNK         0.5027 
     26 O          17.4088  -25.2462  -46.4169 O.2       1 UNK        -0.4969 
     27 C          22.4640  -26.9614  -44.1927 C.2       3 UNK         0.5005 
     28 O          23.0326  -26.3953  -45.1311 O.2       3 UNK        -0.5279 
     29 N          23.0507  -27.8905  -43.4282 N.am      4 UNK        -0.4463 
     30 CA         24.4138  -28.3789  -43.6306 C.3       4 UNK         0.0283 
     31 CB         24.4091  -29.5824  -44.5902 C.3       4 UNK        -0.1875 
     32 C          25.0316  -28.7065  -42.2684 C.2       4 UNK         0.4949 
     33 O          24.8583  -29.8158  -41.7568 O.2       4 UNK        -0.5039 
     34 N          25.6917  -27.6990  -41.6788 N.am      5 UNK        -0.4663 
     35 CA         26.4513  -27.7287  -40.4162 C.3       5 UNK         0.0242 
     36 CB         27.6639  -28.6753  -40.5513 C.3       5 UNK        -0.1982 
     37 C          25.6266  -28.0541  -39.1530 C.2       5 UNK         0.5017 
     38 O          26.2163  -28.2603  -38.0915 O.2       5 UNK        -0.5012 
     39 N          24.2932  -28.1171  -39.2914 N.am      6 UNK        -0.4439 
     40 CA         23.3167  -28.6121  -38.3133 C.3       6 UNK         0.0297 
     41 CB         23.2199  -27.6630  -37.1001 C.3       6 UNK        -0.2006 
     42 C          23.5697  -30.0826  -37.9105 C.2       6 UNK         0.4892 
     43 O          23.2739  -30.4601  -36.7749 O.2       6 UNK        -0.5089 
     44 N          24.1278  -30.8796  -38.8347 N.am      7 UNK        -0.4243 
     45 CA         24.5496  -32.2576  -38.5860 C.3       7 UNK         0.0196 
     46 CB         25.9868  -32.2823  -38.0334 C.3       7 UNK        -0.2007 
     47 C          24.4184  -33.1174  -39.8449 C.2       7 UNK         0.5020 
     48 O          23.7201  -34.1305  -39.8117 O.2       7 UNK        -0.5147 
     49 N          25.0664  -32.7017  -40.9433 N.am      8 UNK        -0.4734 
     50 CA         25.0540  -33.4184  -42.2270 C.3       8 UNK         0.0238 
     51 CB         26.1335  -32.8315  -43.1497 C.3       8 UNK        -0.1912 
     52 C          23.6758  -33.4106  -42.9124 C.2       8 UNK         0.5038 
     53 O          23.3649  -34.3303  -43.6697 O.2       8 UNK        -0.5046 
     54 N          22.8738  -32.3888  -42.5997 N.am      9 UNK        -0.4200 
     55 CA         21.4491  -32.2660  -42.9302 C.3       9 UNK         0.0839 
     56 C          20.5064  -33.2206  -42.1381 C.2       9 UNK         0.5513 
     57 N          20.9719  -33.9513  -41.1308 N.am      9 UNK        -0.7519 
     58 O          19.3226  -33.3061  -42.4533 O.2       9 UNK        -0.4960 
     59 C59        20.9865  -30.7878  -42.8391 C.3       10 UNK        -0.0876 
     60 S60        21.4819  -29.9696  -41.2803 S.3       10 UNK        -0.2414 
     61 C61        19.9232  -29.9577  -40.3474 C.3       10 UNK         0.0169 
     62 H62        13.6535  -23.2840  -47.4509 H         1 UNK         0.0903 
     63 H63        12.5976  -24.1131  -48.5964 H         1 UNK         0.0903 
     64 H64        12.0548  -23.8289  -46.9403 H         1 UNK         0.0903 
     65 H65        15.3195  -24.6288  -46.7201 H         1 UNK         0.3096 
     66 H66        15.1709  -27.4863  -46.9613 H         1 UNK         0.1121 
     67 H67        15.6407  -26.3264  -44.1614 H         1 UNK         0.0849 
     68 H68        14.0986  -26.9643  -44.6484 H         1 UNK         0.0849 
     69 H69        14.7608  -28.0266  -42.2748 H         1 UNK         0.0865 
     70 H70        15.2660  -29.6921  -42.2366 H         1 UNK         0.0865 
     71 H71        17.5087  -30.3168  -41.5765 H         1 UNK         0.1346 
     72 H72        20.2416  -27.2625  -40.3157 H         1 UNK         0.1412 
     73 H73        16.5492  -26.1776  -42.1879 H         1 UNK         0.1426 
     74 H74        19.6487  -24.9285  -40.5140 H         1 UNK         0.0716 
     75 H75        17.9889  -24.5116  -40.8612 H         1 UNK         0.0716 
     76 H76        21.4482  -25.3329  -42.1212 H         1 UNK         0.0695 
     77 H77        21.5612  -24.4746  -43.6315 H         1 UNK         0.0695 
     78 H78        20.5774  -27.3490  -43.2214 H         1 UNK         0.0983 
     79 H79        19.9196  -25.6419  -45.4217 H         1 UNK         0.3095 
     80 H80        19.4434  -26.4042  -47.5218 H         1 UNK         0.0454 
     81 H81        19.2512  -29.4385  -47.9191 H         1 UNK         0.0851 
     82 H82        20.6094  -28.4293  -48.3940 H         1 UNK         0.0851 
     83 H83        19.0463  -28.2063  -49.1625 H         1 UNK         0.0851 
     84 H84        17.2996  -28.3594  -46.9209 H         1 UNK         0.2976 
     85 H85        22.5353  -28.3244  -42.6717 H         1 UNK         0.3116 
     86 H86        25.0245  -27.5965  -44.0868 H         1 UNK         0.0646 
     87 H87        23.9901  -29.3130  -45.5597 H         1 UNK         0.0847 
     88 H88        25.4231  -29.9415  -44.7668 H         1 UNK         0.0847 
     89 H89        23.8278  -30.4151  -44.1993 H         1 UNK         0.0847 
     90 H90        25.7190  -26.8140  -42.1682 H         1 UNK         0.3040 
     91 H91        26.8346  -26.7180  -40.2660 H         1 UNK         0.1015 
     92 H92        27.3567  -29.7179  -40.6393 H         1 UNK         0.0786 
     93 H93        28.3193  -28.6038  -39.6823 H         1 UNK         0.0786 
     94 H94        28.2650  -28.4281  -41.4262 H         1 UNK         0.0786 
     95 H95        23.9330  -27.9397  -40.2176 H         1 UNK         0.3172 
     96 H96        22.3481  -28.5952  -38.8123 H         1 UNK         0.0595 
     97 H97        24.1295  -27.6786  -36.4990 H         1 UNK         0.0839 
     98 H98        22.3950  -27.9480  -36.4460 H         1 UNK         0.0839 
     99 H99        23.0417  -26.6345  -37.4134 H         1 UNK         0.0839 
    100 H100       24.3035  -30.5027  -39.7596 H         1 UNK         0.2998 
    101 H101       23.8906  -32.7035  -37.8373 H         1 UNK         0.0822 
    102 H102       26.3325  -33.3061  -37.8841 H         1 UNK         0.0787 
    103 H103       26.6899  -31.7916  -38.7076 H         1 UNK         0.0787 
    104 H104       26.0464  -31.7768  -37.0693 H         1 UNK         0.0787 
    105 H105       25.5719  -31.8255  -40.9237 H         1 UNK         0.3055 
    106 H106       25.3049  -34.4636  -42.0320 H         1 UNK         0.1106 
    107 H107       27.1286  -32.9556  -42.7225 H         1 UNK         0.0828 
    108 H108       26.1340  -33.3297  -44.1202 H         1 UNK         0.0828 
    109 H109       25.9777  -31.7683  -43.3274 H         1 UNK         0.0828 
    110 H110       23.2378  -31.6752  -41.9832 H         1 UNK         0.2931 
    111 H111       21.3436  -32.5643  -43.9749 H         1 UNK         0.0412 
    112 H112       21.9442  -33.9082  -40.8506 H         1 UNK         0.3472 
    113 H113       20.3402  -34.5639  -40.6402 H         1 UNK         0.3472 
    114 H114       21.4388  -30.2307  -43.6589 H         1 UNK         0.0970 
    115 H115       19.9105  -30.6927  -42.9973 H         1 UNK         0.0970 
    116 H116       19.4719  -30.9505  -40.3744 H         1 UNK         0.0612 
    117 H117       20.1404  -29.7473  -39.2995 H         1 UNK         0.0612 
@<TRIPOS>BOND
     1    1    2 1    
     2    1   62 1    
     3    1   63 1    
     4    1   64 1    
     5    2    3 2    
     6    2    4 am   BACKBONE|DICT|INTERRES
     7    4    5 1    
     8    4   65 1    
     9    5    6 1    
    10    5   25 1    
    11    5   66 1    
    12    6    7 1    
    13    6   67 1    
    14    6   68 1    
    15    7    8 1    
    16    8    9 1    
    17    8   69 1    
    18    8   70 1    
    19    9   10 ar   
    20    9   14 ar   
    21   10   11 ar   
    22   10   71 1    
    23   11   12 ar   
    24   11   61 1    
    25   12   13 ar   
    26   12   72 1    
    27   13   14 ar   
    28   13   15 1    
    29   14   73 1    
    30   15   16 1    
    31   15   74 1    
    32   15   75 1    
    33   16   17 1    
    34   17   18 1    
    35   17   76 1    
    36   17   77 1    
    37   18   19 1    
    38   18   27 1    
    39   18   78 1    
    40   19   20 am   BACKBONE|DICT|INTERRES
    41   19   79 1    
    42   20   21 2    
    43   20   22 1    
    44   22   23 1    
    45   22   24 1    
    46   22   80 1    
    47   23   81 1    
    48   23   82 1    
    49   23   83 1    
    50   24   25 am   BACKBONE|DICT|INTERRES
    51   24   84 1    
    52   25   26 2    
    53   27   28 2    
    54   27   29 am   BACKBONE|DICT|INTERRES
    55   29   30 1    
    56   29   85 1    
    57   30   31 1    
    58   30   32 1    
    59   30   86 1    
    60   31   87 1    
    61   31   88 1    
    62   31   89 1    
    63   32   33 2    
    64   32   34 am   BACKBONE|DICT|INTERRES
    65   34   35 1    
    66   34   90 1    
    67   35   36 1    
    68   35   37 1    
    69   35   91 1    
    70   36   92 1    
    71   36   93 1    
    72   36   94 1    
    73   37   38 2    
    74   37   39 am   BACKBONE|DICT|INTERRES
    75   39   40 1    
    76   39   95 1    
    77   40   41 1    
    78   40   42 1    
    79   40   96 1    
    80   41   97 1    
    81   41   98 1    
    82   41   99 1    
    83   42   43 2    
    84   42   44 am   BACKBONE|DICT|INTERRES
    85   44   45 1    
    86   44  100 1    
    87   45   46 1    
    88   45   47 1    
    89   45  101 1    
    90   46  102 1    
    91   46  103 1    
    92   46  104 1    
    93   47   48 2    
    94   47   49 am   BACKBONE|DICT|INTERRES
    95   49   50 1    
    96   49  105 1    
    97   50   51 1    
    98   50   52 1    
    99   50  106 1    
   100   51  107 1    
   101   51  108 1    
   102   51  109 1    
   103   52   53 2    
   104   52   54 am   BACKBONE|DICT|INTERRES
   105   54   55 1    
   106   54  110 1    
   107   55   56 1    
   108   55   59 1    
   109   55  111 1    
   110   56   57 am   BACKBONE|DICT|INTERRES
   111   56   58 2    
   112   57  112 1    
   113   57  113 1    
   114   59   60 1    
   115   59  114 1    
   116   59  115 1    
   117   60   61 1    
   118   61  116 1    
   119   61  117 1    
@<TRIPOS>SUBSTRUCTURE
     1 UNK         1 GROUP             0       ****    0 ROOT    
