@<TRIPOS>MOLECULE
3R8
117   119    1
SMALL
USER_CHARGES


@<TRIPOS>ATOM
      1 CA         14.8311  -21.6883  -43.3585 C.3       0 UNK        -0.2013 
      2 C          15.4528  -22.5035  -44.4825 C.2       0 UNK         0.4866 
      3 O          15.8169  -21.9436  -45.5172 O.2       0 UNK        -0.5176 
      4 N          15.5687  -23.8231  -44.2924 N.am      1 UNK        -0.4884 
      5 CA         16.2090  -24.7587  -45.2204 C.3       1 UNK         0.0853 
      6 C6         15.8250  -26.2348  -44.9294 C.3       10 UNK        -0.0849 
      7 S7         15.8341  -26.7000  -43.1588 S.3       10 UNK        -0.2776 
      8 C8         15.3869  -28.4645  -43.2266 C.3       10 UNK         0.0316 
      9 C9         16.5964  -29.3523  -43.4873 C.ar      10 UNK        -0.0863 
     10 C10        17.2599  -29.9797  -42.4280 C.ar      10 UNK        -0.1009 
     11 C11        18.3440  -30.8314  -42.6701 C.ar      10 UNK        -0.0712 
     12 C12        18.7923  -31.0162  -43.9834 C.ar      10 UNK        -0.0894 
     13 C13        18.1432  -30.3854  -45.0504 C.ar      10 UNK        -0.0745 
     14 C14        17.0306  -29.5795  -44.7940 C.ar      10 UNK        -0.0972 
     15 C15        18.5955  -30.6171  -46.4865 C.3       10 UNK         0.0209 
     16 S16        18.8210  -29.0571  -47.4092 S.3       10 UNK        -0.2568 
     17 C17        20.6156  -28.7516  -47.2680 C.3       10 UNK        -0.0983 
     18 CA         21.0218  -27.5923  -46.3188 C.3       3 UNK         0.0876 
     19 N          20.2276  -26.3798  -46.5412 N.am      3 UNK        -0.4424 
     20 C          20.6816  -25.1292  -46.3920 C.2       2 UNK         0.4918 
     21 O          21.8308  -24.8544  -46.0473 O.2       2 UNK        -0.4875 
     22 CA         19.6947  -23.9859  -46.6851 C.3       2 UNK         0.0481 
     23 CB         19.8698  -23.4902  -48.1295 C.3       2 UNK        -0.1831 
     24 N          18.2865  -24.3310  -46.4603 N.am      2 UNK        -0.4498 
     25 C          17.7372  -24.5399  -45.2549 C.2       1 UNK         0.5027 
     26 O          18.3843  -24.5565  -44.2060 O.2       1 UNK        -0.4969 
     27 C          21.0983  -28.0229  -44.8376 C.2       3 UNK         0.5005 
     28 O          21.8265  -28.9722  -44.5414 O.2       3 UNK        -0.5279 
     29 N          20.3967  -27.3255  -43.9294 N.am      4 UNK        -0.4463 
     30 CA         20.5116  -27.5326  -42.4849 C.3       4 UNK         0.0283 
     31 CB         19.3627  -26.8228  -41.7568 C.3       4 UNK        -0.1875 
     32 C          21.8696  -27.0406  -41.9605 C.2       4 UNK         0.4949 
     33 O          22.2943  -25.9366  -42.3089 O.2       4 UNK        -0.5039 
     34 N          22.5117  -27.8542  -41.1194 N.am      5 UNK        -0.4663 
     35 CA         23.8151  -27.5997  -40.5103 C.3       5 UNK         0.0242 
     36 CB         24.9317  -27.8236  -41.5527 C.3       5 UNK        -0.1982 
     37 C          23.9861  -28.5310  -39.3023 C.2       5 UNK         0.5017 
     38 O          23.1213  -29.3731  -39.0500 O.2       5 UNK        -0.5012 
     39 N          25.1065  -28.3789  -38.5827 N.am      6 UNK        -0.4439 
     40 CA         25.5239  -29.2986  -37.5175 C.3       6 UNK         0.0297 
     41 CB         26.6323  -28.6440  -36.6771 C.3       6 UNK        -0.2006 
     42 C          25.9930  -30.6601  -38.0671 C.2       6 UNK         0.4892 
     43 O          25.8056  -31.6799  -37.4025 O.2       6 UNK        -0.5089 
     44 N          26.5828  -30.6475  -39.2699 N.am      7 UNK        -0.4243 
     45 CA         26.9443  -31.8347  -40.0422 C.3       7 UNK         0.0196 
     46 CB         28.1207  -31.4819  -40.9678 C.3       7 UNK        -0.2007 
     47 C          25.7431  -32.3215  -40.8676 C.2       7 UNK         0.5020 
     48 O          24.8397  -31.5357  -41.1591 O.2       7 UNK        -0.5147 
     49 N          25.7673  -33.6062  -41.2472 N.am      8 UNK        -0.4734 
     50 CA         24.7900  -34.3422  -42.0701 C.3       8 UNK         0.0238 
     51 CB         24.6360  -33.7141  -43.4701 C.3       8 UNK        -0.1912 
     52 C          23.4151  -34.5624  -41.4107 C.2       8 UNK         0.5038 
     53 O          22.8839  -35.6700  -41.5009 O.2       8 UNK        -0.5046 
     54 N          22.8726  -33.5315  -40.7543 N.am      9 UNK        -0.4200 
     55 CA         21.6103  -33.5714  -39.9998 C.3       9 UNK         0.0839 
     56 C          21.6725  -34.3892  -38.6763 C.2       9 UNK         0.5513 
     57 N          22.8443  -34.7462  -38.1638 N.am      9 UNK        -0.7519 
     58 O          20.6326  -34.7102  -38.1069 O.2       9 UNK        -0.4960 
     59 C59        21.0555  -32.1490  -39.7326 C.3       10 UNK        -0.0876 
     60 S60        20.7295  -31.2021  -41.2587 S.3       10 UNK        -0.2414 
     61 C61        18.9749  -31.6057  -41.5187 C.3       10 UNK         0.0169 
     62 H62        13.9389  -21.1751  -43.7160 H         1 UNK         0.0903 
     63 H63        14.5467  -22.3125  -42.5114 H         1 UNK         0.0903 
     64 H64        15.5376  -20.9380  -43.0045 H         1 UNK         0.0903 
     65 H65        15.2872  -24.2332  -43.4121 H         1 UNK         0.3096 
     66 H66        15.8254  -24.5253  -46.2166 H         1 UNK         0.1121 
     67 H67        16.4748  -26.9079  -45.4884 H         1 UNK         0.0849 
     68 H68        14.8177  -26.4183  -45.3066 H         1 UNK         0.0849 
     69 H69        14.9231  -28.7409  -42.2784 H         1 UNK         0.0865 
     70 H70        14.6246  -28.6272  -43.9901 H         1 UNK         0.0865 
     71 H71        16.9110  -29.8276  -41.4157 H         1 UNK         0.1346 
     72 H72        19.6340  -31.6688  -44.1716 H         1 UNK         0.1412 
     73 H73        16.5014  -29.1293  -45.6215 H         1 UNK         0.1426 
     74 H74        17.8298  -31.2064  -46.9926 H         1 UNK         0.0716 
     75 H75        19.5082  -31.2133  -46.5223 H         1 UNK         0.0716 
     76 H76        20.9611  -28.5070  -48.2736 H         1 UNK         0.0695 
     77 H77        21.1387  -29.6748  -47.0133 H         1 UNK         0.0695 
     78 H78        22.0563  -27.3524  -46.5759 H         1 UNK         0.0983 
     79 H79        19.2737  -26.5266  -46.8380 H         1 UNK         0.3095 
     80 H80        19.9454  -23.1608  -46.0147 H         1 UNK         0.0454 
     81 H81        19.6127  -24.2614  -48.8568 H         1 UNK         0.0851 
     82 H82        20.9033  -23.1967  -48.3190 H         1 UNK         0.0851 
     83 H83        19.2475  -22.6177  -48.3290 H         1 UNK         0.0851 
     84 H84        17.6891  -24.3258  -47.2751 H         1 UNK         0.2976 
     85 H85        19.8558  -26.5270  -44.2323 H         1 UNK         0.3116 
     86 H86        20.4189  -28.6011  -42.2941 H         1 UNK         0.0646 
     87 H87        18.4013  -27.2299  -42.0617 H         1 UNK         0.0847 
     88 H88        19.3566  -25.7503  -41.9535 H         1 UNK         0.0847 
     89 H89        19.4406  -26.9586  -40.6775 H         1 UNK         0.0847 
     90 H90        22.0905  -28.7329  -40.8359 H         1 UNK         0.3040 
     91 H91        23.8440  -26.5689  -40.1504 H         1 UNK         0.1015 
     92 H92        25.9179  -27.6132  -41.1385 H         1 UNK         0.0786 
     93 H93        24.8084  -27.1718  -42.4177 H         1 UNK         0.0786 
     94 H94        24.9389  -28.8532  -41.9136 H         1 UNK         0.0786 
     95 H95        25.7503  -27.6398  -38.8276 H         1 UNK         0.3172 
     96 H96        24.6671  -29.4812  -36.8650 H         1 UNK         0.0595 
     97 H97        27.5195  -28.4255  -37.2728 H         1 UNK         0.0839 
     98 H98        26.9417  -29.3012  -35.8630 H         1 UNK         0.0839 
     99 H99        26.2913  -27.7120  -36.2259 H         1 UNK         0.0839 
    100 H100       26.6389  -29.7671  -39.7582 H         1 UNK         0.2998 
    101 H101       27.2545  -32.6306  -39.3613 H         1 UNK         0.0822 
    102 H102       28.9822  -31.1328  -40.3981 H         1 UNK         0.0787 
    103 H103       28.4445  -32.3515  -41.5412 H         1 UNK         0.0787 
    104 H104       27.8528  -30.7024  -41.6826 H         1 UNK         0.0787 
    105 H105       26.5515  -34.1634  -40.9345 H         1 UNK         0.3055 
    106 H106       25.2196  -35.3359  -42.2109 H         1 UNK         0.1106 
    107 H107       24.1788  -32.7249  -43.4287 H         1 UNK         0.0828 
    108 H108       24.0018  -34.3339  -44.1053 H         1 UNK         0.0828 
    109 H109       25.5995  -33.6178  -43.9704 H         1 UNK         0.0828 
    110 H110       23.3757  -32.6480  -40.7648 H         1 UNK         0.2931 
    111 H111       20.8828  -34.0872  -40.6298 H         1 UNK         0.0412 
    112 H112       23.7030  -34.4786  -38.6171 H         1 UNK         0.3472 
    113 H113       22.8684  -35.2780  -37.3077 H         1 UNK         0.3472 
    114 H114       20.1371  -32.1938  -39.1441 H         1 UNK         0.0970 
    115 H115       21.7641  -31.5840  -39.1258 H         1 UNK         0.0970 
    116 H116       18.8831  -32.6743  -41.7175 H         1 UNK         0.0612 
    117 H117       18.4282  -31.4159  -40.5938 H         1 UNK         0.0612 
@<TRIPOS>BOND
     1    1    2 1    
     2    1   62 1    
     3    1   63 1    
     4    1   64 1    
     5    2    3 2    
     6    2    4 am   BACKBONE|DICT|INTERRES
     7    4    5 1    
     8    4   65 1    
     9    5    6 1    
    10    5   25 1    
    11    5   66 1    
    12    6    7 1    
    13    6   67 1    
    14    6   68 1    
    15    7    8 1    
    16    8    9 1    
    17    8   69 1    
    18    8   70 1    
    19    9   10 ar   
    20    9   14 ar   
    21   10   11 ar   
    22   10   71 1    
    23   11   12 ar   
    24   11   61 1    
    25   12   13 ar   
    26   12   72 1    
    27   13   14 ar   
    28   13   15 1    
    29   14   73 1    
    30   15   16 1    
    31   15   74 1    
    32   15   75 1    
    33   16   17 1    
    34   17   18 1    
    35   17   76 1    
    36   17   77 1    
    37   18   19 1    
    38   18   27 1    
    39   18   78 1    
    40   19   20 am   BACKBONE|DICT|INTERRES
    41   19   79 1    
    42   20   21 2    
    43   20   22 1    
    44   22   23 1    
    45   22   24 1    
    46   22   80 1    
    47   23   81 1    
    48   23   82 1    
    49   23   83 1    
    50   24   25 am   BACKBONE|DICT|INTERRES
    51   24   84 1    
    52   25   26 2    
    53   27   28 2    
    54   27   29 am   BACKBONE|DICT|INTERRES
    55   29   30 1    
    56   29   85 1    
    57   30   31 1    
    58   30   32 1    
    59   30   86 1    
    60   31   87 1    
    61   31   88 1    
    62   31   89 1    
    63   32   33 2    
    64   32   34 am   BACKBONE|DICT|INTERRES
    65   34   35 1    
    66   34   90 1    
    67   35   36 1    
    68   35   37 1    
    69   35   91 1    
    70   36   92 1    
    71   36   93 1    
    72   36   94 1    
    73   37   38 2    
    74   37   39 am   BACKBONE|DICT|INTERRES
    75   39   40 1    
    76   39   95 1    
    77   40   41 1    
    78   40   42 1    
    79   40   96 1    
    80   41   97 1    
    81   41   98 1    
    82   41   99 1    
    83   42   43 2    
    84   42   44 am   BACKBONE|DICT|INTERRES
    85   44   45 1    
    86   44  100 1    
    87   45   46 1    
    88   45   47 1    
    89   45  101 1    
    90   46  102 1    
    91   46  103 1    
    92   46  104 1    
    93   47   48 2    
    94   47   49 am   BACKBONE|DICT|INTERRES
    95   49   50 1    
    96   49  105 1    
    97   50   51 1    
    98   50   52 1    
    99   50  106 1    
   100   51  107 1    
   101   51  108 1    
   102   51  109 1    
   103   52   53 2    
   104   52   54 am   BACKBONE|DICT|INTERRES
   105   54   55 1    
   106   54  110 1    
   107   55   56 1    
   108   55   59 1    
   109   55  111 1    
   110   56   57 am   BACKBONE|DICT|INTERRES
   111   56   58 2    
   112   57  112 1    
   113   57  113 1    
   114   59   60 1    
   115   59  114 1    
   116   59  115 1    
   117   60   61 1    
   118   61  116 1    
   119   61  117 1    
@<TRIPOS>SUBSTRUCTURE
     1 UNK         1 GROUP             0       ****    0 ROOT    
