@<TRIPOS>MOLECULE
3R8
117   119    1
SMALL
USER_CHARGES


@<TRIPOS>ATOM
      1 CA         11.6954  -25.9542  -44.5575 C.3       0 UNK        -0.2013 
      2 C          13.1888  -25.6701  -44.6201 C.2       0 UNK         0.4866 
      3 O          13.6667  -24.7520  -43.9527 O.2       0 UNK        -0.5176 
      4 N          13.9279  -26.4438  -45.4237 N.am      1 UNK        -0.4884 
      5 CA         15.3870  -26.3739  -45.5468 C.3       1 UNK         0.0853 
      6 C6         15.8821  -27.0518  -46.8518 C.3       10 UNK        -0.0849 
      7 S7         15.3543  -28.7955  -47.0294 S.3       10 UNK        -0.2776 
      8 C8         16.8609  -29.6008  -47.6635 C.3       10 UNK         0.0316 
      9 C9         18.0477  -29.5325  -46.7071 C.ar      10 UNK        -0.0863 
     10 C10        17.9592  -30.0535  -45.4110 C.ar      10 UNK        -0.1009 
     11 C11        19.0687  -30.0490  -44.5574 C.ar      10 UNK        -0.0712 
     12 C12        20.2835  -29.5403  -45.0330 C.ar      10 UNK        -0.0894 
     13 C13        20.3804  -28.9907  -46.3126 C.ar      10 UNK        -0.0745 
     14 C14        19.2582  -28.9869  -47.1439 C.ar      10 UNK        -0.0972 
     15 C15        21.7016  -28.4226  -46.8091 C.3       10 UNK         0.0209 
     16 S16        21.9223  -26.6854  -46.3084 S.3       10 UNK        -0.2568 
     17 C17        22.5945  -26.8521  -44.6198 C.3       10 UNK        -0.0983 
     18 CA         21.7326  -26.1366  -43.5509 C.3       3 UNK         0.0876 
     19 N          20.3502  -26.6346  -43.4987 N.am      3 UNK        -0.4424 
     20 C          19.3602  -26.0192  -42.8398 C.2       2 UNK         0.4918 
     21 O          19.4699  -24.9084  -42.3187 O.2       2 UNK        -0.4875 
     22 CA         18.0220  -26.7581  -42.7648 C.3       2 UNK         0.0481 
     23 CB         17.3077  -26.5066  -41.4195 C.3       2 UNK        -0.1831 
     24 N          17.1983  -26.3397  -43.8937 N.am      2 UNK        -0.4498 
     25 C          16.0764  -26.9509  -44.2911 C.2       1 UNK         0.5027 
     26 O          15.5910  -27.9325  -43.7208 O.2       1 UNK        -0.4969 
     27 C          22.4247  -26.2214  -42.1725 C.2       3 UNK         0.5005 
     28 O          23.2496  -25.3620  -41.8564 O.2       3 UNK        -0.5279 
     29 N          22.0636  -27.2478  -41.3837 N.am      4 UNK        -0.4463 
     30 CA         22.5331  -27.5940  -40.0371 C.3       4 UNK         0.0283 
     31 CB         22.2069  -26.4877  -39.0148 C.3       4 UNK        -0.1875 
     32 C          24.0133  -28.0034  -39.9899 C.2       4 UNK         0.4949 
     33 O          24.3089  -29.1522  -39.6595 O.2       4 UNK        -0.5039 
     34 N          24.9094  -27.0712  -40.3339 N.am      5 UNK        -0.4663 
     35 CA         26.3562  -27.2737  -40.4124 C.3       5 UNK         0.0242 
     36 CB         27.0428  -25.9252  -40.6799 C.3       5 UNK        -0.1982 
     37 C          26.7097  -28.2902  -41.5078 C.2       5 UNK         0.5017 
     38 O          26.1811  -28.1886  -42.6176 O.2       5 UNK        -0.5012 
     39 N          27.5621  -29.2658  -41.1633 N.am      6 UNK        -0.4439 
     40 CA         28.0106  -30.4219  -41.9581 C.3       6 UNK         0.0297 
     41 CB         28.7546  -29.9798  -43.2336 C.3       6 UNK        -0.2006 
     42 C          26.9071  -31.4479  -42.2891 C.2       6 UNK         0.4892 
     43 O          27.1755  -32.6486  -42.2420 O.2       6 UNK        -0.5089 
     44 N          25.6983  -30.9699  -42.6081 N.am      7 UNK        -0.4243 
     45 CA         24.5122  -31.7688  -42.9143 C.3       7 UNK         0.0196 
     46 CB         23.4268  -30.8500  -43.4942 C.3       7 UNK        -0.2007 
     47 C          23.9644  -32.5438  -41.7046 C.2       7 UNK         0.5020 
     48 O          23.4626  -33.6526  -41.8900 O.2       7 UNK        -0.5147 
     49 N          24.0682  -31.9510  -40.5034 N.am      8 UNK        -0.4734 
     50 CA         23.5974  -32.4745  -39.2137 C.3       8 UNK         0.0238 
     51 CB         24.4240  -33.7075  -38.7890 C.3       8 UNK        -0.1912 
     52 C          22.0767  -32.7276  -39.2032 C.2       8 UNK         0.5038 
     53 O          21.6321  -33.8148  -38.8280 O.2       8 UNK        -0.5046 
     54 N          21.3193  -31.7163  -39.6504 N.am      9 UNK        -0.4200 
     55 CA         19.8518  -31.7142  -39.7621 C.3       9 UNK         0.0839 
     56 C          19.1295  -32.0251  -38.4217 C.2       9 UNK         0.5513 
     57 N          18.0474  -32.7901  -38.4618 N.am      9 UNK        -0.7519 
     58 O          19.5129  -31.5367  -37.3606 O.2       9 UNK        -0.4960 
     59 C59        19.3227  -30.3763  -40.3427 C.3       10 UNK        -0.0876 
     60 S60        20.0931  -29.9075  -41.9277 S.3       10 UNK        -0.2414 
     61 C61        18.9236  -30.6141  -43.1425 C.3       10 UNK         0.0169 
     62 H62        11.1323  -25.0733  -44.8645 H         1 UNK         0.0903 
     63 H63        11.4103  -26.7821  -45.2065 H         1 UNK         0.0903 
     64 H64        11.4045  -26.2070  -43.5382 H         1 UNK         0.0903 
     65 H65        13.4972  -27.2124  -45.9189 H         1 UNK         0.3096 
     66 H66        15.6537  -25.3161  -45.6093 H         1 UNK         0.1121 
     67 H67        15.4985  -26.5020  -47.7126 H         1 UNK         0.0849 
     68 H68        16.9685  -26.9788  -46.9246 H         1 UNK         0.0849 
     69 H69        16.6368  -30.6495  -47.8629 H         1 UNK         0.0865 
     70 H70        17.1113  -29.1572  -48.6286 H         1 UNK         0.0865 
     71 H71        17.0192  -30.4645  -45.0677 H         1 UNK         0.1346 
     72 H72        21.1612  -29.5633  -44.4078 H         1 UNK         0.1412 
     73 H73        19.3366  -28.5775  -48.1421 H         1 UNK         0.1426 
     74 H74        21.7395  -28.4744  -47.8983 H         1 UNK         0.0716 
     75 H75        22.5374  -29.0274  -46.4538 H         1 UNK         0.0716 
     76 H76        23.5999  -26.4260  -44.6350 H         1 UNK         0.0695 
     77 H77        22.7284  -27.9044  -44.3689 H         1 UNK         0.0695 
     78 H78        21.6891  -25.0774  -43.8152 H         1 UNK         0.0983 
     79 H79        20.1616  -27.5070  -43.9730 H         1 UNK         0.3095 
     80 H80        18.2140  -27.8271  -42.8546 H         1 UNK         0.0454 
     81 H81        16.9935  -25.4674  -41.3168 H         1 UNK         0.0851 
     82 H82        17.9672  -26.7342  -40.5810 H         1 UNK         0.0851 
     83 H83        16.4242  -27.1346  -41.3079 H         1 UNK         0.0851 
     84 H84        17.5434  -25.5408  -44.4094 H         1 UNK         0.2976 
     85 H85        21.3868  -27.8955  -41.7658 H         1 UNK         0.3116 
     86 H86        21.9595  -28.4743  -39.7439 H         1 UNK         0.0646 
     87 H87        22.4972  -26.7916  -38.0083 H         1 UNK         0.0847 
     88 H88        21.1381  -26.2748  -38.9929 H         1 UNK         0.0847 
     89 H89        22.7268  -25.5546  -39.2326 H         1 UNK         0.0847 
     90 H90        24.5415  -26.2015  -40.7104 H         1 UNK         0.3040 
     91 H91        26.6934  -27.6526  -39.4452 H         1 UNK         0.1015 
     92 H92        26.8290  -25.2070  -39.8881 H         1 UNK         0.0786 
     93 H93        26.7169  -25.4888  -41.6254 H         1 UNK         0.0786 
     94 H94        28.1264  -26.0407  -40.7292 H         1 UNK         0.0786 
     95 H95        27.9071  -29.2591  -40.2127 H         1 UNK         0.3172 
     96 H96        28.7334  -30.9419  -41.3271 H         1 UNK         0.0595 
     97 H97        28.0962  -29.4705  -43.9378 H         1 UNK         0.0839 
     98 H98        29.1767  -30.8408  -43.7538 H         1 UNK         0.0839 
     99 H99        29.5796  -29.3073  -42.9992 H         1 UNK         0.0839 
    100 H100       25.6049  -29.9585  -42.6554 H         1 UNK         0.2998 
    101 H101       24.7885  -32.4998  -43.6772 H         1 UNK         0.0822 
    102 H102       23.1463  -30.0654  -42.7902 H         1 UNK         0.0787 
    103 H103       23.7619  -30.3725  -44.4151 H         1 UNK         0.0787 
    104 H104       22.5257  -31.4180  -43.7307 H         1 UNK         0.0787 
    105 H105       24.4519  -31.0112  -40.4639 H         1 UNK         0.3055 
    106 H106       23.7786  -31.6901  -38.4765 H         1 UNK         0.1106 
    107 H107       24.2647  -34.5544  -39.4571 H         1 UNK         0.0828 
    108 H108       25.4909  -33.4847  -38.7795 H         1 UNK         0.0828 
    109 H109       24.1518  -34.0319  -37.7839 H         1 UNK         0.0828 
    110 H110       21.7829  -30.8756  -39.9574 H         1 UNK         0.2931 
    111 H111       19.6014  -32.5067  -40.4703 H         1 UNK         0.0412 
    112 H112       17.7203  -33.1870  -39.3293 H         1 UNK         0.3472 
    113 H113       17.5549  -32.9882  -37.6045 H         1 UNK         0.3472 
    114 H114       18.2394  -30.4159  -40.4711 H         1 UNK         0.0970 
    115 H115       19.5044  -29.5629  -39.6373 H         1 UNK         0.0970 
    116 H116       17.9062  -30.4318  -42.7924 H         1 UNK         0.0612 
    117 H117       19.0579  -31.6959  -43.1746 H         1 UNK         0.0612 
@<TRIPOS>BOND
     1    1    2 1    
     2    1   62 1    
     3    1   63 1    
     4    1   64 1    
     5    2    3 2    
     6    2    4 am   BACKBONE|DICT|INTERRES
     7    4    5 1    
     8    4   65 1    
     9    5    6 1    
    10    5   25 1    
    11    5   66 1    
    12    6    7 1    
    13    6   67 1    
    14    6   68 1    
    15    7    8 1    
    16    8    9 1    
    17    8   69 1    
    18    8   70 1    
    19    9   10 ar   
    20    9   14 ar   
    21   10   11 ar   
    22   10   71 1    
    23   11   12 ar   
    24   11   61 1    
    25   12   13 ar   
    26   12   72 1    
    27   13   14 ar   
    28   13   15 1    
    29   14   73 1    
    30   15   16 1    
    31   15   74 1    
    32   15   75 1    
    33   16   17 1    
    34   17   18 1    
    35   17   76 1    
    36   17   77 1    
    37   18   19 1    
    38   18   27 1    
    39   18   78 1    
    40   19   20 am   BACKBONE|DICT|INTERRES
    41   19   79 1    
    42   20   21 2    
    43   20   22 1    
    44   22   23 1    
    45   22   24 1    
    46   22   80 1    
    47   23   81 1    
    48   23   82 1    
    49   23   83 1    
    50   24   25 am   BACKBONE|DICT|INTERRES
    51   24   84 1    
    52   25   26 2    
    53   27   28 2    
    54   27   29 am   BACKBONE|DICT|INTERRES
    55   29   30 1    
    56   29   85 1    
    57   30   31 1    
    58   30   32 1    
    59   30   86 1    
    60   31   87 1    
    61   31   88 1    
    62   31   89 1    
    63   32   33 2    
    64   32   34 am   BACKBONE|DICT|INTERRES
    65   34   35 1    
    66   34   90 1    
    67   35   36 1    
    68   35   37 1    
    69   35   91 1    
    70   36   92 1    
    71   36   93 1    
    72   36   94 1    
    73   37   38 2    
    74   37   39 am   BACKBONE|DICT|INTERRES
    75   39   40 1    
    76   39   95 1    
    77   40   41 1    
    78   40   42 1    
    79   40   96 1    
    80   41   97 1    
    81   41   98 1    
    82   41   99 1    
    83   42   43 2    
    84   42   44 am   BACKBONE|DICT|INTERRES
    85   44   45 1    
    86   44  100 1    
    87   45   46 1    
    88   45   47 1    
    89   45  101 1    
    90   46  102 1    
    91   46  103 1    
    92   46  104 1    
    93   47   48 2    
    94   47   49 am   BACKBONE|DICT|INTERRES
    95   49   50 1    
    96   49  105 1    
    97   50   51 1    
    98   50   52 1    
    99   50  106 1    
   100   51  107 1    
   101   51  108 1    
   102   51  109 1    
   103   52   53 2    
   104   52   54 am   BACKBONE|DICT|INTERRES
   105   54   55 1    
   106   54  110 1    
   107   55   56 1    
   108   55   59 1    
   109   55  111 1    
   110   56   57 am   BACKBONE|DICT|INTERRES
   111   56   58 2    
   112   57  112 1    
   113   57  113 1    
   114   59   60 1    
   115   59  114 1    
   116   59  115 1    
   117   60   61 1    
   118   61  116 1    
   119   61  117 1    
@<TRIPOS>SUBSTRUCTURE
     1 UNK         1 GROUP             0       ****    0 ROOT    
