@<TRIPOS>MOLECULE
3R8
117   119    1
SMALL
USER_CHARGES


@<TRIPOS>ATOM
      1 CA         14.4789  -24.8263  -46.2422 C.3       0 UNK        -0.2013 
      2 C          15.7178  -25.6619  -45.9581 C.2       0 UNK         0.4866 
      3 O          16.1823  -26.3917  -46.8356 O.2       0 UNK        -0.5176 
      4 N          16.2651  -25.5623  -44.7399 N.am      1 UNK        -0.4884 
      5 CA         17.4549  -26.2902  -44.2834 C.3       1 UNK         0.0853 
      6 C6         17.4734  -26.4600  -42.7421 C.3       10 UNK        -0.0849 
      7 S7         16.0215  -27.3643  -42.0905 S.3       10 UNK        -0.2776 
      8 C8         16.2684  -29.0684  -42.7025 C.3       10 UNK         0.0316 
      9 C9         17.6301  -29.6258  -42.3164 C.ar      10 UNK        -0.0863 
     10 C10        17.8626  -30.0841  -41.0162 C.ar      10 UNK        -0.1009 
     11 C11        19.1317  -30.5317  -40.6368 C.ar      10 UNK        -0.0712 
     12 C12        20.1697  -30.5137  -41.5747 C.ar      10 UNK        -0.0894 
     13 C13        19.9460  -30.0679  -42.8807 C.ar      10 UNK        -0.0745 
     14 C14        18.6692  -29.6441  -43.2509 C.ar      10 UNK        -0.0972 
     15 C15        21.0995  -29.9698  -43.8661 C.3       10 UNK         0.0209 
     16 S16        22.2173  -28.6508  -43.3210 S.3       10 UNK        -0.2568 
     17 C17        23.1455  -28.1675  -44.8151 C.3       10 UNK        -0.0983 
     18 CA         23.0117  -26.6591  -45.1699 C.3       3 UNK         0.0876 
     19 N          21.7030  -26.3624  -45.7639 N.am      3 UNK        -0.4424 
     20 C          21.4343  -25.2800  -46.5068 C.2       2 UNK         0.4918 
     21 O          22.2878  -24.4574  -46.8397 O.2       2 UNK        -0.4875 
     22 CA         19.9738  -25.0495  -46.9417 C.3       2 UNK         0.0481 
     23 CB         19.7932  -25.4423  -48.4168 C.3       2 UNK        -0.1831 
     24 N          18.9395  -25.7212  -46.1436 N.am      2 UNK        -0.4498 
     25 C          18.7393  -25.6217  -44.8216 C.2       1 UNK         0.5027 
     26 O          19.5007  -25.0256  -44.0572 O.2       1 UNK        -0.4969 
     27 C          23.3566  -25.7412  -43.9658 C.2       3 UNK         0.5005 
     28 O          24.4981  -25.7741  -43.5058 O.2       3 UNK        -0.5279 
     29 N          22.3665  -24.9923  -43.4463 N.am      4 UNK        -0.4463 
     30 CA         22.3954  -24.1978  -42.2103 C.3       4 UNK         0.0283 
     31 CB         23.4728  -23.0928  -42.2603 C.3       4 UNK        -0.1875 
     32 C          22.4800  -25.0802  -40.9480 C.2       4 UNK         0.4949 
     33 O          23.1315  -24.7040  -39.9731 O.2       4 UNK        -0.5039 
     34 N          21.8102  -26.2423  -41.0023 N.am      5 UNK        -0.4663 
     35 CA         21.7149  -27.2875  -39.9720 C.3       5 UNK         0.0242 
     36 CB         20.9588  -26.7686  -38.7311 C.3       5 UNK        -0.1982 
     37 C          23.0610  -27.9532  -39.6128 C.2       5 UNK         0.5017 
     38 O          23.1857  -28.5319  -38.5316 O.2       5 UNK        -0.5012 
     39 N          24.0421  -27.8898  -40.5232 N.am      6 UNK        -0.4439 
     40 CA         25.3941  -28.4352  -40.3769 C.3       6 UNK         0.0297 
     41 CB         26.3365  -27.6625  -41.3182 C.3       6 UNK        -0.2006 
     42 C          25.4496  -29.9613  -40.6041 C.2       6 UNK         0.4892 
     43 O          26.2148  -30.4268  -41.4516 O.2       6 UNK        -0.5089 
     44 N          24.6470  -30.7032  -39.8264 N.am      7 UNK        -0.4243 
     45 CA         24.4613  -32.1613  -39.8455 C.3       7 UNK         0.0196 
     46 CB         25.7745  -32.8832  -39.4669 C.3       7 UNK        -0.2007 
     47 C          23.8505  -32.6830  -41.1643 C.2       7 UNK         0.5020 
     48 O          23.3832  -31.8940  -41.9852 O.2       7 UNK        -0.5147 
     49 N          23.8207  -34.0169  -41.3193 N.am      8 UNK        -0.4734 
     50 CA         23.2240  -34.7633  -42.4419 C.3       8 UNK         0.0238 
     51 CB         24.0118  -34.5142  -43.7467 C.3       8 UNK        -0.1912 
     52 C          21.7084  -34.5101  -42.5979 C.2       8 UNK         0.5038 
     53 O          21.2052  -34.4225  -43.7198 O.2       8 UNK        -0.5046 
     54 N          21.0240  -34.3758  -41.4556 N.am      9 UNK        -0.4200 
     55 CA         19.5984  -34.0473  -41.3324 C.3       9 UNK         0.0839 
     56 C          18.6646  -35.1396  -41.9181 C.2       9 UNK         0.5513 
     57 N          17.5332  -34.7467  -42.4867 N.am      9 UNK        -0.7519 
     58 O          18.9327  -36.3355  -41.8183 O.2       9 UNK        -0.4960 
     59 C59        19.2166  -33.7309  -39.8604 C.3       10 UNK        -0.0876 
     60 S60        20.3345  -32.5219  -39.0643 S.3       10 UNK        -0.2414 
     61 C61        19.3828  -30.9733  -39.1987 C.3       10 UNK         0.0169 
     62 H62        13.6516  -25.4717  -46.5383 H         1 UNK         0.0903 
     63 H63        14.1654  -24.2516  -45.3703 H         1 UNK         0.0903 
     64 H64        14.6758  -24.1289  -47.0565 H         1 UNK         0.0903 
     65 H65        15.8500  -24.9416  -44.0590 H         1 UNK         0.3096 
     66 H66        17.4266  -27.2890  -44.7208 H         1 UNK         0.1121 
     67 H67        18.3815  -26.9691  -42.4144 H         1 UNK         0.0849 
     68 H68        17.4984  -25.4825  -42.2566 H         1 UNK         0.0849 
     69 H69        16.1328  -29.0904  -43.7847 H         1 UNK         0.0865 
     70 H70        15.4849  -29.7067  -42.2914 H         1 UNK         0.0865 
     71 H71        17.0592  -30.0619  -40.2923 H         1 UNK         0.1346 
     72 H72        21.1628  -30.8252  -41.2834 H         1 UNK         0.1412 
     73 H73        18.4970  -29.2918  -44.2575 H         1 UNK         0.1426 
     74 H74        20.7361  -29.7591  -44.8727 H         1 UNK         0.0716 
     75 H75        21.6388  -30.9172  -43.9108 H         1 UNK         0.0716 
     76 H76        22.8409  -28.7867  -45.6601 H         1 UNK         0.0695 
     77 H77        24.1947  -28.4107  -44.6375 H         1 UNK         0.0695 
     78 H78        23.7652  -26.4453  -45.9314 H         1 UNK         0.0983 
     79 H79        20.9507  -26.9938  -45.5343 H         1 UNK         0.3095 
     80 H80        19.7874  -23.9773  -46.8544 H         1 UNK         0.0454 
     81 H81        20.5184  -24.9312  -49.0519 H         1 UNK         0.0851 
     82 H82        18.8019  -25.1731  -48.7819 H         1 UNK         0.0851 
     83 H83        19.9269  -26.5144  -48.5671 H         1 UNK         0.0851 
     84 H84        18.2055  -26.1843  -46.6708 H         1 UNK         0.2976 
     85 H85        21.4511  -25.0476  -43.8854 H         1 UNK         0.3116 
     86 H86        21.4260  -23.6995  -42.1590 H         1 UNK         0.0646 
     87 H87        24.4818  -23.5031  -42.2125 H         1 UNK         0.0847 
     88 H88        23.3928  -22.5001  -43.1714 H         1 UNK         0.0847 
     89 H89        23.3653  -22.4082  -41.4183 H         1 UNK         0.0847 
     90 H90        21.3368  -26.4560  -41.8697 H         1 UNK         0.3040 
     91 H91        21.1072  -28.0806  -40.4092 H         1 UNK         0.1015 
     92 H92        20.7539  -27.5782  -38.0294 H         1 UNK         0.0786 
     93 H93        19.9985  -26.3325  -39.0064 H         1 UNK         0.0786 
     94 H94        21.5320  -26.0115  -38.1953 H         1 UNK         0.0786 
     95 H95        23.8355  -27.4378  -41.4038 H         1 UNK         0.3172 
     96 H96        25.7302  -28.2523  -39.3541 H         1 UNK         0.0595 
     97 H97        26.0707  -27.8139  -42.3655 H         1 UNK         0.0839 
     98 H98        27.3703  -27.9871  -41.1926 H         1 UNK         0.0839 
     99 H99        26.3074  -26.5908  -41.1193 H         1 UNK         0.0839 
    100 H100       24.0422  -30.1906  -39.1915 H         1 UNK         0.2998 
    101 H101       23.7261  -32.3722  -39.0673 H         1 UNK         0.0822 
    102 H102       25.6043  -33.9369  -39.2450 H         1 UNK         0.0787 
    103 H103       26.2246  -32.4432  -38.5768 H         1 UNK         0.0787 
    104 H104       26.5103  -32.8334  -40.2706 H         1 UNK         0.0787 
    105 H105       24.2227  -34.5846  -40.5857 H         1 UNK         0.3055 
    106 H106       23.3237  -35.8225  -42.1985 H         1 UNK         0.1106 
    107 H107       25.0746  -34.7157  -43.6137 H         1 UNK         0.0828 
    108 H108       23.6577  -35.1640  -44.5479 H         1 UNK         0.0828 
    109 H109       23.9062  -33.4857  -44.0936 H         1 UNK         0.0828 
    110 H110       21.5269  -34.4577  -40.5856 H         1 UNK         0.2931 
    111 H111       19.4427  -33.1433  -41.9224 H         1 UNK         0.0412 
    112 H112       16.9032  -35.4408  -42.8583 H         1 UNK         0.3472 
    113 H113       17.3028  -33.7681  -42.5645 H         1 UNK         0.3472 
    114 H114       18.1909  -33.3614  -39.8051 H         1 UNK         0.0970 
    115 H115       19.2385  -34.6425  -39.2602 H         1 UNK         0.0970 
    116 H116       18.4422  -31.0947  -38.6595 H         1 UNK         0.0612 
    117 H117       19.9334  -30.1833  -38.6866 H         1 UNK         0.0612 
@<TRIPOS>BOND
     1    1    2 1    
     2    1   62 1    
     3    1   63 1    
     4    1   64 1    
     5    2    3 2    
     6    2    4 am   BACKBONE|DICT|INTERRES
     7    4    5 1    
     8    4   65 1    
     9    5    6 1    
    10    5   25 1    
    11    5   66 1    
    12    6    7 1    
    13    6   67 1    
    14    6   68 1    
    15    7    8 1    
    16    8    9 1    
    17    8   69 1    
    18    8   70 1    
    19    9   10 ar   
    20    9   14 ar   
    21   10   11 ar   
    22   10   71 1    
    23   11   12 ar   
    24   11   61 1    
    25   12   13 ar   
    26   12   72 1    
    27   13   14 ar   
    28   13   15 1    
    29   14   73 1    
    30   15   16 1    
    31   15   74 1    
    32   15   75 1    
    33   16   17 1    
    34   17   18 1    
    35   17   76 1    
    36   17   77 1    
    37   18   19 1    
    38   18   27 1    
    39   18   78 1    
    40   19   20 am   BACKBONE|DICT|INTERRES
    41   19   79 1    
    42   20   21 2    
    43   20   22 1    
    44   22   23 1    
    45   22   24 1    
    46   22   80 1    
    47   23   81 1    
    48   23   82 1    
    49   23   83 1    
    50   24   25 am   BACKBONE|DICT|INTERRES
    51   24   84 1    
    52   25   26 2    
    53   27   28 2    
    54   27   29 am   BACKBONE|DICT|INTERRES
    55   29   30 1    
    56   29   85 1    
    57   30   31 1    
    58   30   32 1    
    59   30   86 1    
    60   31   87 1    
    61   31   88 1    
    62   31   89 1    
    63   32   33 2    
    64   32   34 am   BACKBONE|DICT|INTERRES
    65   34   35 1    
    66   34   90 1    
    67   35   36 1    
    68   35   37 1    
    69   35   91 1    
    70   36   92 1    
    71   36   93 1    
    72   36   94 1    
    73   37   38 2    
    74   37   39 am   BACKBONE|DICT|INTERRES
    75   39   40 1    
    76   39   95 1    
    77   40   41 1    
    78   40   42 1    
    79   40   96 1    
    80   41   97 1    
    81   41   98 1    
    82   41   99 1    
    83   42   43 2    
    84   42   44 am   BACKBONE|DICT|INTERRES
    85   44   45 1    
    86   44  100 1    
    87   45   46 1    
    88   45   47 1    
    89   45  101 1    
    90   46  102 1    
    91   46  103 1    
    92   46  104 1    
    93   47   48 2    
    94   47   49 am   BACKBONE|DICT|INTERRES
    95   49   50 1    
    96   49  105 1    
    97   50   51 1    
    98   50   52 1    
    99   50  106 1    
   100   51  107 1    
   101   51  108 1    
   102   51  109 1    
   103   52   53 2    
   104   52   54 am   BACKBONE|DICT|INTERRES
   105   54   55 1    
   106   54  110 1    
   107   55   56 1    
   108   55   59 1    
   109   55  111 1    
   110   56   57 am   BACKBONE|DICT|INTERRES
   111   56   58 2    
   112   57  112 1    
   113   57  113 1    
   114   59   60 1    
   115   59  114 1    
   116   59  115 1    
   117   60   61 1    
   118   61  116 1    
   119   61  117 1    
@<TRIPOS>SUBSTRUCTURE
     1 UNK         1 GROUP             0       ****    0 ROOT    
