@<TRIPOS>MOLECULE
3R8
117   119    1
SMALL
USER_CHARGES


@<TRIPOS>ATOM
      1 CA         17.4542  -28.3029  -49.3962 C.3       0 UNK        -0.2013 
      2 C          17.5546  -28.1896  -47.8824 C.2       0 UNK         0.4866 
      3 O          18.5683  -28.5826  -47.3047 O.2       0 UNK        -0.5176 
      4 N          16.5088  -27.6623  -47.2331 N.am      1 UNK        -0.4884 
      5 CA         16.4666  -27.4162  -45.7909 C.3       1 UNK         0.0853 
      6 C6         15.0033  -27.3544  -45.2800 C.3       10 UNK        -0.0849 
      7 S7         14.7998  -26.9854  -43.5001 S.3       10 UNK        -0.2776 
      8 C8         15.0626  -28.6072  -42.7126 C.3       10 UNK         0.0316 
      9 C9         16.4960  -28.7547  -42.2232 C.ar      10 UNK        -0.0863 
     10 C10        17.4240  -29.5056  -42.9493 C.ar      10 UNK        -0.1009 
     11 C11        18.7446  -29.6178  -42.5078 C.ar      10 UNK        -0.0712 
     12 C12        19.1274  -29.0070  -41.3098 C.ar      10 UNK        -0.0894 
     13 C13        18.2072  -28.2594  -40.5676 C.ar      10 UNK        -0.0745 
     14 C14        16.8934  -28.1386  -41.0320 C.ar      10 UNK        -0.0972 
     15 C15        18.6122  -27.5979  -39.2550 C.3       10 UNK         0.0209 
     16 S16        18.6351  -25.7779  -39.3863 S.3       10 UNK        -0.2568 
     17 C17        20.4131  -25.4091  -39.5801 C.3       10 UNK        -0.0983 
     18 CA         20.9987  -25.8705  -40.9351 C.3       3 UNK         0.0876 
     19 N          20.2346  -25.3717  -42.0860 N.am      3 UNK        -0.4424 
     20 C          20.2626  -25.9264  -43.3028 C.2       2 UNK         0.4918 
     21 O          20.9868  -26.8762  -43.6068 O.2       2 UNK        -0.4875 
     22 CA         19.3516  -25.3067  -44.3625 C.3       2 UNK         0.0481 
     23 CB         20.1730  -24.7336  -45.5330 C.3       2 UNK        -0.1831 
     24 N          18.4478  -26.3512  -44.8235 N.am      2 UNK        -0.4498 
     25 C          17.2921  -26.1552  -45.4668 C.2       1 UNK         0.5027 
     26 O          16.8748  -25.0487  -45.8180 O.2       1 UNK        -0.4969 
     27 C          22.5124  -25.5838  -41.0297 C.2       3 UNK         0.5005 
     28 O          23.2778  -26.1436  -40.2447 O.2       3 UNK        -0.5279 
     29 N          22.9384  -24.7834  -42.0196 N.am      4 UNK        -0.4463 
     30 CA         24.3401  -24.5848  -42.4072 C.3       4 UNK         0.0283 
     31 CB         24.4136  -23.5094  -43.5029 C.3       4 UNK        -0.1875 
     32 C          25.0381  -25.8785  -42.8767 C.2       4 UNK         0.4949 
     33 O          26.2613  -25.9709  -42.7797 O.2       4 UNK        -0.5039 
     34 N          24.2531  -26.8639  -43.3380 N.am      5 UNK        -0.4663 
     35 CA         24.7046  -28.2176  -43.6722 C.3       5 UNK         0.0242 
     36 CB         23.7393  -28.8029  -44.7176 C.3       5 UNK        -0.1982 
     37 C          24.8158  -29.1471  -42.4431 C.2       5 UNK         0.5017 
     38 O          25.1411  -30.3225  -42.6211 O.2       5 UNK        -0.5012 
     39 N          24.5336  -28.6214  -41.2386 N.am      6 UNK        -0.4439 
     40 CA         24.4140  -29.3031  -39.9438 C.3       6 UNK         0.0297 
     41 CB         25.6914  -30.0998  -39.5977 C.3       6 UNK        -0.2006 
     42 C          23.1483  -30.1738  -39.8597 C.2       6 UNK         0.4892 
     43 O          22.4428  -30.3543  -40.8528 O.2       6 UNK        -0.5089 
     44 N          22.8846  -30.7218  -38.6654 N.am      7 UNK        -0.4243 
     45 CA         21.7615  -31.6311  -38.3971 C.3       7 UNK         0.0196 
     46 CB         21.6572  -31.8723  -36.8825 C.3       7 UNK        -0.2007 
     47 C          21.8525  -32.9711  -39.1543 C.2       7 UNK         0.5020 
     48 O          20.8290  -33.6251  -39.3526 O.2       7 UNK        -0.5147 
     49 N          23.0685  -33.3480  -39.5736 N.am      8 UNK        -0.4734 
     50 CA         23.3361  -34.4873  -40.4538 C.3       8 UNK         0.0238 
     51 CB         24.8226  -34.8646  -40.3393 C.3       8 UNK        -0.1912 
     52 C          22.9640  -34.2206  -41.9258 C.2       8 UNK         0.5038 
     53 O          22.8254  -35.1840  -42.6807 O.2       8 UNK        -0.5046 
     54 N          22.8170  -32.9420  -42.3041 N.am      9 UNK        -0.4200 
     55 CA         22.4916  -32.4561  -43.6526 C.3       9 UNK         0.0839 
     56 C          23.5518  -32.8669  -44.7126 C.2       9 UNK         0.5513 
     57 N          24.8111  -32.5103  -44.4980 N.am      9 UNK        -0.7519 
     58 O          23.2470  -33.4997  -45.7210 O.2       9 UNK        -0.4960 
     59 C59        21.0292  -32.7668  -44.0802 C.3       10 UNK        -0.0876 
     60 S60        19.7896  -32.1438  -42.8935 S.3       10 UNK        -0.2414 
     61 C61        19.7618  -30.3823  -43.3375 C.3       10 UNK         0.0169 
     62 H62        18.2527  -27.7311  -49.8683 H         1 UNK         0.0903 
     63 H63        17.5543  -29.3441  -49.7016 H         1 UNK         0.0903 
     64 H64        16.5017  -27.9295  -49.7718 H         1 UNK         0.0903 
     65 H65        15.7152  -27.3257  -47.7606 H         1 UNK         0.3096 
     66 H66        16.9412  -28.2653  -45.3020 H         1 UNK         0.1121 
     67 H67        14.4545  -26.5871  -45.8293 H         1 UNK         0.0849 
     68 H68        14.4933  -28.2929  -45.5028 H         1 UNK         0.0849 
     69 H69        14.7963  -29.4141  -43.3969 H         1 UNK         0.0865 
     70 H70        14.3831  -28.6980  -41.8637 H         1 UNK         0.0865 
     71 H71        17.1241  -30.0031  -43.8613 H         1 UNK         0.1346 
     72 H72        20.1446  -29.1178  -40.9617 H         1 UNK         0.1412 
     73 H73        16.1786  -27.5571  -40.4653 H         1 UNK         0.1426 
     74 H74        19.5816  -27.9639  -38.9131 H         1 UNK         0.0716 
     75 H75        17.8942  -27.8808  -38.4839 H         1 UNK         0.0716 
     76 H76        20.9489  -25.8734  -38.7497 H         1 UNK         0.0695 
     77 H77        20.5441  -24.3321  -39.4598 H         1 UNK         0.0695 
     78 H78        20.9311  -26.9578  -40.9556 H         1 UNK         0.0983 
     79 H79        19.6006  -24.6071  -41.9019 H         1 UNK         0.3095 
     80 H80        18.7656  -24.5043  -43.9089 H         1 UNK         0.0454 
     81 H81        19.5332  -24.2536  -46.2733 H         1 UNK         0.0851 
     82 H82        20.7449  -25.5111  -46.0414 H         1 UNK         0.0851 
     83 H83        20.8812  -23.9815  -45.1837 H         1 UNK         0.0851 
     84 H84        18.7377  -27.2924  -44.5893 H         1 UNK         0.2976 
     85 H85        22.2402  -24.3528  -42.6077 H         1 UNK         0.3116 
     86 H86        24.8795  -24.2215  -41.5300 H         1 UNK         0.0646 
     87 H87        25.4480  -23.3186  -43.7926 H         1 UNK         0.0847 
     88 H88        23.9967  -22.5621  -43.1604 H         1 UNK         0.0847 
     89 H89        23.8748  -23.8102  -44.4025 H         1 UNK         0.0847 
     90 H90        23.2538  -26.7053  -43.3921 H         1 UNK         0.3040 
     91 H91        25.6989  -28.1602  -44.1206 H         1 UNK         0.1015 
     92 H92        23.6574  -28.1547  -45.5902 H         1 UNK         0.0786 
     93 H93        22.7379  -28.9392  -44.3078 H         1 UNK         0.0786 
     94 H94        24.0852  -29.7738  -45.0723 H         1 UNK         0.0786 
     95 H95        24.2436  -27.6498  -41.2123 H         1 UNK         0.3172 
     96 H96        24.3014  -28.5103  -39.2030 H         1 UNK         0.0595 
     97 H97        25.7922  -30.9996  -40.2053 H         1 UNK         0.0839 
     98 H98        25.6917  -30.4152  -38.5541 H         1 UNK         0.0839 
     99 H99        26.5863  -29.4956  -39.7468 H         1 UNK         0.0839 
    100 H100       23.4982  -30.5198  -37.8887 H         1 UNK         0.2998 
    101 H101       20.8462  -31.1364  -38.7305 H         1 UNK         0.0822 
    102 H102       22.5545  -32.3497  -36.4867 H         1 UNK         0.0787 
    103 H103       21.5042  -30.9387  -36.3407 H         1 UNK         0.0787 
    104 H104       20.8125  -32.5220  -36.6485 H         1 UNK         0.0787 
    105 H105       23.8536  -32.7577  -39.3416 H         1 UNK         0.3055 
    106 H106       22.7367  -35.3361  -40.1162 H         1 UNK         0.1106 
    107 H107       25.0527  -35.7341  -40.9568 H         1 UNK         0.0828 
    108 H108       25.4724  -34.0522  -40.6675 H         1 UNK         0.0828 
    109 H109       25.0910  -35.1188  -39.3137 H         1 UNK         0.0828 
    110 H110       22.9111  -32.2102  -41.6098 H         1 UNK         0.2931 
    111 H111       22.5727  -31.3714  -43.5881 H         1 UNK         0.0412 
    112 H112       25.0408  -31.9129  -43.7081 H         1 UNK         0.3472 
    113 H113       25.5226  -32.7661  -45.1635 H         1 UNK         0.3472 
    114 H114       20.8180  -32.3387  -45.0618 H         1 UNK         0.0970 
    115 H115       20.8878  -33.8436  -44.1864 H         1 UNK         0.0970 
    116 H116       20.7528  -29.9521  -43.1871 H         1 UNK         0.0612 
    117 H117       19.5348  -30.2747  -44.3994 H         1 UNK         0.0612 
@<TRIPOS>BOND
     1    1    2 1    
     2    1   62 1    
     3    1   63 1    
     4    1   64 1    
     5    2    3 2    
     6    2    4 am   BACKBONE|DICT|INTERRES
     7    4    5 1    
     8    4   65 1    
     9    5    6 1    
    10    5   25 1    
    11    5   66 1    
    12    6    7 1    
    13    6   67 1    
    14    6   68 1    
    15    7    8 1    
    16    8    9 1    
    17    8   69 1    
    18    8   70 1    
    19    9   10 ar   
    20    9   14 ar   
    21   10   11 ar   
    22   10   71 1    
    23   11   12 ar   
    24   11   61 1    
    25   12   13 ar   
    26   12   72 1    
    27   13   14 ar   
    28   13   15 1    
    29   14   73 1    
    30   15   16 1    
    31   15   74 1    
    32   15   75 1    
    33   16   17 1    
    34   17   18 1    
    35   17   76 1    
    36   17   77 1    
    37   18   19 1    
    38   18   27 1    
    39   18   78 1    
    40   19   20 am   BACKBONE|DICT|INTERRES
    41   19   79 1    
    42   20   21 2    
    43   20   22 1    
    44   22   23 1    
    45   22   24 1    
    46   22   80 1    
    47   23   81 1    
    48   23   82 1    
    49   23   83 1    
    50   24   25 am   BACKBONE|DICT|INTERRES
    51   24   84 1    
    52   25   26 2    
    53   27   28 2    
    54   27   29 am   BACKBONE|DICT|INTERRES
    55   29   30 1    
    56   29   85 1    
    57   30   31 1    
    58   30   32 1    
    59   30   86 1    
    60   31   87 1    
    61   31   88 1    
    62   31   89 1    
    63   32   33 2    
    64   32   34 am   BACKBONE|DICT|INTERRES
    65   34   35 1    
    66   34   90 1    
    67   35   36 1    
    68   35   37 1    
    69   35   91 1    
    70   36   92 1    
    71   36   93 1    
    72   36   94 1    
    73   37   38 2    
    74   37   39 am   BACKBONE|DICT|INTERRES
    75   39   40 1    
    76   39   95 1    
    77   40   41 1    
    78   40   42 1    
    79   40   96 1    
    80   41   97 1    
    81   41   98 1    
    82   41   99 1    
    83   42   43 2    
    84   42   44 am   BACKBONE|DICT|INTERRES
    85   44   45 1    
    86   44  100 1    
    87   45   46 1    
    88   45   47 1    
    89   45  101 1    
    90   46  102 1    
    91   46  103 1    
    92   46  104 1    
    93   47   48 2    
    94   47   49 am   BACKBONE|DICT|INTERRES
    95   49   50 1    
    96   49  105 1    
    97   50   51 1    
    98   50   52 1    
    99   50  106 1    
   100   51  107 1    
   101   51  108 1    
   102   51  109 1    
   103   52   53 2    
   104   52   54 am   BACKBONE|DICT|INTERRES
   105   54   55 1    
   106   54  110 1    
   107   55   56 1    
   108   55   59 1    
   109   55  111 1    
   110   56   57 am   BACKBONE|DICT|INTERRES
   111   56   58 2    
   112   57  112 1    
   113   57  113 1    
   114   59   60 1    
   115   59  114 1    
   116   59  115 1    
   117   60   61 1    
   118   61  116 1    
   119   61  117 1    
@<TRIPOS>SUBSTRUCTURE
     1 UNK         1 GROUP             0       ****    0 ROOT    
