@<TRIPOS>MOLECULE
3R8
117   119    1
SMALL
USER_CHARGES


@<TRIPOS>ATOM
      1 CA         14.2921  -26.5964  -39.7070 C.3       0 UNK        -0.2013 
      2 C          15.1619  -26.2361  -40.9022 C.2       0 UNK         0.4866 
      3 O          15.8850  -25.2401  -40.8559 O.2       0 UNK        -0.5176 
      4 N          15.0899  -27.0317  -41.9757 N.am      1 UNK        -0.4884 
      5 CA         15.9123  -26.8920  -43.1813 C.3       1 UNK         0.0853 
      6 C6         15.2769  -27.6145  -44.3989 C.3       10 UNK        -0.0849 
      7 S7         14.8483  -29.3661  -44.0958 S.3       10 UNK        -0.2776 
      8 C8         15.5200  -30.1850  -45.5818 C.3       10 UNK         0.0316 
      9 C9         17.0450  -30.2458  -45.6311 C.ar      10 UNK        -0.0863 
     10 C10        17.7903  -30.6218  -44.5083 C.ar      10 UNK        -0.1009 
     11 C11        19.1807  -30.7472  -44.5825 C.ar      10 UNK        -0.0712 
     12 C12        19.8297  -30.4996  -45.7959 C.ar      10 UNK        -0.0894 
     13 C13        19.1000  -30.1162  -46.9241 C.ar      10 UNK        -0.0745 
     14 C14        17.7103  -29.9869  -46.8337 C.ar      10 UNK        -0.0972 
     15 C15        19.8004  -29.8806  -48.2541 C.3       10 UNK         0.0209 
     16 S16        20.2652  -28.1358  -48.4817 S.3       10 UNK        -0.2568 
     17 C17        21.9459  -28.0724  -47.7709 C.3       10 UNK        -0.0983 
     18 CA         22.0853  -26.9622  -46.6971 C.3       3 UNK         0.0876 
     19 N          21.3291  -27.2882  -45.4812 N.am      3 UNK        -0.4424 
     20 C          20.3345  -26.5507  -44.9793 C.2       2 UNK         0.4918 
     21 O          19.9121  -25.5079  -45.4853 O.2       2 UNK        -0.4875 
     22 CA         19.7245  -27.0439  -43.6650 C.3       2 UNK         0.0481 
     23 CB         20.3876  -26.3498  -42.4615 C.3       2 UNK        -0.1831 
     24 N          18.2966  -26.7552  -43.6913 N.am      2 UNK        -0.4498 
     25 C          17.3678  -27.3407  -42.9292 C.2       1 UNK         0.5027 
     26 O          17.6184  -28.1975  -42.0761 O.2       1 UNK        -0.4969 
     27 C          23.5690  -26.6669  -46.3767 C.2       3 UNK         0.5005 
     28 O          24.3389  -26.3919  -47.2991 O.2       3 UNK        -0.5279 
     29 N          23.9574  -26.7123  -45.0954 N.am      4 UNK        -0.4463 
     30 CA         25.3003  -26.4440  -44.5895 C.3       4 UNK         0.0283 
     31 CB         26.2147  -27.6599  -44.8367 C.3       4 UNK        -0.1875 
     32 C          25.1927  -26.1471  -43.0910 C.2       4 UNK         0.4949 
     33 O          24.2052  -26.5354  -42.4640 O.2       4 UNK        -0.5039 
     34 N          26.2252  -25.5086  -42.5268 N.am      5 UNK        -0.4663 
     35 CA         26.3215  -25.2030  -41.0922 C.3       5 UNK         0.0242 
     36 CB         27.4782  -24.2165  -40.8630 C.3       5 UNK        -0.1982 
     37 C          26.4946  -26.4507  -40.2037 C.2       5 UNK         0.5017 
     38 O          26.1512  -26.4052  -39.0227 O.2       5 UNK        -0.5012 
     39 N          27.0121  -27.5382  -40.7903 N.am      6 UNK        -0.4439 
     40 CA         27.2216  -28.8393  -40.1506 C.3       6 UNK         0.0297 
     41 CB         28.4213  -29.5258  -40.8286 C.3       6 UNK        -0.2006 
     42 C          25.9775  -29.7525  -40.1804 C.2       6 UNK         0.4892 
     43 O          26.0804  -30.9028  -39.7511 O.2       6 UNK        -0.5089 
     44 N          24.8448  -29.2603  -40.7057 N.am      7 UNK        -0.4243 
     45 CA         23.5786  -29.9882  -40.8216 C.3       7 UNK         0.0196 
     46 CB         22.5627  -29.1040  -41.5589 C.3       7 UNK        -0.2007 
     47 C          22.9971  -30.4219  -39.4647 C.2       7 UNK         0.5020 
     48 O          23.0390  -29.6532  -38.5017 O.2       7 UNK        -0.5147 
     49 N          22.4176  -31.6262  -39.4385 N.am      8 UNK        -0.4734 
     50 CA         21.7366  -32.2136  -38.2823 C.3       8 UNK         0.0238 
     51 CB         22.7645  -32.8798  -37.3443 C.3       8 UNK        -0.1912 
     52 C          20.6333  -33.1774  -38.7531 C.2       8 UNK         0.5038 
     53 O          20.4627  -34.2500  -38.1706 O.2       8 UNK        -0.5046 
     54 N          19.9323  -32.7949  -39.8290 N.am      9 UNK        -0.4200 
     55 CA         18.8529  -33.5709  -40.4585 C.3       9 UNK         0.0839 
     56 C          17.6013  -33.7040  -39.5487 C.2       9 UNK         0.5513 
     57 N          16.8905  -34.8200  -39.6330 N.am      9 UNK        -0.7519 
     58 O          17.2473  -32.7917  -38.8045 O.2       9 UNK        -0.4960 
     59 C59        18.4618  -32.9908  -41.8433 C.3       10 UNK        -0.0876 
     60 S60        19.8787  -32.9167  -42.9961 S.3       10 UNK        -0.2414 
     61 C61        19.9861  -31.1354  -43.3519 C.3       10 UNK         0.0169 
     62 H62        13.6132  -25.7760  -39.4755 H         1 UNK         0.0903 
     63 H63        13.6946  -27.4890  -39.8918 H         1 UNK         0.0903 
     64 H64        14.9152  -26.7809  -38.8323 H         1 UNK         0.0903 
     65 H65        14.5111  -27.8600  -41.9521 H         1 UNK         0.3096 
     66 H66        15.9483  -25.8266  -43.4219 H         1 UNK         0.1121 
     67 H67        15.9276  -27.5366  -45.2722 H         1 UNK         0.0849 
     68 H68        14.3569  -27.0995  -44.6797 H         1 UNK         0.0849 
     69 H69        15.1388  -31.2065  -45.6134 H         1 UNK         0.0865 
     70 H70        15.1215  -29.6850  -46.4662 H         1 UNK         0.0865 
     71 H71        17.2845  -30.8204  -43.5745 H         1 UNK         0.1346 
     72 H72        20.9029  -30.6102  -45.8654 H         1 UNK         0.1412 
     73 H73        17.1451  -29.7057  -47.7121 H         1 UNK         0.1426 
     74 H74        19.1351  -30.1675  -49.0699 H         1 UNK         0.0716 
     75 H75        20.6774  -30.5226  -48.3491 H         1 UNK         0.0716 
     76 H76        22.6262  -27.8964  -48.6064 H         1 UNK         0.0695 
     77 H77        22.2237  -29.0427  -47.3568 H         1 UNK         0.0695 
     78 H78        21.7072  -26.0346  -47.1326 H         1 UNK         0.0983 
     79 H79        21.5873  -28.1455  -45.0159 H         1 UNK         0.3095 
     80 H80        19.8718  -28.1225  -43.5898 H         1 UNK         0.0454 
     81 H81        20.0393  -26.7699  -41.5179 H         1 UNK         0.0851 
     82 H82        20.1772  -25.2798  -42.4496 H         1 UNK         0.0851 
     83 H83        21.4711  -26.4638  -42.4866 H         1 UNK         0.0851 
     84 H84        18.0284  -26.0748  -44.3918 H         1 UNK         0.2976 
     85 H85        23.2757  -26.8648  -44.3632 H         1 UNK         0.3116 
     86 H86        25.7051  -25.5630  -45.0922 H         1 UNK         0.0646 
     87 H87        25.8390  -28.5539  -44.3370 H         1 UNK         0.0847 
     88 H88        26.3013  -27.8848  -45.8997 H         1 UNK         0.0847 
     89 H89        27.2244  -27.4775  -44.4676 H         1 UNK         0.0847 
     90 H90        26.9987  -25.2161  -43.1081 H         1 UNK         0.3040 
     91 H91        25.3912  -24.7181  -40.7866 H         1 UNK         0.1015 
     92 H92        27.5583  -23.9469  -39.8088 H         1 UNK         0.0786 
     93 H93        27.3280  -23.2917  -41.4203 H         1 UNK         0.0786 
     94 H94        28.4372  -24.6400  -41.1644 H         1 UNK         0.0786 
     95 H95        27.2601  -27.4690  -41.7663 H         1 UNK         0.3172 
     96 H96        27.4750  -28.6800  -39.1004 H         1 UNK         0.0595 
     97 H97        28.2217  -29.7447  -41.8783 H         1 UNK         0.0839 
     98 H98        28.6619  -30.4710  -40.3397 H         1 UNK         0.0839 
     99 H99        29.3158  -28.9046  -40.7780 H         1 UNK         0.0839 
    100 H100       24.8371  -28.2990  -41.0196 H         1 UNK         0.2998 
    101 H101       23.7662  -30.8804  -41.4228 H         1 UNK         0.0822 
    102 H102       22.8609  -28.9309  -42.5927 H         1 UNK         0.0787 
    103 H103       22.4568  -28.1360  -41.0680 H         1 UNK         0.0787 
    104 H104       21.5743  -29.5601  -41.5719 H         1 UNK         0.0787 
    105 H105       22.4269  -32.1951  -40.2752 H         1 UNK         0.3055 
    106 H106       21.2291  -31.4216  -37.7266 H         1 UNK         0.1106 
    107 H107       23.2895  -33.6966  -37.8408 H         1 UNK         0.0828 
    108 H108       23.5105  -32.1641  -36.9985 H         1 UNK         0.0828 
    109 H109       22.2800  -33.2910  -36.4578 H         1 UNK         0.0828 
    110 H110       20.1135  -31.8861  -40.2258 H         1 UNK         0.2931 
    111 H111       19.2470  -34.5764  -40.6225 H         1 UNK         0.0412 
    112 H112       17.1685  -35.5706  -40.2467 H         1 UNK         0.3472 
    113 H113       16.0651  -34.9204  -39.0623 H         1 UNK         0.3472 
    114 H114       17.6926  -33.6089  -42.3105 H         1 UNK         0.0970 
    115 H115       18.0173  -32.0018  -41.7230 H         1 UNK         0.0970 
    116 H116       21.0368  -30.8848  -43.5028 H         1 UNK         0.0612 
    117 H117       19.6523  -30.5522  -42.4927 H         1 UNK         0.0612 
@<TRIPOS>BOND
     1    1    2 1    
     2    1   62 1    
     3    1   63 1    
     4    1   64 1    
     5    2    3 2    
     6    2    4 am   BACKBONE|DICT|INTERRES
     7    4    5 1    
     8    4   65 1    
     9    5    6 1    
    10    5   25 1    
    11    5   66 1    
    12    6    7 1    
    13    6   67 1    
    14    6   68 1    
    15    7    8 1    
    16    8    9 1    
    17    8   69 1    
    18    8   70 1    
    19    9   10 ar   
    20    9   14 ar   
    21   10   11 ar   
    22   10   71 1    
    23   11   12 ar   
    24   11   61 1    
    25   12   13 ar   
    26   12   72 1    
    27   13   14 ar   
    28   13   15 1    
    29   14   73 1    
    30   15   16 1    
    31   15   74 1    
    32   15   75 1    
    33   16   17 1    
    34   17   18 1    
    35   17   76 1    
    36   17   77 1    
    37   18   19 1    
    38   18   27 1    
    39   18   78 1    
    40   19   20 am   BACKBONE|DICT|INTERRES
    41   19   79 1    
    42   20   21 2    
    43   20   22 1    
    44   22   23 1    
    45   22   24 1    
    46   22   80 1    
    47   23   81 1    
    48   23   82 1    
    49   23   83 1    
    50   24   25 am   BACKBONE|DICT|INTERRES
    51   24   84 1    
    52   25   26 2    
    53   27   28 2    
    54   27   29 am   BACKBONE|DICT|INTERRES
    55   29   30 1    
    56   29   85 1    
    57   30   31 1    
    58   30   32 1    
    59   30   86 1    
    60   31   87 1    
    61   31   88 1    
    62   31   89 1    
    63   32   33 2    
    64   32   34 am   BACKBONE|DICT|INTERRES
    65   34   35 1    
    66   34   90 1    
    67   35   36 1    
    68   35   37 1    
    69   35   91 1    
    70   36   92 1    
    71   36   93 1    
    72   36   94 1    
    73   37   38 2    
    74   37   39 am   BACKBONE|DICT|INTERRES
    75   39   40 1    
    76   39   95 1    
    77   40   41 1    
    78   40   42 1    
    79   40   96 1    
    80   41   97 1    
    81   41   98 1    
    82   41   99 1    
    83   42   43 2    
    84   42   44 am   BACKBONE|DICT|INTERRES
    85   44   45 1    
    86   44  100 1    
    87   45   46 1    
    88   45   47 1    
    89   45  101 1    
    90   46  102 1    
    91   46  103 1    
    92   46  104 1    
    93   47   48 2    
    94   47   49 am   BACKBONE|DICT|INTERRES
    95   49   50 1    
    96   49  105 1    
    97   50   51 1    
    98   50   52 1    
    99   50  106 1    
   100   51  107 1    
   101   51  108 1    
   102   51  109 1    
   103   52   53 2    
   104   52   54 am   BACKBONE|DICT|INTERRES
   105   54   55 1    
   106   54  110 1    
   107   55   56 1    
   108   55   59 1    
   109   55  111 1    
   110   56   57 am   BACKBONE|DICT|INTERRES
   111   56   58 2    
   112   57  112 1    
   113   57  113 1    
   114   59   60 1    
   115   59  114 1    
   116   59  115 1    
   117   60   61 1    
   118   61  116 1    
   119   61  117 1    
@<TRIPOS>SUBSTRUCTURE
     1 UNK         1 GROUP             0       ****    0 ROOT    
