@<TRIPOS>MOLECULE
3R8
117   119    1
SMALL
USER_CHARGES


@<TRIPOS>ATOM
      1 CA         19.6551  -23.9422  -39.4233 C.3       0 UNK        -0.2013 
      2 C          18.9944  -24.2133  -40.7668 C.2       0 UNK         0.4866 
      3 O          18.2422  -23.3739  -41.2630 O.2       0 UNK        -0.5176 
      4 N          19.2675  -25.3826  -41.3550 N.am      1 UNK        -0.4884 
      5 CA         18.7910  -25.7929  -42.6780 C.3       1 UNK         0.0853 
      6 C6         18.9964  -27.3114  -42.8951 C.3       10 UNK        -0.0849 
      7 S7         17.9507  -28.3304  -41.8040 S.3       10 UNK        -0.2776 
      8 C8         16.8296  -29.1230  -43.0038 C.3       10 UNK         0.0316 
      9 C9         17.4768  -30.3249  -43.6814 C.ar      10 UNK        -0.0863 
     10 C10        17.3230  -31.5993  -43.1303 C.ar      10 UNK        -0.1009 
     11 C11        17.8794  -32.7172  -43.7564 C.ar      10 UNK        -0.0712 
     12 C12        18.6262  -32.5471  -44.9272 C.ar      10 UNK        -0.0894 
     13 C13        18.7895  -31.2795  -45.4998 C.ar      10 UNK        -0.0745 
     14 C14        18.1932  -30.1759  -44.8740 C.ar      10 UNK        -0.0972 
     15 C15        19.5700  -31.1721  -46.8160 C.3       10 UNK         0.0209 
     16 S16        19.9430  -29.4819  -47.4151 S.3       10 UNK        -0.2568 
     17 C17        21.3359  -29.0253  -46.3324 C.3       10 UNK        -0.0983 
     18 CA         21.8224  -27.5621  -46.5351 C.3       3 UNK         0.0876 
     19 N          20.7344  -26.6042  -46.3011 N.am      3 UNK        -0.4424 
     20 C          20.6661  -25.3329  -46.7200 C.2       2 UNK         0.4918 
     21 O          21.5311  -24.7977  -47.4134 O.2       2 UNK        -0.4875 
     22 CA         19.4589  -24.5015  -46.2410 C.3       2 UNK         0.0481 
     23 CB         18.3749  -24.4604  -47.3292 C.3       2 UNK        -0.1831 
     24 N          18.8728  -24.9932  -44.9876 N.am      2 UNK        -0.4498 
     25 C          19.5070  -25.0204  -43.8051 C.2       1 UNK         0.5027 
     26 O          20.6361  -24.5547  -43.6262 O.2       1 UNK        -0.4969 
     27 C          23.0779  -27.2426  -45.6789 C.2       3 UNK         0.5005 
     28 O          23.6394  -28.1465  -45.0586 O.2       3 UNK        -0.5279 
     29 N          23.4926  -25.9653  -45.6536 N.am      4 UNK        -0.4463 
     30 CA         24.6222  -25.3935  -44.9080 C.3       4 UNK         0.0283 
     31 CB         25.9621  -25.8794  -45.5003 C.3       4 UNK        -0.1875 
     32 C          24.5151  -25.6395  -43.3903 C.2       4 UNK         0.4949 
     33 O          25.4103  -26.2422  -42.7950 O.2       4 UNK        -0.5039 
     34 N          23.3893  -25.2108  -42.8001 N.am      5 UNK        -0.4663 
     35 CA         22.9591  -25.3791  -41.4021 C.3       5 UNK         0.0242 
     36 CB         23.9813  -24.8200  -40.3935 C.3       5 UNK        -0.1982 
     37 C          22.5518  -26.8211  -41.0571 C.2       5 UNK         0.5017 
     38 O          21.5019  -27.0130  -40.4421 O.2       5 UNK        -0.5012 
     39 N          23.3623  -27.7947  -41.4889 N.am      6 UNK        -0.4439 
     40 CA         23.1869  -29.2521  -41.4742 C.3       6 UNK         0.0297 
     41 CB         21.9507  -29.6637  -42.2921 C.3       6 UNK        -0.2006 
     42 C          23.1460  -29.9150  -40.0883 C.2       6 UNK         0.4892 
     43 O          23.7489  -30.9766  -39.9277 O.2       6 UNK        -0.5089 
     44 N          22.4174  -29.3182  -39.1349 N.am      7 UNK        -0.4243 
     45 CA         22.0642  -29.8637  -37.8204 C.3       7 UNK         0.0196 
     46 CB         23.3054  -29.9570  -36.9033 C.3       7 UNK        -0.2007 
     47 C          21.2950  -31.1874  -37.9887 C.2       7 UNK         0.5020 
     48 O          20.1501  -31.1609  -38.4409 O.2       7 UNK        -0.5147 
     49 N          21.9400  -32.3218  -37.6923 N.am      8 UNK        -0.4734 
     50 CA         21.4201  -33.6745  -37.9128 C.3       8 UNK         0.0238 
     51 CB         22.0874  -34.6303  -36.9053 C.3       8 UNK        -0.1912 
     52 C          21.5935  -34.1359  -39.3774 C.2       8 UNK         0.5038 
     53 O          22.1190  -35.2252  -39.6160 O.2       8 UNK        -0.5046 
     54 N          21.1447  -33.3029  -40.3266 N.am      9 UNK        -0.4200 
     55 CA         21.1399  -33.5494  -41.7813 C.3       9 UNK         0.0839 
     56 C          22.5535  -33.6910  -42.4274 C.2       9 UNK         0.5513 
     57 N          23.6062  -33.1253  -41.8511 N.am      9 UNK        -0.7519 
     58 O          22.7033  -34.3027  -43.4823 O.2       9 UNK        -0.4960 
     59 C59        20.1810  -34.7035  -42.1913 C.3       10 UNK        -0.0876 
     60 S60        18.4667  -34.4285  -41.6298 S.3       10 UNK        -0.2414 
     61 C61        17.6069  -34.1102  -43.2021 C.3       10 UNK         0.0169 
     62 H62        18.8982  -23.7373  -38.6667 H         1 UNK         0.0903 
     63 H63        20.2512  -24.7899  -39.0847 H         1 UNK         0.0903 
     64 H64        20.3100  -23.0744  -39.4959 H         1 UNK         0.0903 
     65 H65        19.9098  -26.0318  -40.9081 H         1 UNK         0.3096 
     66 H66        17.7245  -25.5641  -42.7400 H         1 UNK         0.1121 
     67 H67        18.7864  -27.5821  -43.9275 H         1 UNK         0.0849 
     68 H68        20.0391  -27.5806  -42.7286 H         1 UNK         0.0849 
     69 H69        15.9286  -29.4410  -42.4768 H         1 UNK         0.0865 
     70 H70        16.4967  -28.3954  -43.7456 H         1 UNK         0.0865 
     71 H71        16.7499  -31.7274  -42.2219 H         1 UNK         0.1346 
     72 H72        19.0554  -33.4115  -45.4157 H         1 UNK         0.1412 
     73 H73        18.2692  -29.1974  -45.3207 H         1 UNK         0.1426 
     74 H74        18.9916  -31.6772  -47.5907 H         1 UNK         0.0716 
     75 H75        20.5071  -31.7240  -46.7267 H         1 UNK         0.0716 
     76 H76        22.1470  -29.7297  -46.5274 H         1 UNK         0.0695 
     77 H77        21.0270  -29.1871  -45.2998 H         1 UNK         0.0695 
     78 H78        22.1355  -27.4616  -47.5767 H         1 UNK         0.0983 
     79 H79        19.9666  -26.9531  -45.7517 H         1 UNK         0.3095 
     80 H80        19.8097  -23.4819  -46.0685 H         1 UNK         0.0454 
     81 H81        18.7771  -24.0697  -48.2651 H         1 UNK         0.0851 
     82 H82        17.5464  -23.8129  -47.0416 H         1 UNK         0.0851 
     83 H83        17.9715  -25.4520  -47.5383 H         1 UNK         0.0851 
     84 H84        17.9416  -25.3801  -45.0527 H         1 UNK         0.2976 
     85 H85        22.9545  -25.3087  -46.2128 H         1 UNK         0.3116 
     86 H86        24.5728  -24.3128  -45.0496 H         1 UNK         0.0646 
     87 H87        26.0912  -26.9560  -45.3838 H         1 UNK         0.0847 
     88 H88        26.0345  -25.6464  -46.5625 H         1 UNK         0.0847 
     89 H89        26.8053  -25.3966  -45.0049 H         1 UNK         0.0847 
     90 H90        22.6746  -24.7987  -43.3931 H         1 UNK         0.3040 
     91 H91        22.0588  -24.7713  -41.3073 H         1 UNK         0.1015 
     92 H92        23.5727  -24.8363  -39.3823 H         1 UNK         0.0786 
     93 H93        24.2379  -23.7856  -40.6222 H         1 UNK         0.0786 
     94 H94        24.9047  -25.3992  -40.3748 H         1 UNK         0.0786 
     95 H95        24.2064  -27.4732  -41.9582 H         1 UNK         0.3172 
     96 H96        24.0643  -29.6452  -41.9903 H         1 UNK         0.0595 
     97 H97        21.0209  -29.4879  -41.7494 H         1 UNK         0.0839 
     98 H98        21.9889  -30.7221  -42.5411 H         1 UNK         0.0839 
     99 H99        21.9031  -29.1173  -43.2308 H         1 UNK         0.0839 
    100 H100       21.9358  -28.4639  -39.4083 H         1 UNK         0.2998 
    101 H101       21.3673  -29.1581  -37.3656 H         1 UNK         0.0822 
    102 H102       23.0372  -30.3449  -35.9196 H         1 UNK         0.0787 
    103 H103       23.7460  -28.9721  -36.7480 H         1 UNK         0.0787 
    104 H104       24.0847  -30.6004  -37.3122 H         1 UNK         0.0787 
    105 H105       22.9046  -32.2516  -37.4005 H         1 UNK         0.3055 
    106 H106       20.3466  -33.6787  -37.7094 H         1 UNK         0.1106 
    107 H107       21.9156  -34.3079  -35.8782 H         1 UNK         0.0828 
    108 H108       21.6833  -35.6396  -36.9959 H         1 UNK         0.0828 
    109 H109       23.1648  -34.6947  -37.0621 H         1 UNK         0.0828 
    110 H110       20.7268  -32.4322  -40.0213 H         1 UNK         0.2931 
    111 H111       20.7285  -32.6407  -42.2207 H         1 UNK         0.0412 
    112 H112       24.5101  -33.2261  -42.2837 H         1 UNK         0.3472 
    113 H113       23.5140  -32.5591  -41.0136 H         1 UNK         0.3472 
    114 H114       20.1774  -34.8313  -43.2749 H         1 UNK         0.0970 
    115 H115       20.5301  -35.6534  -41.7836 H         1 UNK         0.0970 
    116 H116       17.8714  -34.8812  -43.9274 H         1 UNK         0.0612 
    117 H117       16.5342  -34.2149  -43.0330 H         1 UNK         0.0612 
@<TRIPOS>BOND
     1    1    2 1    
     2    1   62 1    
     3    1   63 1    
     4    1   64 1    
     5    2    3 2    
     6    2    4 am   BACKBONE|DICT|INTERRES
     7    4    5 1    
     8    4   65 1    
     9    5    6 1    
    10    5   25 1    
    11    5   66 1    
    12    6    7 1    
    13    6   67 1    
    14    6   68 1    
    15    7    8 1    
    16    8    9 1    
    17    8   69 1    
    18    8   70 1    
    19    9   10 ar   
    20    9   14 ar   
    21   10   11 ar   
    22   10   71 1    
    23   11   12 ar   
    24   11   61 1    
    25   12   13 ar   
    26   12   72 1    
    27   13   14 ar   
    28   13   15 1    
    29   14   73 1    
    30   15   16 1    
    31   15   74 1    
    32   15   75 1    
    33   16   17 1    
    34   17   18 1    
    35   17   76 1    
    36   17   77 1    
    37   18   19 1    
    38   18   27 1    
    39   18   78 1    
    40   19   20 am   BACKBONE|DICT|INTERRES
    41   19   79 1    
    42   20   21 2    
    43   20   22 1    
    44   22   23 1    
    45   22   24 1    
    46   22   80 1    
    47   23   81 1    
    48   23   82 1    
    49   23   83 1    
    50   24   25 am   BACKBONE|DICT|INTERRES
    51   24   84 1    
    52   25   26 2    
    53   27   28 2    
    54   27   29 am   BACKBONE|DICT|INTERRES
    55   29   30 1    
    56   29   85 1    
    57   30   31 1    
    58   30   32 1    
    59   30   86 1    
    60   31   87 1    
    61   31   88 1    
    62   31   89 1    
    63   32   33 2    
    64   32   34 am   BACKBONE|DICT|INTERRES
    65   34   35 1    
    66   34   90 1    
    67   35   36 1    
    68   35   37 1    
    69   35   91 1    
    70   36   92 1    
    71   36   93 1    
    72   36   94 1    
    73   37   38 2    
    74   37   39 am   BACKBONE|DICT|INTERRES
    75   39   40 1    
    76   39   95 1    
    77   40   41 1    
    78   40   42 1    
    79   40   96 1    
    80   41   97 1    
    81   41   98 1    
    82   41   99 1    
    83   42   43 2    
    84   42   44 am   BACKBONE|DICT|INTERRES
    85   44   45 1    
    86   44  100 1    
    87   45   46 1    
    88   45   47 1    
    89   45  101 1    
    90   46  102 1    
    91   46  103 1    
    92   46  104 1    
    93   47   48 2    
    94   47   49 am   BACKBONE|DICT|INTERRES
    95   49   50 1    
    96   49  105 1    
    97   50   51 1    
    98   50   52 1    
    99   50  106 1    
   100   51  107 1    
   101   51  108 1    
   102   51  109 1    
   103   52   53 2    
   104   52   54 am   BACKBONE|DICT|INTERRES
   105   54   55 1    
   106   54  110 1    
   107   55   56 1    
   108   55   59 1    
   109   55  111 1    
   110   56   57 am   BACKBONE|DICT|INTERRES
   111   56   58 2    
   112   57  112 1    
   113   57  113 1    
   114   59   60 1    
   115   59  114 1    
   116   59  115 1    
   117   60   61 1    
   118   61  116 1    
   119   61  117 1    
@<TRIPOS>SUBSTRUCTURE
     1 UNK         1 GROUP             0       ****    0 ROOT    
