@<TRIPOS>MOLECULE
3R8
117   119    1
SMALL
USER_CHARGES


@<TRIPOS>ATOM
      1 CA         11.4996  -28.0339  -42.4720 C.3       0 UNK        -0.2013 
      2 C          12.6900  -27.4762  -43.2379 C.2       0 UNK         0.4866 
      3 O          12.5725  -26.4303  -43.8770 O.2       0 UNK        -0.5176 
      4 N          13.8341  -28.1633  -43.1782 N.am      1 UNK        -0.4884 
      5 CA         15.0939  -27.7786  -43.8113 C.3       1 UNK         0.0853 
      6 C6         15.1286  -28.1698  -45.3116 C.3       10 UNK        -0.0849 
      7 S7         16.2829  -27.1403  -46.2789 S.3       10 UNK        -0.2776 
      8 C8         17.1149  -28.3854  -47.3149 C.3       10 UNK         0.0316 
      9 C9         18.3625  -28.9455  -46.6470 C.ar      10 UNK        -0.0863 
     10 C10        18.3038  -30.1207  -45.8903 C.ar      10 UNK        -0.1009 
     11 C11        19.4614  -30.6504  -45.3073 C.ar      10 UNK        -0.0712 
     12 C12        20.6823  -29.9946  -45.4972 C.ar      10 UNK        -0.0894 
     13 C13        20.7592  -28.8334  -46.2693 C.ar      10 UNK        -0.0745 
     14 C14        19.5930  -28.3075  -46.8314 C.ar      10 UNK        -0.0972 
     15 C15        22.1071  -28.1884  -46.5635 C.3       10 UNK         0.0209 
     16 S16        22.3587  -26.6322  -45.6555 S.3       10 UNK        -0.2568 
     17 C17        23.0557  -27.2022  -44.0697 C.3       10 UNK        -0.0983 
     18 CA         22.1749  -26.7605  -42.8784 C.3       3 UNK         0.0876 
     19 N          21.0092  -27.6293  -42.7250 N.am      3 UNK        -0.4424 
     20 C          19.7431  -27.2104  -42.7863 C.2       2 UNK         0.4918 
     21 O          19.4063  -26.0579  -43.0750 O.2       2 UNK        -0.4875 
     22 CA         18.6656  -28.2334  -42.4147 C.3       2 UNK         0.0481 
     23 CB         18.5247  -28.3147  -40.8804 C.3       2 UNK        -0.1831 
     24 N          17.4157  -27.8147  -43.0474 N.am      2 UNK        -0.4498 
     25 C          16.2314  -28.4325  -43.0091 C.2       1 UNK         0.5027 
     26 O          16.0016  -29.4690  -42.3806 O.2       1 UNK        -0.4969 
     27 C          22.9597  -26.7620  -41.5536 C.2       3 UNK         0.5005 
     28 O          22.9157  -27.7431  -40.8076 O.2       3 UNK        -0.5279 
     29 N          23.6429  -25.6440  -41.2696 N.am      4 UNK        -0.4463 
     30 CA         24.4484  -25.4576  -40.0590 C.3       4 UNK         0.0283 
     31 CB         24.4533  -23.9709  -39.6667 C.3       4 UNK        -0.1875 
     32 C          25.8858  -25.9692  -40.2359 C.2       4 UNK         0.4949 
     33 O          26.4349  -26.5721  -39.3128 O.2       4 UNK        -0.5039 
     34 N          26.4747  -25.7341  -41.4167 N.am      5 UNK        -0.4663 
     35 CA         27.8333  -26.1474  -41.7837 C.3       5 UNK         0.0242 
     36 CB         28.3623  -25.1972  -42.8749 C.3       5 UNK        -0.1982 
     37 C          27.8593  -27.6259  -42.2152 C.2       5 UNK         0.5017 
     38 O          28.1582  -27.9233  -43.3736 O.2       5 UNK        -0.5012 
     39 N          27.5029  -28.5063  -41.2681 N.am      6 UNK        -0.4439 
     40 CA         27.1746  -29.9304  -41.4194 C.3       6 UNK         0.0297 
     41 CB         28.3254  -30.7212  -42.0788 C.3       6 UNK        -0.2006 
     42 C          25.8311  -30.1401  -42.1471 C.2       6 UNK         0.4892 
     43 O          25.2601  -29.1923  -42.6868 O.2       6 UNK        -0.5089 
     44 N          25.3426  -31.3890  -42.1217 N.am      7 UNK        -0.4243 
     45 CA         24.0376  -31.8288  -42.6363 C.3       7 UNK         0.0196 
     46 CB         23.9551  -31.6755  -44.1698 C.3       7 UNK        -0.2007 
     47 C          22.8637  -31.1672  -41.8859 C.2       7 UNK         0.5020 
     48 O          21.9335  -30.6354  -42.4962 O.2       7 UNK        -0.5147 
     49 N          22.9176  -31.2388  -40.5504 N.am      8 UNK        -0.4734 
     50 CA         21.8614  -30.7818  -39.6464 C.3       8 UNK         0.0238 
     51 CB         22.4911  -30.3979  -38.2944 C.3       8 UNK        -0.1912 
     52 C          20.7673  -31.8576  -39.5148 C.2       8 UNK         0.5038 
     53 O          20.6089  -32.4486  -38.4444 O.2       8 UNK        -0.5046 
     54 N          20.0751  -32.1306  -40.6272 N.am      9 UNK        -0.4200 
     55 CA         18.9809  -33.1061  -40.7347 C.3       9 UNK         0.0839 
     56 C          17.7244  -32.7494  -39.8865 C.2       9 UNK         0.5513 
     57 N          16.8544  -33.7202  -39.6394 N.am      9 UNK        -0.7519 
     58 O          17.5215  -31.6149  -39.4592 O.2       9 UNK        -0.4960 
     59 C59        18.6356  -33.4146  -42.2182 C.3       10 UNK        -0.0876 
     60 S60        18.1752  -31.9384  -43.1904 S.3       10 UNK        -0.2414 
     61 C61        19.4181  -31.9567  -44.5199 C.3       10 UNK         0.0169 
     62 H62        11.1608  -27.3134  -41.7280 H         1 UNK         0.0903 
     63 H63        10.6740  -28.2327  -43.1549 H         1 UNK         0.0903 
     64 H64        11.7448  -28.9629  -41.9575 H         1 UNK         0.0903 
     65 H65        13.9143  -28.9971  -42.6066 H         1 UNK         0.3096 
     66 H66        15.1956  -26.6949  -43.7124 H         1 UNK         0.1121 
     67 H67        14.1444  -28.0257  -45.7600 H         1 UNK         0.0849 
     68 H68        15.3512  -29.2312  -45.4351 H         1 UNK         0.0849 
     69 H69        17.3897  -27.9175  -48.2616 H         1 UNK         0.0865 
     70 H70        16.4225  -29.1877  -47.5747 H         1 UNK         0.0865 
     71 H71        17.3596  -30.6309  -45.7588 H         1 UNK         0.1346 
     72 H72        21.5828  -30.4027  -45.0648 H         1 UNK         0.1412 
     73 H73        19.6491  -27.4098  -47.4323 H         1 UNK         0.1426 
     74 H74        22.1657  -27.9740  -47.6316 H         1 UNK         0.0716 
     75 H75        22.9270  -28.8774  -46.3545 H         1 UNK         0.0716 
     76 H76        24.0617  -26.7845  -43.9957 H         1 UNK         0.0695 
     77 H77        23.1789  -28.2864  -44.0743 H         1 UNK         0.0695 
     78 H78        21.8570  -25.7291  -43.0473 H         1 UNK         0.0983 
     79 H79        21.2226  -28.5867  -42.4643 H         1 UNK         0.3095 
     80 H80        18.9589  -29.2036  -42.8142 H         1 UNK         0.0454 
     81 H81        18.1264  -27.3889  -40.4643 H         1 UNK         0.0851 
     82 H82        19.4875  -28.4965  -40.4033 H         1 UNK         0.0851 
     83 H83        17.8671  -29.1295  -40.5794 H         1 UNK         0.0851 
     84 H84        17.5158  -26.9708  -43.5998 H         1 UNK         0.2976 
     85 H85        23.6120  -24.8722  -41.9209 H         1 UNK         0.3116 
     86 H86        23.9963  -26.0156  -39.2357 H         1 UNK         0.0646 
     87 H87        24.8901  -23.3436  -40.4447 H         1 UNK         0.0847 
     88 H88        25.0336  -23.8110  -38.7568 H         1 UNK         0.0847 
     89 H89        23.4435  -23.6094  -39.4713 H         1 UNK         0.0847 
     90 H90        25.9385  -25.2748  -42.1374 H         1 UNK         0.3040 
     91 H91        28.4870  -26.0496  -40.9137 H         1 UNK         0.1015 
     92 H92        27.7512  -25.2358  -43.7777 H         1 UNK         0.0786 
     93 H93        29.3822  -25.4596  -43.1595 H         1 UNK         0.0786 
     94 H94        28.3812  -24.1644  -42.5263 H         1 UNK         0.0786 
     95 H95        27.2248  -28.0972  -40.3808 H         1 UNK         0.3172 
     96 H96        27.0465  -30.3083  -40.4039 H         1 UNK         0.0595 
     97 H97        28.1670  -31.7962  -41.9890 H         1 UNK         0.0839 
     98 H98        29.2826  -30.4984  -41.6073 H         1 UNK         0.0839 
     99 H99        28.4160  -30.5008  -43.1428 H         1 UNK         0.0839 
    100 H100       25.8874  -32.1003  -41.6540 H         1 UNK         0.2998 
    101 H101       23.9689  -32.8959  -42.4189 H         1 UNK         0.0822 
    102 H102       23.0525  -32.1490  -44.5567 H         1 UNK         0.0787 
    103 H103       23.9356  -30.6294  -44.4754 H         1 UNK         0.0787 
    104 H104       24.8036  -32.1509  -44.6614 H         1 UNK         0.0787 
    105 H105       23.7044  -31.7053  -40.1234 H         1 UNK         0.3055 
    106 H106       21.3962  -29.8847  -40.0593 H         1 UNK         0.1106 
    107 H107       21.7307  -30.0422  -37.5980 H         1 UNK         0.0828 
    108 H108       22.9964  -31.2426  -37.8247 H         1 UNK         0.0828 
    109 H109       23.2182  -29.5942  -38.4151 H         1 UNK         0.0828 
    110 H110       20.2857  -31.6024  -41.4652 H         1 UNK         0.2931 
    111 H111       19.3707  -34.0318  -40.3063 H         1 UNK         0.0412 
    112 H112       17.0058  -34.6583  -39.9765 H         1 UNK         0.3472 
    113 H113       16.0309  -33.5107  -39.0967 H         1 UNK         0.3472 
    114 H114       17.8198  -34.1365  -42.2844 H         1 UNK         0.0970 
    115 H115       19.4880  -33.9060  -42.6893 H         1 UNK         0.0970 
    116 H116       19.1964  -32.7774  -45.2030 H         1 UNK         0.0612 
    117 H117       20.3956  -32.1689  -44.0852 H         1 UNK         0.0612 
@<TRIPOS>BOND
     1    1    2 1    
     2    1   62 1    
     3    1   63 1    
     4    1   64 1    
     5    2    3 2    
     6    2    4 am   BACKBONE|DICT|INTERRES
     7    4    5 1    
     8    4   65 1    
     9    5    6 1    
    10    5   25 1    
    11    5   66 1    
    12    6    7 1    
    13    6   67 1    
    14    6   68 1    
    15    7    8 1    
    16    8    9 1    
    17    8   69 1    
    18    8   70 1    
    19    9   10 ar   
    20    9   14 ar   
    21   10   11 ar   
    22   10   71 1    
    23   11   12 ar   
    24   11   61 1    
    25   12   13 ar   
    26   12   72 1    
    27   13   14 ar   
    28   13   15 1    
    29   14   73 1    
    30   15   16 1    
    31   15   74 1    
    32   15   75 1    
    33   16   17 1    
    34   17   18 1    
    35   17   76 1    
    36   17   77 1    
    37   18   19 1    
    38   18   27 1    
    39   18   78 1    
    40   19   20 am   BACKBONE|DICT|INTERRES
    41   19   79 1    
    42   20   21 2    
    43   20   22 1    
    44   22   23 1    
    45   22   24 1    
    46   22   80 1    
    47   23   81 1    
    48   23   82 1    
    49   23   83 1    
    50   24   25 am   BACKBONE|DICT|INTERRES
    51   24   84 1    
    52   25   26 2    
    53   27   28 2    
    54   27   29 am   BACKBONE|DICT|INTERRES
    55   29   30 1    
    56   29   85 1    
    57   30   31 1    
    58   30   32 1    
    59   30   86 1    
    60   31   87 1    
    61   31   88 1    
    62   31   89 1    
    63   32   33 2    
    64   32   34 am   BACKBONE|DICT|INTERRES
    65   34   35 1    
    66   34   90 1    
    67   35   36 1    
    68   35   37 1    
    69   35   91 1    
    70   36   92 1    
    71   36   93 1    
    72   36   94 1    
    73   37   38 2    
    74   37   39 am   BACKBONE|DICT|INTERRES
    75   39   40 1    
    76   39   95 1    
    77   40   41 1    
    78   40   42 1    
    79   40   96 1    
    80   41   97 1    
    81   41   98 1    
    82   41   99 1    
    83   42   43 2    
    84   42   44 am   BACKBONE|DICT|INTERRES
    85   44   45 1    
    86   44  100 1    
    87   45   46 1    
    88   45   47 1    
    89   45  101 1    
    90   46  102 1    
    91   46  103 1    
    92   46  104 1    
    93   47   48 2    
    94   47   49 am   BACKBONE|DICT|INTERRES
    95   49   50 1    
    96   49  105 1    
    97   50   51 1    
    98   50   52 1    
    99   50  106 1    
   100   51  107 1    
   101   51  108 1    
   102   51  109 1    
   103   52   53 2    
   104   52   54 am   BACKBONE|DICT|INTERRES
   105   54   55 1    
   106   54  110 1    
   107   55   56 1    
   108   55   59 1    
   109   55  111 1    
   110   56   57 am   BACKBONE|DICT|INTERRES
   111   56   58 2    
   112   57  112 1    
   113   57  113 1    
   114   59   60 1    
   115   59  114 1    
   116   59  115 1    
   117   60   61 1    
   118   61  116 1    
   119   61  117 1    
@<TRIPOS>SUBSTRUCTURE
     1 UNK         1 GROUP             0       ****    0 ROOT    
