@<TRIPOS>MOLECULE
3R8
117   119    1
SMALL
USER_CHARGES


@<TRIPOS>ATOM
      1 CA         15.7287  -28.1471  -41.5905 C.3       0 UNK        -0.2013 
      2 C          15.7617  -26.9306  -42.5039 C.2       0 UNK         0.4866 
      3 O          14.8450  -26.1098  -42.4579 O.2       0 UNK        -0.5176 
      4 N          16.8071  -26.8043  -43.3281 N.am      1 UNK        -0.4884 
      5 CA         17.0356  -25.6724  -44.2259 C.3       1 UNK         0.0853 
      6 C6         16.1889  -25.7390  -45.5285 C.3       10 UNK        -0.0849 
      7 S7         16.7135  -26.9560  -46.7835 S.3       10 UNK        -0.2776 
      8 C8         16.0558  -28.5353  -46.1350 C.3       10 UNK         0.0316 
      9 C9         17.1220  -29.4093  -45.4746 C.ar      10 UNK        -0.0863 
     10 C10        16.8124  -30.1681  -44.3427 C.ar      10 UNK        -0.1009 
     11 C11        17.7620  -31.0113  -43.7538 C.ar      10 UNK        -0.0712 
     12 C12        19.0482  -31.0726  -44.3147 C.ar      10 UNK        -0.0894 
     13 C13        19.3847  -30.3158  -45.4421 C.ar      10 UNK        -0.0745 
     14 C14        18.4025  -29.5064  -46.0235 C.ar      10 UNK        -0.0972 
     15 C15        20.7989  -30.4292  -46.0232 C.3       10 UNK         0.0209 
     16 S16        21.2507  -29.0980  -47.1973 S.3       10 UNK        -0.2568 
     17 C17        22.7854  -28.4031  -46.4961 C.3       10 UNK        -0.0983 
     18 CA         22.5955  -27.3417  -45.3757 C.3       3 UNK         0.0876 
     19 N          21.5132  -26.3927  -45.6654 N.am      3 UNK        -0.4424 
     20 C          21.5325  -25.0992  -45.3227 C.2       2 UNK         0.4918 
     21 O          22.4588  -24.5702  -44.7073 O.2       2 UNK        -0.4875 
     22 CA         20.3157  -24.2421  -45.7259 C.3       2 UNK         0.0481 
     23 CB         20.4331  -23.8158  -47.1982 C.3       2 UNK        -0.1831 
     24 N          18.9839  -24.8233  -45.4948 N.am      2 UNK        -0.4498 
     25 C          18.5531  -25.4301  -44.3788 C.2       1 UNK         0.5027 
     26 O          19.3014  -25.7639  -43.4590 O.2       1 UNK        -0.4969 
     27 C          22.4838  -28.0034  -43.9879 C.2       3 UNK         0.5005 
     28 O          23.4281  -28.6900  -43.5927 O.2       3 UNK        -0.5279 
     29 N          21.3695  -27.8200  -43.2614 N.am      4 UNK        -0.4463 
     30 CA         21.0751  -28.5510  -42.0225 C.3       4 UNK         0.0283 
     31 CB         19.6446  -28.2551  -41.5520 C.3       4 UNK        -0.1875 
     32 C          22.0717  -28.3124  -40.8803 C.2       4 UNK         0.4949 
     33 O          22.3012  -29.2286  -40.0913 O.2       4 UNK        -0.5039 
     34 N          22.6666  -27.1139  -40.8321 N.am      5 UNK        -0.4663 
     35 CA         23.7123  -26.7507  -39.8731 C.3       5 UNK         0.0242 
     36 CB         23.9050  -25.2259  -39.8895 C.3       5 UNK        -0.1982 
     37 C          25.0504  -27.4658  -40.1354 C.2       5 UNK         0.5017 
     38 O          25.7922  -27.7137  -39.1848 O.2       5 UNK        -0.5012 
     39 N          25.3325  -27.7844  -41.4064 N.am      6 UNK        -0.4439 
     40 CA         26.5285  -28.5125  -41.8335 C.3       6 UNK         0.0297 
     41 CB         26.9099  -28.0839  -43.2602 C.3       6 UNK        -0.2006 
     42 C          26.3106  -30.0307  -41.7635 C.2       6 UNK         0.4892 
     43 O          27.2066  -30.7534  -41.3271 O.2       6 UNK        -0.5089 
     44 N          25.1218  -30.4818  -42.1863 N.am      7 UNK        -0.4243 
     45 CA         24.7108  -31.8868  -42.2040 C.3       7 UNK         0.0196 
     46 CB         23.5077  -32.0285  -43.1525 C.3       7 UNK        -0.2007 
     47 C          24.3720  -32.4624  -40.8158 C.2       7 UNK         0.5020 
     48 O          24.2739  -33.6835  -40.6941 O.2       7 UNK        -0.5147 
     49 N          24.1693  -31.5899  -39.8149 N.am      8 UNK        -0.4734 
     50 CA         23.6655  -31.8840  -38.4632 C.3       8 UNK         0.0238 
     51 CB         24.6562  -32.7623  -37.6694 C.3       8 UNK        -0.1912 
     52 C          22.2348  -32.4586  -38.5067 C.2       8 UNK         0.5038 
     53 O          21.9235  -33.4295  -37.8142 O.2       8 UNK        -0.5046 
     54 N          21.4092  -31.8456  -39.3603 N.am      9 UNK        -0.4200 
     55 CA         20.0325  -32.2418  -39.6816 C.3       9 UNK         0.0839 
     56 C          18.9626  -31.4959  -38.8317 C.2       9 UNK         0.5513 
     57 N          19.3204  -30.4690  -38.0687 N.am      9 UNK        -0.7519 
     58 O          17.7912  -31.8620  -38.8489 O.2       9 UNK        -0.4960 
     59 C59        19.8051  -32.0688  -41.2051 C.3       10 UNK        -0.0876 
     60 S60        18.4940  -33.1047  -41.9296 S.3       10 UNK        -0.2414 
     61 C61        17.3300  -31.8255  -42.5253 C.3       10 UNK         0.0169 
     62 H62        14.8754  -28.7784  -41.8363 H         1 UNK         0.0903 
     63 H63        16.6321  -28.7478  -41.6747 H         1 UNK         0.0903 
     64 H64        15.6311  -27.8328  -40.5517 H         1 UNK         0.0903 
     65 H65        17.5561  -27.4820  -43.3167 H         1 UNK         0.3096 
     66 H66        16.6992  -24.7807  -43.6913 H         1 UNK         0.1121 
     67 H67        15.1422  -25.9235  -45.2821 H         1 UNK         0.0849 
     68 H68        16.1867  -24.7594  -46.0092 H         1 UNK         0.0849 
     69 H69        15.2348  -28.3368  -45.4445 H         1 UNK         0.0865 
     70 H70        15.6260  -29.0959  -46.9660 H         1 UNK         0.0865 
     71 H71        15.8157  -30.1178  -43.9258 H         1 UNK         0.1346 
     72 H72        19.8013  -31.7202  -43.8931 H         1 UNK         0.1412 
     73 H73        18.6206  -28.9478  -46.9209 H         1 UNK         0.1426 
     74 H74        20.8827  -31.3844  -46.5428 H         1 UNK         0.0716 
     75 H75        21.5231  -30.4621  -45.2088 H         1 UNK         0.0716 
     76 H76        23.4443  -29.2167  -46.1850 H         1 UNK         0.0695 
     77 H77        23.3068  -27.9278  -47.3282 H         1 UNK         0.0695 
     78 H78        23.5324  -26.7814  -45.3324 H         1 UNK         0.0983 
     79 H79        20.7184  -26.7630  -46.1673 H         1 UNK         0.3095 
     80 H80        20.3585  -23.3365  -45.1178 H         1 UNK         0.0454 
     81 H81        21.4058  -23.3647  -47.4002 H         1 UNK         0.0851 
     82 H82        20.3210  -24.6643  -47.8744 H         1 UNK         0.0851 
     83 H83        19.6773  -23.0755  -47.4605 H         1 UNK         0.0851 
     84 H84        18.2996  -24.6452  -46.2161 H         1 UNK         0.2976 
     85 H85        20.6612  -27.1687  -43.5878 H         1 UNK         0.3116 
     86 H86        21.1382  -29.6095  -42.2744 H         1 UNK         0.0646 
     87 H87        19.4014  -28.8101  -40.6453 H         1 UNK         0.0847 
     88 H88        18.9219  -28.5419  -42.3137 H         1 UNK         0.0847 
     89 H89        19.5038  -27.1990  -41.3215 H         1 UNK         0.0847 
     90 H90        22.4051  -26.4214  -41.5197 H         1 UNK         0.3040 
     91 H91        23.3762  -27.0440  -38.8757 H         1 UNK         0.1015 
     92 H92        22.9831  -24.7068  -39.6264 H         1 UNK         0.0786 
     93 H93        24.2246  -24.8685  -40.8694 H         1 UNK         0.0786 
     94 H94        24.6639  -24.9208  -39.1675 H         1 UNK         0.0786 
     95 H95        24.6315  -27.6074  -42.1148 H         1 UNK         0.3172 
     96 H96        27.3615  -28.2591  -41.1740 H         1 UNK         0.0595 
     97 H97        27.8122  -28.5992  -43.5924 H         1 UNK         0.0839 
     98 H98        27.1118  -27.0139  -43.3115 H         1 UNK         0.0839 
     99 H99        26.1227  -28.3110  -43.9803 H         1 UNK         0.0839 
    100 H100       24.4660  -29.8147  -42.5893 H         1 UNK         0.2998 
    101 H101       25.5352  -32.4797  -42.6061 H         1 UNK         0.0822 
    102 H102       22.6676  -31.4156  -42.8270 H         1 UNK         0.0787 
    103 H103       23.7664  -31.7236  -44.1668 H         1 UNK         0.0787 
    104 H104       23.1621  -33.0620  -43.2027 H         1 UNK         0.0787 
    105 H105       24.2308  -30.6066  -40.0459 H         1 UNK         0.3055 
    106 H106       23.5904  -30.9250  -37.9475 H         1 UNK         0.1106 
    107 H107       24.7336  -33.7679  -38.0832 H         1 UNK         0.0828 
    108 H108       25.6545  -32.3249  -37.6609 H         1 UNK         0.0828 
    109 H109       24.3385  -32.8648  -36.6311 H         1 UNK         0.0828 
    110 H110       21.7485  -30.9985  -39.8080 H         1 UNK         0.2931 
    111 H111       19.9259  -33.3030  -39.4486 H         1 UNK         0.0412 
    112 H112       18.6219  -30.0006  -37.5134 H         1 UNK         0.3472 
    113 H113       20.2797  -30.1626  -38.0375 H         1 UNK         0.3472 
    114 H114       19.6131  -31.0255  -41.4415 H         1 UNK         0.0970 
    115 H115       20.7164  -32.3341  -41.7425 H         1 UNK         0.0970 
    116 H116       16.3903  -32.3279  -42.7590 H         1 UNK         0.0612 
    117 H117       17.1133  -31.1437  -41.7022 H         1 UNK         0.0612 
@<TRIPOS>BOND
     1    1    2 1    
     2    1   62 1    
     3    1   63 1    
     4    1   64 1    
     5    2    3 2    
     6    2    4 am   BACKBONE|DICT|INTERRES
     7    4    5 1    
     8    4   65 1    
     9    5    6 1    
    10    5   25 1    
    11    5   66 1    
    12    6    7 1    
    13    6   67 1    
    14    6   68 1    
    15    7    8 1    
    16    8    9 1    
    17    8   69 1    
    18    8   70 1    
    19    9   10 ar   
    20    9   14 ar   
    21   10   11 ar   
    22   10   71 1    
    23   11   12 ar   
    24   11   61 1    
    25   12   13 ar   
    26   12   72 1    
    27   13   14 ar   
    28   13   15 1    
    29   14   73 1    
    30   15   16 1    
    31   15   74 1    
    32   15   75 1    
    33   16   17 1    
    34   17   18 1    
    35   17   76 1    
    36   17   77 1    
    37   18   19 1    
    38   18   27 1    
    39   18   78 1    
    40   19   20 am   BACKBONE|DICT|INTERRES
    41   19   79 1    
    42   20   21 2    
    43   20   22 1    
    44   22   23 1    
    45   22   24 1    
    46   22   80 1    
    47   23   81 1    
    48   23   82 1    
    49   23   83 1    
    50   24   25 am   BACKBONE|DICT|INTERRES
    51   24   84 1    
    52   25   26 2    
    53   27   28 2    
    54   27   29 am   BACKBONE|DICT|INTERRES
    55   29   30 1    
    56   29   85 1    
    57   30   31 1    
    58   30   32 1    
    59   30   86 1    
    60   31   87 1    
    61   31   88 1    
    62   31   89 1    
    63   32   33 2    
    64   32   34 am   BACKBONE|DICT|INTERRES
    65   34   35 1    
    66   34   90 1    
    67   35   36 1    
    68   35   37 1    
    69   35   91 1    
    70   36   92 1    
    71   36   93 1    
    72   36   94 1    
    73   37   38 2    
    74   37   39 am   BACKBONE|DICT|INTERRES
    75   39   40 1    
    76   39   95 1    
    77   40   41 1    
    78   40   42 1    
    79   40   96 1    
    80   41   97 1    
    81   41   98 1    
    82   41   99 1    
    83   42   43 2    
    84   42   44 am   BACKBONE|DICT|INTERRES
    85   44   45 1    
    86   44  100 1    
    87   45   46 1    
    88   45   47 1    
    89   45  101 1    
    90   46  102 1    
    91   46  103 1    
    92   46  104 1    
    93   47   48 2    
    94   47   49 am   BACKBONE|DICT|INTERRES
    95   49   50 1    
    96   49  105 1    
    97   50   51 1    
    98   50   52 1    
    99   50  106 1    
   100   51  107 1    
   101   51  108 1    
   102   51  109 1    
   103   52   53 2    
   104   52   54 am   BACKBONE|DICT|INTERRES
   105   54   55 1    
   106   54  110 1    
   107   55   56 1    
   108   55   59 1    
   109   55  111 1    
   110   56   57 am   BACKBONE|DICT|INTERRES
   111   56   58 2    
   112   57  112 1    
   113   57  113 1    
   114   59   60 1    
   115   59  114 1    
   116   59  115 1    
   117   60   61 1    
   118   61  116 1    
   119   61  117 1    
@<TRIPOS>SUBSTRUCTURE
     1 UNK         1 GROUP             0       ****    0 ROOT    
