@<TRIPOS>MOLECULE
3R8
117   119    1
SMALL
USER_CHARGES


@<TRIPOS>ATOM
      1 CA         16.4850  -24.5245  -48.0930 C.3       0 UNK        -0.2013 
      2 C          17.4891  -23.3963  -48.3192 C.2       0 UNK         0.4866 
      3 O          17.1900  -22.4870  -49.0913 O.2       0 UNK        -0.5176 
      4 N          18.6885  -23.3903  -47.7153 N.am      1 UNK        -0.4884 
      5 CA         19.2655  -24.2948  -46.7081 C.3       1 UNK         0.0853 
      6 C6         19.1790  -25.7992  -47.0788 C.3       10 UNK        -0.0849 
      7 S7         20.5231  -26.7959  -46.3518 S.3       10 UNK        -0.2776 
      8 C8         20.1256  -28.4572  -46.9956 C.3       10 UNK         0.0316 
      9 C9         19.3621  -29.2992  -45.9806 C.ar      10 UNK        -0.0863 
     10 C10        19.9635  -30.4150  -45.3896 C.ar      10 UNK        -0.1009 
     11 C11        19.2651  -31.1920  -44.4593 C.ar      10 UNK        -0.0712 
     12 C12        17.9654  -30.8287  -44.0929 C.ar      10 UNK        -0.0894 
     13 C13        17.3571  -29.7104  -44.6714 C.ar      10 UNK        -0.0745 
     14 C14        18.0480  -28.9744  -45.6368 C.ar      10 UNK        -0.0972 
     15 C15        15.9675  -29.2654  -44.2394 C.3       10 UNK         0.0209 
     16 S16        15.9974  -27.5854  -43.5267 S.3       10 UNK        -0.2568 
     17 C17        16.9575  -27.8470  -41.9969 C.3       10 UNK        -0.0983 
     18 CA         18.4886  -27.6189  -42.1639 C.3       3 UNK         0.0876 
     19 N          18.8654  -26.3055  -42.7073 N.am      3 UNK        -0.4424 
     20 C          18.5699  -25.0907  -42.2202 C.2       2 UNK         0.4918 
     21 O          17.7933  -24.8741  -41.2891 O.2       2 UNK        -0.4875 
     22 CA         19.2940  -23.9005  -42.8744 C.3       2 UNK         0.0481 
     23 CB         20.5896  -23.5884  -42.1068 C.3       2 UNK        -0.1831 
     24 N          19.6146  -24.1265  -44.2872 N.am      2 UNK        -0.4498 
     25 C          18.7342  -23.9950  -45.2886 C.2       1 UNK         0.5027 
     26 O          17.5631  -23.6495  -45.1194 O.2       1 UNK        -0.4969 
     27 C          19.2354  -27.9429  -40.8504 C.2       3 UNK         0.5005 
     28 O          19.6811  -27.0406  -40.1369 O.2       3 UNK        -0.5279 
     29 N          19.3633  -29.2458  -40.5563 N.am      4 UNK        -0.4463 
     30 CA         19.9442  -29.8746  -39.3577 C.3       4 UNK         0.0283 
     31 CB         19.1572  -29.5002  -38.0875 C.3       4 UNK        -0.1875 
     32 C          21.4539  -29.6464  -39.1557 C.2       4 UNK         0.4949 
     33 O          22.1815  -30.6082  -38.9131 O.2       4 UNK        -0.5039 
     34 N          21.9048  -28.3927  -39.2564 N.am      5 UNK        -0.4663 
     35 CA         23.3123  -27.9983  -39.1766 C.3       5 UNK         0.0242 
     36 CB         23.3967  -26.4983  -38.8531 C.3       5 UNK        -0.1982 
     37 C          24.0821  -28.3122  -40.4692 C.2       5 UNK         0.5017 
     38 O          25.2925  -28.5289  -40.4096 O.2       5 UNK        -0.5012 
     39 N          23.3666  -28.3365  -41.6031 N.am      6 UNK        -0.4439 
     40 CA         23.8624  -28.6214  -42.9510 C.3       6 UNK         0.0297 
     41 CB         22.6960  -28.4717  -43.9409 C.3       6 UNK        -0.2006 
     42 C          24.4972  -30.0191  -43.0380 C.2       6 UNK         0.4892 
     43 O          23.7739  -31.0128  -43.0930 O.2       6 UNK        -0.5089 
     44 N          25.8362  -30.0643  -42.9712 N.am      7 UNK        -0.4243 
     45 CA         26.6733  -31.2692  -42.8641 C.3       7 UNK         0.0196 
     46 CB         26.6151  -32.0918  -44.1695 C.3       7 UNK        -0.2007 
     47 C          26.3685  -32.1235  -41.6122 C.2       7 UNK         0.5020 
     48 O          26.6416  -33.3246  -41.6161 O.2       7 UNK        -0.5147 
     49 N          25.8082  -31.4877  -40.5696 N.am      8 UNK        -0.4734 
     50 CA         25.3353  -32.0742  -39.3098 C.3       8 UNK         0.0238 
     51 CB         26.5331  -32.5062  -38.4372 C.3       8 UNK        -0.1912 
     52 C          24.2943  -33.1989  -39.5040 C.2       8 UNK         0.5038 
     53 O          24.3589  -34.2136  -38.8059 O.2       8 UNK        -0.5046 
     54 N          23.3638  -33.0124  -40.4527 N.am      9 UNK        -0.4200 
     55 CA         22.2854  -33.9666  -40.7569 C.3       9 UNK         0.0839 
     56 C          21.2156  -34.1645  -39.6424 C.2       9 UNK         0.5513 
     57 N          21.1072  -33.2816  -38.6580 N.am      9 UNK        -0.7519 
     58 O          20.4837  -35.1509  -39.6659 O.2       9 UNK        -0.4960 
     59 C59        21.6496  -33.7028  -42.1455 C.3       10 UNK        -0.0876 
     60 S60        20.7412  -32.1244  -42.3006 S.3       10 UNK        -0.2414 
     61 C61        19.9053  -32.4438  -43.8818 C.3       10 UNK         0.0169 
     62 H62        16.7760  -25.4120  -48.6535 H         1 UNK         0.0903 
     63 H63        16.3824  -24.7870  -47.0427 H         1 UNK         0.0903 
     64 H64        15.4978  -24.2243  -48.4438 H         1 UNK         0.0903 
     65 H65        19.2844  -22.6001  -47.9223 H         1 UNK         0.3096 
     66 H66        20.3227  -24.0218  -46.7068 H         1 UNK         0.1121 
     67 H67        19.2480  -25.9169  -48.1616 H         1 UNK         0.0849 
     68 H68        18.2182  -26.2165  -46.7865 H         1 UNK         0.0849 
     69 H69        19.5494  -28.3813  -47.9188 H         1 UNK         0.0865 
     70 H70        21.0607  -28.9498  -47.2664 H         1 UNK         0.0865 
     71 H71        20.9748  -30.6886  -45.6590 H         1 UNK         0.1346 
     72 H72        17.4311  -31.4178  -43.3598 H         1 UNK         0.1412 
     73 H73        17.5610  -28.1258  -46.0905 H         1 UNK         0.1426 
     74 H74        15.5356  -29.9596  -43.5169 H         1 UNK         0.0716 
     75 H75        15.3065  -29.2705  -45.1071 H         1 UNK         0.0716 
     76 H76        16.7563  -28.8587  -41.6401 H         1 UNK         0.0695 
     77 H77        16.5520  -27.1831  -41.2319 H         1 UNK         0.0695 
     78 H78        18.8619  -28.3320  -42.8980 H         1 UNK         0.0983 
     79 H79        19.4997  -26.3402  -43.4910 H         1 UNK         0.3095 
     80 H80        18.6407  -23.0286  -42.7968 H         1 UNK         0.0454 
     81 H81        21.2953  -24.4193  -42.1451 H         1 UNK         0.0851 
     82 H82        20.3798  -23.3916  -41.0544 H         1 UNK         0.0851 
     83 H83        21.0865  -22.7045  -42.5069 H         1 UNK         0.0851 
     84 H84        20.5608  -24.4095  -44.5014 H         1 UNK         0.2976 
     85 H85        19.0186  -29.9101  -41.2366 H         1 UNK         0.3116 
     86 H86        19.8129  -30.9465  -39.5102 H         1 UNK         0.0646 
     87 H87        18.1019  -29.7541  -38.1861 H         1 UNK         0.0847 
     88 H88        19.5400  -30.0403  -37.2205 H         1 UNK         0.0847 
     89 H89        19.2260  -28.4358  -37.8610 H         1 UNK         0.0847 
     90 H90        21.2154  -27.6686  -39.4584 H         1 UNK         0.3040 
     91 H91        23.7874  -28.5547  -38.3653 H         1 UNK         0.1015 
     92 H92        22.9214  -25.8905  -39.6243 H         1 UNK         0.0786 
     93 H93        24.4352  -26.1734  -38.7734 H         1 UNK         0.0786 
     94 H94        22.9133  -26.2711  -37.9027 H         1 UNK         0.0786 
     95 H95        22.3738  -28.1837  -41.5160 H         1 UNK         0.3172 
     96 H96        24.6182  -27.8737  -43.2001 H         1 UNK         0.0595 
     97 H97        21.8723  -29.1436  -43.6964 H         1 UNK         0.0839 
     98 H98        23.0119  -28.7016  -44.9593 H         1 UNK         0.0839 
     99 H99        22.3079  -27.4535  -43.9452 H         1 UNK         0.0839 
    100 H100       26.3290  -29.1865  -42.8730 H         1 UNK         0.2998 
    101 H101       27.6986  -30.9170  -42.7416 H         1 UNK         0.0822 
    102 H102       27.3446  -32.9024  -44.1554 H         1 UNK         0.0787 
    103 H103       25.6333  -32.5420  -44.3200 H         1 UNK         0.0787 
    104 H104       26.8378  -31.4734  -45.0389 H         1 UNK         0.0787 
    105 H105       25.6477  -30.4891  -40.6669 H         1 UNK         0.3055 
    106 H106       24.8138  -31.2769  -38.7778 H         1 UNK         0.1106 
    107 H107       26.2020  -32.8304  -37.4498 H         1 UNK         0.0828 
    108 H108       27.0810  -33.3358  -38.8851 H         1 UNK         0.0828 
    109 H109       27.2323  -31.6836  -38.2877 H         1 UNK         0.0828 
    110 H110       23.3679  -32.1584  -40.9950 H         1 UNK         0.2931 
    111 H111       22.7772  -34.9379  -40.8412 H         1 UNK         0.0412 
    112 H112       20.4239  -33.4281  -37.9329 H         1 UNK         0.3472 
    113 H113       21.6679  -32.4351  -38.6711 H         1 UNK         0.3472 
    114 H114       20.9759  -34.5222  -42.4033 H         1 UNK         0.0970 
    115 H115       22.4304  -33.7146  -42.9079 H         1 UNK         0.0970 
    116 H116       19.1494  -33.2174  -43.7380 H         1 UNK         0.0612 
    117 H117       20.6269  -32.8485  -44.5935 H         1 UNK         0.0612 
@<TRIPOS>BOND
     1    1    2 1    
     2    1   62 1    
     3    1   63 1    
     4    1   64 1    
     5    2    3 2    
     6    2    4 am   BACKBONE|DICT|INTERRES
     7    4    5 1    
     8    4   65 1    
     9    5    6 1    
    10    5   25 1    
    11    5   66 1    
    12    6    7 1    
    13    6   67 1    
    14    6   68 1    
    15    7    8 1    
    16    8    9 1    
    17    8   69 1    
    18    8   70 1    
    19    9   10 ar   
    20    9   14 ar   
    21   10   11 ar   
    22   10   71 1    
    23   11   12 ar   
    24   11   61 1    
    25   12   13 ar   
    26   12   72 1    
    27   13   14 ar   
    28   13   15 1    
    29   14   73 1    
    30   15   16 1    
    31   15   74 1    
    32   15   75 1    
    33   16   17 1    
    34   17   18 1    
    35   17   76 1    
    36   17   77 1    
    37   18   19 1    
    38   18   27 1    
    39   18   78 1    
    40   19   20 am   BACKBONE|DICT|INTERRES
    41   19   79 1    
    42   20   21 2    
    43   20   22 1    
    44   22   23 1    
    45   22   24 1    
    46   22   80 1    
    47   23   81 1    
    48   23   82 1    
    49   23   83 1    
    50   24   25 am   BACKBONE|DICT|INTERRES
    51   24   84 1    
    52   25   26 2    
    53   27   28 2    
    54   27   29 am   BACKBONE|DICT|INTERRES
    55   29   30 1    
    56   29   85 1    
    57   30   31 1    
    58   30   32 1    
    59   30   86 1    
    60   31   87 1    
    61   31   88 1    
    62   31   89 1    
    63   32   33 2    
    64   32   34 am   BACKBONE|DICT|INTERRES
    65   34   35 1    
    66   34   90 1    
    67   35   36 1    
    68   35   37 1    
    69   35   91 1    
    70   36   92 1    
    71   36   93 1    
    72   36   94 1    
    73   37   38 2    
    74   37   39 am   BACKBONE|DICT|INTERRES
    75   39   40 1    
    76   39   95 1    
    77   40   41 1    
    78   40   42 1    
    79   40   96 1    
    80   41   97 1    
    81   41   98 1    
    82   41   99 1    
    83   42   43 2    
    84   42   44 am   BACKBONE|DICT|INTERRES
    85   44   45 1    
    86   44  100 1    
    87   45   46 1    
    88   45   47 1    
    89   45  101 1    
    90   46  102 1    
    91   46  103 1    
    92   46  104 1    
    93   47   48 2    
    94   47   49 am   BACKBONE|DICT|INTERRES
    95   49   50 1    
    96   49  105 1    
    97   50   51 1    
    98   50   52 1    
    99   50  106 1    
   100   51  107 1    
   101   51  108 1    
   102   51  109 1    
   103   52   53 2    
   104   52   54 am   BACKBONE|DICT|INTERRES
   105   54   55 1    
   106   54  110 1    
   107   55   56 1    
   108   55   59 1    
   109   55  111 1    
   110   56   57 am   BACKBONE|DICT|INTERRES
   111   56   58 2    
   112   57  112 1    
   113   57  113 1    
   114   59   60 1    
   115   59  114 1    
   116   59  115 1    
   117   60   61 1    
   118   61  116 1    
   119   61  117 1    
@<TRIPOS>SUBSTRUCTURE
     1 UNK         1 GROUP             0       ****    0 ROOT    
