@<TRIPOS>MOLECULE
3R8
117   119    1
SMALL
USER_CHARGES


@<TRIPOS>ATOM
      1 CA         22.7577  -27.0967  -47.0719 C.3       0 UNK        -0.2013 
      2 C          21.5118  -27.3159  -46.2286 C.2       0 UNK         0.4866 
      3 O          21.6082  -27.8509  -45.1246 O.2       0 UNK        -0.5176 
      4 N          20.3453  -26.8919  -46.7348 N.am      1 UNK        -0.4884 
      5 CA         19.0323  -27.0695  -46.0966 C.3       1 UNK         0.0853 
      6 C6         17.8691  -26.9955  -47.1160 C.3       10 UNK        -0.0849 
      7 S7         17.8257  -28.4758  -48.1828 S.3       10 UNK        -0.2776 
      8 C8         16.4831  -29.4500  -47.4188 C.3       10 UNK         0.0316 
      9 C9         16.9065  -30.1006  -46.1063 C.ar      10 UNK        -0.0863 
     10 C10        17.4830  -31.3757  -46.1072 C.ar      10 UNK        -0.1009 
     11 C11        17.8493  -31.9861  -44.9039 C.ar      10 UNK        -0.0712 
     12 C12        17.6393  -31.3138  -43.6990 C.ar      10 UNK        -0.0894 
     13 C13        17.1105  -30.0206  -43.6823 C.ar      10 UNK        -0.0745 
     14 C14        16.7159  -29.4347  -44.8898 C.ar      10 UNK        -0.0972 
     15 C15        16.9779  -29.2352  -42.3771 C.3       10 UNK         0.0209 
     16 S16        18.3194  -29.5183  -41.1594 S.3       10 UNK        -0.2568 
     17 C17        19.8570  -29.3371  -42.1368 C.3       10 UNK        -0.0983 
     18 CA         20.6873  -28.0715  -41.8235 C.3       3 UNK         0.0876 
     19 N          19.9768  -26.8386  -42.1651 N.am      3 UNK        -0.4424 
     20 C          20.5282  -25.6193  -42.2415 C.2       2 UNK         0.4918 
     21 O          21.5683  -25.2996  -41.6645 O.2       2 UNK        -0.4875 
     22 CA         19.8429  -24.6359  -43.2153 C.3       2 UNK         0.0481 
     23 CB         20.6107  -23.3083  -43.3486 C.3       2 UNK        -0.1831 
     24 N          19.7322  -25.2633  -44.5402 N.am      2 UNK        -0.4498 
     25 C          18.7866  -26.1517  -44.8789 C.2       1 UNK         0.5027 
     26 O          17.7759  -26.3264  -44.1984 O.2       1 UNK        -0.4969 
     27 C          21.3249  -28.0961  -40.4266 C.2       3 UNK         0.5005 
     28 O          22.4022  -28.6742  -40.2814 O.2       3 UNK        -0.5279 
     29 N          20.7059  -27.4119  -39.4551 N.am      4 UNK        -0.4463 
     30 CA         21.2122  -27.2372  -38.0895 C.3       4 UNK         0.0283 
     31 CB         20.1582  -26.4918  -37.2552 C.3       4 UNK        -0.1875 
     32 C          22.5732  -26.5165  -38.0020 C.2       4 UNK         0.4949 
     33 O          23.2677  -26.6764  -36.9981 O.2       4 UNK        -0.5039 
     34 N          22.9338  -25.7551  -39.0431 N.am      5 UNK        -0.4663 
     35 CA         24.2174  -25.0702  -39.1887 C.3       5 UNK         0.0242 
     36 CB         23.9821  -23.5532  -39.0607 C.3       5 UNK        -0.1982 
     37 C          24.8971  -25.4398  -40.5210 C.2       5 UNK         0.5017 
     38 O          25.7318  -24.6692  -40.9992 O.2       5 UNK        -0.5012 
     39 N          24.5358  -26.5892  -41.1103 N.am      6 UNK        -0.4439 
     40 CA         25.0230  -27.0373  -42.4129 C.3       6 UNK         0.0297 
     41 CB         24.2404  -26.3446  -43.5491 C.3       6 UNK        -0.2006 
     42 C          25.0236  -28.5713  -42.4762 C.2       6 UNK         0.4892 
     43 O          25.8628  -29.1869  -41.8185 O.2       6 UNK        -0.5089 
     44 N          24.1309  -29.1577  -43.2888 N.am      7 UNK        -0.4243 
     45 CA         24.1264  -30.5765  -43.6642 C.3       7 UNK         0.0196 
     46 CB         23.0581  -30.7990  -44.7462 C.3       7 UNK        -0.2007 
     47 C          23.9360  -31.5869  -42.5176 C.2       7 UNK         0.5020 
     48 O          24.3707  -32.7291  -42.6646 O.2       7 UNK        -0.5147 
     49 N          23.2781  -31.1764  -41.4225 N.am      8 UNK        -0.4734 
     50 CA         22.9865  -31.9527  -40.2053 C.3       8 UNK         0.0238 
     51 CB         24.2931  -32.2975  -39.4604 C.3       8 UNK        -0.1912 
     52 C          22.0890  -33.1949  -40.4032 C.2       8 UNK         0.5038 
     53 O          21.9537  -33.9897  -39.4716 O.2       8 UNK        -0.5046 
     54 N          21.4782  -33.3401  -41.5857 N.am      9 UNK        -0.4200 
     55 CA         20.5719  -34.4389  -41.9550 C.3       9 UNK         0.0839 
     56 C          19.1345  -34.3374  -41.3646 C.2       9 UNK         0.5513 
     57 N          18.7714  -33.2710  -40.6624 N.am      9 UNK        -0.7519 
     58 O          18.3368  -35.2555  -41.5353 O.2       9 UNK        -0.4960 
     59 C59        20.5761  -34.6957  -43.4887 C.3       10 UNK        -0.0876 
     60 S60        20.2731  -33.2029  -44.4968 S.3       10 UNK        -0.2414 
     61 C61        18.5015  -33.3578  -44.8830 C.3       10 UNK         0.0169 
     62 H62        23.3730  -27.9958  -47.0741 H         1 UNK         0.0903 
     63 H63        22.5099  -26.8566  -48.1055 H         1 UNK         0.0903 
     64 H64        23.3492  -26.2784  -46.6636 H         1 UNK         0.0903 
     65 H65        20.3300  -26.4602  -47.6484 H         1 UNK         0.3096 
     66 H66        19.0306  -28.0762  -45.6720 H         1 UNK         0.1121 
     67 H67        16.9008  -26.8982  -46.6221 H         1 UNK         0.0849 
     68 H68        17.9661  -26.1085  -47.7442 H         1 UNK         0.0849 
     69 H69        15.6057  -28.8194  -47.2668 H         1 UNK         0.0865 
     70 H70        16.1722  -30.2228  -48.1236 H         1 UNK         0.0865 
     71 H71        17.6484  -31.8907  -47.0437 H         1 UNK         0.1346 
     72 H72        17.9354  -31.7863  -42.7741 H         1 UNK         0.1412 
     73 H73        16.2804  -28.4450  -44.8838 H         1 UNK         0.1426 
     74 H74        16.0281  -29.4990  -41.9108 H         1 UNK         0.0716 
     75 H75        16.9283  -28.1662  -42.5816 H         1 UNK         0.0716 
     76 H76        20.4599  -30.2325  -41.9761 H         1 UNK         0.0695 
     77 H77        19.6257  -29.3437  -43.2022 H         1 UNK         0.0695 
     78 H78        21.5357  -28.0995  -42.5084 H         1 UNK         0.0983 
     79 H79        19.0921  -26.9675  -42.6402 H         1 UNK         0.3095 
     80 H80        18.8484  -24.4133  -42.8235 H         1 UNK         0.0454 
     81 H81        20.6886  -22.8046  -42.3843 H         1 UNK         0.0851 
     82 H82        21.6256  -23.4624  -43.7178 H         1 UNK         0.0851 
     83 H83        20.1053  -22.6245  -44.0305 H         1 UNK         0.0851 
     84 H84        20.5488  -25.2123  -45.1323 H         1 UNK         0.2976 
     85 H85        19.8342  -26.9557  -39.6840 H         1 UNK         0.3116 
     86 H86        21.3471  -28.2328  -37.6618 H         1 UNK         0.0646 
     87 H87        20.4896  -26.3740  -36.2224 H         1 UNK         0.0847 
     88 H88        19.2134  -27.0350  -37.2290 H         1 UNK         0.0847 
     89 H89        19.9635  -25.4937  -37.6497 H         1 UNK         0.0847 
     90 H90        22.3086  -25.6792  -39.8415 H         1 UNK         0.3040 
     91 H91        24.9071  -25.3793  -38.4004 H         1 UNK         0.1015 
     92 H92        23.5070  -23.3053  -38.1114 H         1 UNK         0.0786 
     93 H93        23.3444  -23.1793  -39.8630 H         1 UNK         0.0786 
     94 H94        24.9221  -23.0015  -39.1031 H         1 UNK         0.0786 
     95 H95        23.8894  -27.2110  -40.6345 H         1 UNK         0.3172 
     96 H96        26.0707  -26.7455  -42.5136 H         1 UNK         0.0595 
     97 H97        24.5725  -26.6927  -44.5277 H         1 UNK         0.0839 
     98 H98        24.3928  -25.2655  -43.5285 H         1 UNK         0.0839 
     99 H99        23.1689  -26.5195  -43.4731 H         1 UNK         0.0839 
    100 H100       23.4785  -28.5689  -43.7912 H         1 UNK         0.2998 
    101 H101       25.1014  -30.7897  -44.1072 H         1 UNK         0.0822 
    102 H102       22.0588  -30.5539  -44.3837 H         1 UNK         0.0787 
    103 H103       23.2515  -30.1889  -45.6283 H         1 UNK         0.0787 
    104 H104       23.0411  -31.8393  -45.0744 H         1 UNK         0.0787 
    105 H105       23.0054  -30.1996  -41.3650 H         1 UNK         0.3055 
    106 H106       22.4141  -31.2854  -39.5592 H         1 UNK         0.1106 
    107 H107       24.8976  -33.0164  -40.0140 H         1 UNK         0.0828 
    108 H108       24.8994  -31.4068  -39.2944 H         1 UNK         0.0828 
    109 H109       24.0866  -32.7328  -38.4820 H         1 UNK         0.0828 
    110 H110       21.6428  -32.6498  -42.3029 H         1 UNK         0.2931 
    111 H111       20.9839  -35.3432  -41.5027 H         1 UNK         0.0412 
    112 H112       19.4158  -32.5137  -40.5074 H         1 UNK         0.3472 
    113 H113       17.8413  -33.2286  -40.2771 H         1 UNK         0.3472 
    114 H114       21.5565  -35.0783  -43.7764 H         1 UNK         0.0970 
    115 H115       19.8733  -35.4847  -43.7633 H         1 UNK         0.0970 
    116 H116       18.0002  -33.9771  -44.1382 H         1 UNK         0.0612 
    117 H117       18.3841  -33.8655  -45.8414 H         1 UNK         0.0612 
@<TRIPOS>BOND
     1    1    2 1    
     2    1   62 1    
     3    1   63 1    
     4    1   64 1    
     5    2    3 2    
     6    2    4 am   BACKBONE|DICT|INTERRES
     7    4    5 1    
     8    4   65 1    
     9    5    6 1    
    10    5   25 1    
    11    5   66 1    
    12    6    7 1    
    13    6   67 1    
    14    6   68 1    
    15    7    8 1    
    16    8    9 1    
    17    8   69 1    
    18    8   70 1    
    19    9   10 ar   
    20    9   14 ar   
    21   10   11 ar   
    22   10   71 1    
    23   11   12 ar   
    24   11   61 1    
    25   12   13 ar   
    26   12   72 1    
    27   13   14 ar   
    28   13   15 1    
    29   14   73 1    
    30   15   16 1    
    31   15   74 1    
    32   15   75 1    
    33   16   17 1    
    34   17   18 1    
    35   17   76 1    
    36   17   77 1    
    37   18   19 1    
    38   18   27 1    
    39   18   78 1    
    40   19   20 am   BACKBONE|DICT|INTERRES
    41   19   79 1    
    42   20   21 2    
    43   20   22 1    
    44   22   23 1    
    45   22   24 1    
    46   22   80 1    
    47   23   81 1    
    48   23   82 1    
    49   23   83 1    
    50   24   25 am   BACKBONE|DICT|INTERRES
    51   24   84 1    
    52   25   26 2    
    53   27   28 2    
    54   27   29 am   BACKBONE|DICT|INTERRES
    55   29   30 1    
    56   29   85 1    
    57   30   31 1    
    58   30   32 1    
    59   30   86 1    
    60   31   87 1    
    61   31   88 1    
    62   31   89 1    
    63   32   33 2    
    64   32   34 am   BACKBONE|DICT|INTERRES
    65   34   35 1    
    66   34   90 1    
    67   35   36 1    
    68   35   37 1    
    69   35   91 1    
    70   36   92 1    
    71   36   93 1    
    72   36   94 1    
    73   37   38 2    
    74   37   39 am   BACKBONE|DICT|INTERRES
    75   39   40 1    
    76   39   95 1    
    77   40   41 1    
    78   40   42 1    
    79   40   96 1    
    80   41   97 1    
    81   41   98 1    
    82   41   99 1    
    83   42   43 2    
    84   42   44 am   BACKBONE|DICT|INTERRES
    85   44   45 1    
    86   44  100 1    
    87   45   46 1    
    88   45   47 1    
    89   45  101 1    
    90   46  102 1    
    91   46  103 1    
    92   46  104 1    
    93   47   48 2    
    94   47   49 am   BACKBONE|DICT|INTERRES
    95   49   50 1    
    96   49  105 1    
    97   50   51 1    
    98   50   52 1    
    99   50  106 1    
   100   51  107 1    
   101   51  108 1    
   102   51  109 1    
   103   52   53 2    
   104   52   54 am   BACKBONE|DICT|INTERRES
   105   54   55 1    
   106   54  110 1    
   107   55   56 1    
   108   55   59 1    
   109   55  111 1    
   110   56   57 am   BACKBONE|DICT|INTERRES
   111   56   58 2    
   112   57  112 1    
   113   57  113 1    
   114   59   60 1    
   115   59  114 1    
   116   59  115 1    
   117   60   61 1    
   118   61  116 1    
   119   61  117 1    
@<TRIPOS>SUBSTRUCTURE
     1 UNK         1 GROUP             0       ****    0 ROOT    
