@<TRIPOS>MOLECULE
3R8
117   119    1
SMALL
USER_CHARGES


@<TRIPOS>ATOM
      1 CA         15.8854  -22.6813  -45.5527 C.3       0 UNK        -0.2013 
      2 C          16.8508  -23.7523  -46.0369 C.2       0 UNK         0.4866 
      3 O          17.6352  -23.5015  -46.9518 O.2       0 UNK        -0.5176 
      4 N          16.8009  -24.9452  -45.4298 N.am      1 UNK        -0.4884 
      5 CA         17.6380  -26.1021  -45.7828 C.3       1 UNK         0.0853 
      6 C6         17.0717  -27.4268  -45.2122 C.3       10 UNK        -0.0849 
      7 S7         15.3004  -27.7040  -45.5795 S.3       10 UNK        -0.2776 
      8 C8         15.1833  -29.5276  -45.7077 C.3       10 UNK         0.0316 
      9 C9         15.9765  -30.2793  -44.6403 C.ar      10 UNK        -0.0863 
     10 C10        16.8009  -31.3467  -45.0140 C.ar      10 UNK        -0.1009 
     11 C11        17.6057  -31.9880  -44.0680 C.ar      10 UNK        -0.0712 
     12 C12        17.5717  -31.5691  -42.7371 C.ar      10 UNK        -0.0894 
     13 C13        16.7661  -30.4938  -42.3547 C.ar      10 UNK        -0.0745 
     14 C14        15.9397  -29.8803  -43.2989 C.ar      10 UNK        -0.0972 
     15 C15        16.8800  -29.9233  -40.9498 C.3       10 UNK         0.0209 
     16 S16        17.9654  -28.4537  -40.9264 S.3       10 UNK        -0.2568 
     17 C17        19.4747  -29.1027  -41.7320 C.3       10 UNK        -0.0983 
     18 CA         20.6715  -28.1272  -41.7574 C.3       3 UNK         0.0876 
     19 N          20.3302  -26.8633  -42.4199 N.am      3 UNK        -0.4424 
     20 C          21.2085  -25.9810  -42.9144 C.2       2 UNK         0.4918 
     21 O          22.4265  -26.0822  -42.7586 O.2       2 UNK        -0.4875 
     22 CA         20.6257  -24.7734  -43.6766 C.3       2 UNK         0.0481 
     23 CB         21.6381  -24.1559  -44.6639 C.3       2 UNK        -0.1831 
     24 N          19.3433  -25.0610  -44.3375 N.am      2 UNK        -0.4498 
     25 C          19.1075  -25.9363  -45.3313 C.2       1 UNK         0.5027 
     26 O          19.9800  -26.6204  -45.8669 O.2       1 UNK        -0.4969 
     27 C          21.3336  -27.9781  -40.3712 C.2       3 UNK         0.5005 
     28 O          21.8586  -28.9640  -39.8513 O.2       3 UNK        -0.5279 
     29 N          21.3217  -26.7634  -39.8043 N.am      4 UNK        -0.4463 
     30 CA         22.0962  -26.4018  -38.6160 C.3       4 UNK         0.0283 
     31 CB         21.5183  -25.1178  -37.9998 C.3       4 UNK        -0.1875 
     32 C          23.5932  -26.2227  -38.9306 C.2       4 UNK         0.4949 
     33 O          24.4249  -26.5118  -38.0706 O.2       4 UNK        -0.5039 
     34 N          23.9086  -25.7526  -40.1466 N.am      5 UNK        -0.4663 
     35 CA         25.2745  -25.5961  -40.6486 C.3       5 UNK         0.0242 
     36 CB         25.3434  -24.3896  -41.6010 C.3       5 UNK        -0.1982 
     37 C          25.7297  -26.8829  -41.3473 C.2       5 UNK         0.5017 
     38 O          26.7660  -27.4421  -40.9867 O.2       5 UNK        -0.5012 
     39 N          24.9179  -27.3618  -42.2993 N.am      6 UNK        -0.4439 
     40 CA         25.0759  -28.6484  -42.9757 C.3       6 UNK         0.0297 
     41 CB         24.4413  -28.5551  -44.3764 C.3       6 UNK        -0.2006 
     42 C          24.4416  -29.7496  -42.1111 C.2       6 UNK         0.4892 
     43 O          23.3901  -30.2725  -42.4794 O.2       6 UNK        -0.5089 
     44 N          25.0800  -30.0105  -40.9590 N.am      7 UNK        -0.4243 
     45 CA         24.6548  -30.8119  -39.8018 C.3       7 UNK         0.0196 
     46 CB         25.9087  -31.2271  -39.0112 C.3       7 UNK        -0.2007 
     47 C          23.7660  -32.0285  -40.1202 C.2       7 UNK         0.5020 
     48 O          24.2839  -33.1160  -40.3824 O.2       7 UNK        -0.5147 
     49 N          22.4439  -31.8009  -40.1199 N.am      8 UNK        -0.4734 
     50 CA         21.3693  -32.7642  -40.4081 C.3       8 UNK         0.0238 
     51 CB         21.2392  -33.7730  -39.2476 C.3       8 UNK        -0.1912 
     52 C          21.4904  -33.4622  -41.7822 C.2       8 UNK         0.5038 
     53 O          21.0303  -34.5959  -41.9292 O.2       8 UNK        -0.5046 
     54 N          22.1168  -32.7824  -42.7517 N.am      9 UNK        -0.4200 
     55 CA         22.4978  -33.2922  -44.0797 C.3       9 UNK         0.0839 
     56 C          23.6165  -34.3786  -44.0522 C.2       9 UNK         0.5513 
     57 N          24.3540  -34.5543  -42.9615 N.am      9 UNK        -0.7519 
     58 O          23.8466  -35.0586  -45.0492 O.2       9 UNK        -0.4960 
     59 C59        21.2885  -33.6979  -44.9738 C.3       10 UNK        -0.0876 
     60 S60        20.0864  -32.3410  -45.1792 S.3       10 UNK        -0.2414 
     61 C61        18.5734  -33.0798  -44.4895 C.3       10 UNK         0.0169 
     62 H62        15.2241  -22.3782  -46.3640 H         1 UNK         0.0903 
     63 H63        15.2678  -23.0312  -44.7259 H         1 UNK         0.0903 
     64 H64        16.4367  -21.8042  -45.2166 H         1 UNK         0.0903 
     65 H65        16.1098  -25.1120  -44.7113 H         1 UNK         0.3096 
     66 H66        17.6498  -26.1841  -46.8720 H         1 UNK         0.1121 
     67 H67        17.6469  -28.2689  -45.6025 H         1 UNK         0.0849 
     68 H68        17.1911  -27.4565  -44.1275 H         1 UNK         0.0849 
     69 H69        14.1348  -29.8206  -45.6415 H         1 UNK         0.0865 
     70 H70        15.5196  -29.8170  -46.7046 H         1 UNK         0.0865 
     71 H71        16.8528  -31.6545  -46.0496 H         1 UNK         0.1346 
     72 H72        18.2248  -32.0358  -42.0129 H         1 UNK         0.1412 
     73 H73        15.3282  -29.0384  -43.0038 H         1 UNK         0.1426 
     74 H74        17.2720  -30.6720  -40.2596 H         1 UNK         0.0716 
     75 H75        15.8919  -29.6473  -40.5787 H         1 UNK         0.0716 
     76 H76        19.2256  -29.3526  -42.7644 H         1 UNK         0.0695 
     77 H77        19.7547  -30.0446  -41.2590 H         1 UNK         0.0695 
     78 H78        21.4346  -28.5940  -42.3826 H         1 UNK         0.0983 
     79 H79        19.3445  -26.6930  -42.5544 H         1 UNK         0.3095 
     80 H80        20.4095  -24.0192  -42.9189 H         1 UNK         0.0454 
     81 H81        21.9739  -24.8797  -45.4070 H         1 UNK         0.0851 
     82 H82        22.5252  -23.7962  -44.1411 H         1 UNK         0.0851 
     83 H83        21.2088  -23.3053  -45.1932 H         1 UNK         0.0851 
     84 H84        18.5457  -24.5493  -43.9859 H         1 UNK         0.2976 
     85 H85        20.8252  -26.0225  -40.2766 H         1 UNK         0.3116 
     86 H86        22.0020  -27.2041  -37.8807 H         1 UNK         0.0646 
     87 H87        21.5790  -24.2731  -38.6872 H         1 UNK         0.0847 
     88 H88        22.0636  -24.8412  -37.0963 H         1 UNK         0.0847 
     89 H89        20.4734  -25.2482  -37.7176 H         1 UNK         0.0847 
     90 H90        23.1655  -25.5970  -40.8157 H         1 UNK         0.3040 
     91 H91        25.9551  -25.4068  -39.8151 H         1 UNK         0.1015 
     92 H92        24.6756  -24.5000  -42.4561 H         1 UNK         0.0786 
     93 H93        26.3538  -24.2596  -41.9911 H         1 UNK         0.0786 
     94 H94        25.0747  -23.4669  -41.0865 H         1 UNK         0.0786 
     95 H95        24.0574  -26.8552  -42.5004 H         1 UNK         0.3172 
     96 H96        26.1366  -28.8775  -43.0992 H         1 UNK         0.0595 
     97 H97        23.3796  -28.3088  -44.3264 H         1 UNK         0.0839 
     98 H98        24.5314  -29.5026  -44.9091 H         1 UNK         0.0839 
     99 H99        24.9312  -27.7933  -44.9827 H         1 UNK         0.0839 
    100 H100       25.9202  -29.4666  -40.8046 H         1 UNK         0.2998 
    101 H101       24.0800  -30.1464  -39.1561 H         1 UNK         0.0822 
    102 H102       26.4568  -30.3573  -38.6483 H         1 UNK         0.0787 
    103 H103       25.6418  -31.8266  -38.1398 H         1 UNK         0.0787 
    104 H104       26.5894  -31.8226  -39.6210 H         1 UNK         0.0787 
    105 H105       22.1471  -30.8372  -39.9688 H         1 UNK         0.3055 
    106 H106       20.4439  -32.1893  -40.4480 H         1 UNK         0.1106 
    107 H107       20.3639  -34.4110  -39.3760 H         1 UNK         0.0828 
    108 H108       22.1107  -34.4252  -39.1821 H         1 UNK         0.0828 
    109 H109       21.1277  -33.2645  -38.2901 H         1 UNK         0.0828 
    110 H110       22.4873  -31.8593  -42.5315 H         1 UNK         0.2931 
    111 H111       22.9721  -32.4396  -44.5670 H         1 UNK         0.0412 
    112 H112       24.1986  -34.0004  -42.1241 H         1 UNK         0.3472 
    113 H113       25.0788  -35.2538  -42.9678 H         1 UNK         0.3472 
    114 H114       20.7972  -34.5875  -44.5776 H         1 UNK         0.0970 
    115 H115       21.6321  -33.9714  -45.9728 H         1 UNK         0.0970 
    116 H116       18.1127  -33.7315  -45.2331 H         1 UNK         0.0612 
    117 H117       18.8225  -33.7076  -43.6324 H         1 UNK         0.0612 
@<TRIPOS>BOND
     1    1    2 1    
     2    1   62 1    
     3    1   63 1    
     4    1   64 1    
     5    2    3 2    
     6    2    4 am   BACKBONE|DICT|INTERRES
     7    4    5 1    
     8    4   65 1    
     9    5    6 1    
    10    5   25 1    
    11    5   66 1    
    12    6    7 1    
    13    6   67 1    
    14    6   68 1    
    15    7    8 1    
    16    8    9 1    
    17    8   69 1    
    18    8   70 1    
    19    9   10 ar   
    20    9   14 ar   
    21   10   11 ar   
    22   10   71 1    
    23   11   12 ar   
    24   11   61 1    
    25   12   13 ar   
    26   12   72 1    
    27   13   14 ar   
    28   13   15 1    
    29   14   73 1    
    30   15   16 1    
    31   15   74 1    
    32   15   75 1    
    33   16   17 1    
    34   17   18 1    
    35   17   76 1    
    36   17   77 1    
    37   18   19 1    
    38   18   27 1    
    39   18   78 1    
    40   19   20 am   BACKBONE|DICT|INTERRES
    41   19   79 1    
    42   20   21 2    
    43   20   22 1    
    44   22   23 1    
    45   22   24 1    
    46   22   80 1    
    47   23   81 1    
    48   23   82 1    
    49   23   83 1    
    50   24   25 am   BACKBONE|DICT|INTERRES
    51   24   84 1    
    52   25   26 2    
    53   27   28 2    
    54   27   29 am   BACKBONE|DICT|INTERRES
    55   29   30 1    
    56   29   85 1    
    57   30   31 1    
    58   30   32 1    
    59   30   86 1    
    60   31   87 1    
    61   31   88 1    
    62   31   89 1    
    63   32   33 2    
    64   32   34 am   BACKBONE|DICT|INTERRES
    65   34   35 1    
    66   34   90 1    
    67   35   36 1    
    68   35   37 1    
    69   35   91 1    
    70   36   92 1    
    71   36   93 1    
    72   36   94 1    
    73   37   38 2    
    74   37   39 am   BACKBONE|DICT|INTERRES
    75   39   40 1    
    76   39   95 1    
    77   40   41 1    
    78   40   42 1    
    79   40   96 1    
    80   41   97 1    
    81   41   98 1    
    82   41   99 1    
    83   42   43 2    
    84   42   44 am   BACKBONE|DICT|INTERRES
    85   44   45 1    
    86   44  100 1    
    87   45   46 1    
    88   45   47 1    
    89   45  101 1    
    90   46  102 1    
    91   46  103 1    
    92   46  104 1    
    93   47   48 2    
    94   47   49 am   BACKBONE|DICT|INTERRES
    95   49   50 1    
    96   49  105 1    
    97   50   51 1    
    98   50   52 1    
    99   50  106 1    
   100   51  107 1    
   101   51  108 1    
   102   51  109 1    
   103   52   53 2    
   104   52   54 am   BACKBONE|DICT|INTERRES
   105   54   55 1    
   106   54  110 1    
   107   55   56 1    
   108   55   59 1    
   109   55  111 1    
   110   56   57 am   BACKBONE|DICT|INTERRES
   111   56   58 2    
   112   57  112 1    
   113   57  113 1    
   114   59   60 1    
   115   59  114 1    
   116   59  115 1    
   117   60   61 1    
   118   61  116 1    
   119   61  117 1    
@<TRIPOS>SUBSTRUCTURE
     1 UNK         1 GROUP             0       ****    0 ROOT    
