@<TRIPOS>MOLECULE
3R8
117   119    1
SMALL
USER_CHARGES


@<TRIPOS>ATOM
      1 CA         19.7186  -24.8579  -38.7558 C.3       0 UNK        -0.2013 
      2 C          18.7103  -25.0562  -39.8773 C.2       0 UNK         0.4866 
      3 O          17.5167  -24.8300  -39.6757 O.2       0 UNK        -0.5176 
      4 N          19.1877  -25.4743  -41.0518 N.am      1 UNK        -0.4884 
      5 CA         18.4072  -25.6713  -42.2742 C.3       1 UNK         0.0853 
      6 C6         18.5832  -27.1188  -42.8169 C.3       10 UNK        -0.0849 
      7 S7         17.9094  -28.4068  -41.7220 S.3       10 UNK        -0.2776 
      8 C8         17.4207  -29.6720  -42.9438 C.3       10 UNK         0.0316 
      9 C9         18.5830  -30.1223  -43.8242 C.ar      10 UNK        -0.0863 
     10 C10        19.6626  -30.8050  -43.2591 C.ar      10 UNK        -0.1009 
     11 C11        20.7215  -31.2542  -44.0527 C.ar      10 UNK        -0.0712 
     12 C12        20.7005  -31.0035  -45.4283 C.ar      10 UNK        -0.0894 
     13 C13        19.6276  -30.3207  -46.0119 C.ar      10 UNK        -0.0745 
     14 C14        18.5716  -29.8826  -45.2038 C.ar      10 UNK        -0.0972 
     15 C15        19.5890  -30.1059  -47.5222 C.3       10 UNK         0.0209 
     16 S16        19.7263  -28.3548  -48.0095 S.3       10 UNK        -0.2568 
     17 C17        21.4244  -27.9513  -47.4733 C.3       10 UNK        -0.0983 
     18 CA         21.8327  -26.4678  -47.7369 C.3       3 UNK         0.0876 
     19 N          20.8185  -25.4978  -47.2764 N.am      3 UNK        -0.4424 
     20 C          20.3746  -25.3733  -46.0182 C.2       2 UNK         0.4918 
     21 O          20.8904  -25.9771  -45.0750 O.2       2 UNK        -0.4875 
     22 CA         19.1832  -24.4163  -45.7690 C.3       2 UNK         0.0481 
     23 CB         18.1999  -24.3594  -46.9548 C.3       2 UNK        -0.1831 
     24 N          18.4548  -24.8471  -44.5754 N.am      2 UNK        -0.4498 
     25 C          18.8753  -24.6364  -43.3206 C.2       1 UNK         0.5027 
     26 O          19.6408  -23.7185  -43.0073 O.2       1 UNK        -0.4969 
     27 C          23.2558  -26.1900  -47.1853 C.2       3 UNK         0.5005 
     28 O          24.1515  -27.0109  -47.3919 O.2       3 UNK        -0.5279 
     29 N          23.4314  -25.0626  -46.4737 N.am      4 UNK        -0.4463 
     30 CA         24.5652  -24.7127  -45.6091 C.3       4 UNK         0.0283 
     31 CB         25.8374  -24.4498  -46.4431 C.3       4 UNK        -0.1875 
     32 C          24.7819  -25.7443  -44.4790 C.2       4 UNK         0.4949 
     33 O          25.9280  -26.0501  -44.1441 O.2       4 UNK        -0.5039 
     34 N          23.6833  -26.2819  -43.9289 N.am      5 UNK        -0.4663 
     35 CA         23.6866  -27.3831  -42.9670 C.3       5 UNK         0.0242 
     36 CB         23.5256  -28.7057  -43.7419 C.3       5 UNK        -0.1982 
     37 C          22.5966  -27.1972  -41.8971 C.2       5 UNK         0.5017 
     38 O          21.9689  -26.1381  -41.8148 O.2       5 UNK        -0.5012 
     39 N          22.4076  -28.2352  -41.0767 N.am      6 UNK        -0.4439 
     40 CA         21.4157  -28.3257  -40.0117 C.3       6 UNK         0.0297 
     41 CB         22.0206  -27.8065  -38.6954 C.3       6 UNK        -0.2006 
     42 C          20.9830  -29.7894  -39.8813 C.2       6 UNK         0.4892 
     43 O          21.7045  -30.6802  -40.3359 O.2       6 UNK        -0.5089 
     44 N          19.8332  -30.0125  -39.2300 N.am      7 UNK        -0.4243 
     45 CA         19.1577  -31.3087  -39.0589 C.3       7 UNK         0.0196 
     46 CB         17.8211  -31.0746  -38.3364 C.3       7 UNK        -0.2007 
     47 C          19.9711  -32.4114  -38.3500 C.2       7 UNK         0.5020 
     48 O          19.5644  -33.5737  -38.3820 O.2       7 UNK        -0.5147 
     49 N          21.1176  -32.0500  -37.7583 N.am      8 UNK        -0.4734 
     50 CA         22.1133  -32.9495  -37.1687 C.3       8 UNK         0.0238 
     51 CB         23.2316  -32.1039  -36.5373 C.3       8 UNK        -0.1912 
     52 C          22.7075  -33.9843  -38.1472 C.2       8 UNK         0.5038 
     53 O          23.2728  -34.9745  -37.6804 O.2       8 UNK        -0.5046 
     54 N          22.5617  -33.7661  -39.4643 N.am      9 UNK        -0.4200 
     55 CA         22.8642  -34.7643  -40.5033 C.3       9 UNK         0.0839 
     56 C          21.9546  -36.0316  -40.4831 C.2       9 UNK         0.5513 
     57 N          20.8060  -36.0209  -39.8141 N.am      9 UNK        -0.7519 
     58 O          22.3081  -37.0464  -41.0783 O.2       9 UNK        -0.4960 
     59 C59        22.9518  -34.1327  -41.9192 C.3       10 UNK        -0.0876 
     60 S60        21.3583  -33.5163  -42.5711 S.3       10 UNK        -0.2414 
     61 C61        21.8904  -31.9974  -43.4196 C.3       10 UNK         0.0169 
     62 H62        20.7440  -24.9252  -39.1191 H         1 UNK         0.0903 
     63 H63        19.5875  -23.8766  -38.3005 H         1 UNK         0.0903 
     64 H64        19.5773  -25.6146  -37.9847 H         1 UNK         0.0903 
     65 H65        20.1906  -25.5851  -41.1860 H         1 UNK         0.3096 
     66 H66        17.3466  -25.4855  -42.0923 H         1 UNK         0.1121 
     67 H67        19.6380  -27.3401  -42.9935 H         1 UNK         0.0849 
     68 H68        18.0887  -27.2403  -43.7808 H         1 UNK         0.0849 
     69 H69        16.6014  -29.2838  -43.5509 H         1 UNK         0.0865 
     70 H70        17.0212  -30.5370  -42.4124 H         1 UNK         0.0865 
     71 H71        19.6766  -30.9973  -42.1965 H         1 UNK         0.1346 
     72 H72        21.5164  -31.3493  -46.0480 H         1 UNK         0.1412 
     73 H73        17.7380  -29.3629  -45.6561 H         1 UNK         0.1426 
     74 H74        18.6485  -30.5008  -47.9088 H         1 UNK         0.0716 
     75 H75        20.3798  -30.6726  -48.0162 H         1 UNK         0.0716 
     76 H76        22.1068  -28.6301  -47.9882 H         1 UNK         0.0695 
     77 H77        21.5087  -28.1872  -46.4109 H         1 UNK         0.0695 
     78 H78        21.9051  -26.3339  -48.8173 H         1 UNK         0.0983 
     79 H79        20.3678  -24.9620  -48.0042 H         1 UNK         0.3095 
     80 H80        19.5858  -23.4146  -45.6069 H         1 UNK         0.0454 
     81 H81        17.8574  -25.3536  -47.2463 H         1 UNK         0.0851 
     82 H82        18.6545  -23.8951  -47.8304 H         1 UNK         0.0851 
     83 H83        17.3200  -23.7647  -46.7087 H         1 UNK         0.0851 
     84 H84        17.8063  -25.6058  -44.7255 H         1 UNK         0.2976 
     85 H85        22.6221  -24.4653  -46.3817 H         1 UNK         0.3116 
     86 H86        24.2962  -23.7776  -45.1157 H         1 UNK         0.0646 
     87 H87        26.2085  -25.3597  -46.9154 H         1 UNK         0.0847 
     88 H88        26.6407  -24.0599  -45.8169 H         1 UNK         0.0847 
     89 H89        25.6541  -23.7152  -47.2270 H         1 UNK         0.0847 
     90 H90        22.7611  -25.9693  -44.2213 H         1 UNK         0.3040 
     91 H91        24.6405  -27.3991  -42.4353 H         1 UNK         0.1015 
     92 H92        22.5112  -28.8234  -44.1265 H         1 UNK         0.0786 
     93 H93        23.7492  -29.5624  -43.1080 H         1 UNK         0.0786 
     94 H94        24.2085  -28.7583  -44.5903 H         1 UNK         0.0786 
     95 H95        22.9022  -29.1035  -41.2405 H         1 UNK         0.3172 
     96 H96        20.5381  -27.7350  -40.2757 H         1 UNK         0.0595 
     97 H97        22.8717  -28.4107  -38.3784 H         1 UNK         0.0839 
     98 H98        22.3653  -26.7774  -38.7954 H         1 UNK         0.0839 
     99 H99        21.2872  -27.8244  -37.8885 H         1 UNK         0.0839 
    100 H100       19.3250  -29.2103  -38.8865 H         1 UNK         0.2998 
    101 H101       18.9373  -31.6884  -40.0582 H         1 UNK         0.0822 
    102 H102       17.2658  -32.0071  -38.2246 H         1 UNK         0.0787 
    103 H103       17.9704  -30.6622  -37.3378 H         1 UNK         0.0787 
    104 H104       17.1838  -30.3877  -38.8941 H         1 UNK         0.0787 
    105 H105       21.3724  -31.0749  -37.8121 H         1 UNK         0.3055 
    106 H106       21.6160  -33.5139  -36.3770 H         1 UNK         0.1106 
    107 H107       23.9794  -32.7380  -36.0585 H         1 UNK         0.0828 
    108 H108       23.7480  -31.4978  -37.2830 H         1 UNK         0.0828 
    109 H109       22.8407  -31.4348  -35.7706 H         1 UNK         0.0828 
    110 H110       22.1011  -32.9190  -39.7730 H         1 UNK         0.2931 
    111 H111       23.8674  -35.1313  -40.2772 H         1 UNK         0.0412 
    112 H112       20.4905  -35.1843  -39.3367 H         1 UNK         0.3472 
    113 H113       20.2318  -36.8488  -39.8072 H         1 UNK         0.3472 
    114 H114       23.6763  -33.3171  -41.9031 H         1 UNK         0.0970 
    115 H115       23.3489  -34.8599  -42.6298 H         1 UNK         0.0970 
    116 H116       22.6383  -32.2556  -44.1708 H         1 UNK         0.0612 
    117 H117       22.3819  -31.3432  -42.7028 H         1 UNK         0.0612 
@<TRIPOS>BOND
     1    1    2 1    
     2    1   62 1    
     3    1   63 1    
     4    1   64 1    
     5    2    3 2    
     6    2    4 am   BACKBONE|DICT|INTERRES
     7    4    5 1    
     8    4   65 1    
     9    5    6 1    
    10    5   25 1    
    11    5   66 1    
    12    6    7 1    
    13    6   67 1    
    14    6   68 1    
    15    7    8 1    
    16    8    9 1    
    17    8   69 1    
    18    8   70 1    
    19    9   10 ar   
    20    9   14 ar   
    21   10   11 ar   
    22   10   71 1    
    23   11   12 ar   
    24   11   61 1    
    25   12   13 ar   
    26   12   72 1    
    27   13   14 ar   
    28   13   15 1    
    29   14   73 1    
    30   15   16 1    
    31   15   74 1    
    32   15   75 1    
    33   16   17 1    
    34   17   18 1    
    35   17   76 1    
    36   17   77 1    
    37   18   19 1    
    38   18   27 1    
    39   18   78 1    
    40   19   20 am   BACKBONE|DICT|INTERRES
    41   19   79 1    
    42   20   21 2    
    43   20   22 1    
    44   22   23 1    
    45   22   24 1    
    46   22   80 1    
    47   23   81 1    
    48   23   82 1    
    49   23   83 1    
    50   24   25 am   BACKBONE|DICT|INTERRES
    51   24   84 1    
    52   25   26 2    
    53   27   28 2    
    54   27   29 am   BACKBONE|DICT|INTERRES
    55   29   30 1    
    56   29   85 1    
    57   30   31 1    
    58   30   32 1    
    59   30   86 1    
    60   31   87 1    
    61   31   88 1    
    62   31   89 1    
    63   32   33 2    
    64   32   34 am   BACKBONE|DICT|INTERRES
    65   34   35 1    
    66   34   90 1    
    67   35   36 1    
    68   35   37 1    
    69   35   91 1    
    70   36   92 1    
    71   36   93 1    
    72   36   94 1    
    73   37   38 2    
    74   37   39 am   BACKBONE|DICT|INTERRES
    75   39   40 1    
    76   39   95 1    
    77   40   41 1    
    78   40   42 1    
    79   40   96 1    
    80   41   97 1    
    81   41   98 1    
    82   41   99 1    
    83   42   43 2    
    84   42   44 am   BACKBONE|DICT|INTERRES
    85   44   45 1    
    86   44  100 1    
    87   45   46 1    
    88   45   47 1    
    89   45  101 1    
    90   46  102 1    
    91   46  103 1    
    92   46  104 1    
    93   47   48 2    
    94   47   49 am   BACKBONE|DICT|INTERRES
    95   49   50 1    
    96   49  105 1    
    97   50   51 1    
    98   50   52 1    
    99   50  106 1    
   100   51  107 1    
   101   51  108 1    
   102   51  109 1    
   103   52   53 2    
   104   52   54 am   BACKBONE|DICT|INTERRES
   105   54   55 1    
   106   54  110 1    
   107   55   56 1    
   108   55   59 1    
   109   55  111 1    
   110   56   57 am   BACKBONE|DICT|INTERRES
   111   56   58 2    
   112   57  112 1    
   113   57  113 1    
   114   59   60 1    
   115   59  114 1    
   116   59  115 1    
   117   60   61 1    
   118   61  116 1    
   119   61  117 1    
@<TRIPOS>SUBSTRUCTURE
     1 UNK         1 GROUP             0       ****    0 ROOT    
