@<TRIPOS>MOLECULE
3R8
117   119    1
SMALL
USER_CHARGES


@<TRIPOS>ATOM
      1 CA         16.7656  -22.1259  -42.7514 C.3       0 UNK        -0.2013 
      2 C          17.1707  -22.9965  -43.9317 C.2       0 UNK         0.4866 
      3 O          16.9164  -22.6312  -45.0796 O.2       0 UNK        -0.5176 
      4 N          17.8015  -24.1419  -43.6581 N.am      1 UNK        -0.4884 
      5 CA         18.3232  -25.0896  -44.6409 C.3       1 UNK         0.0853 
      6 C6         17.2065  -25.9470  -45.2951 C.3       10 UNK        -0.0849 
      7 S7         17.7064  -26.6581  -46.9058 S.3       10 UNK        -0.2776 
      8 C8         16.7008  -28.1748  -47.0002 C.3       10 UNK         0.0316 
      9 C9         17.1539  -29.2352  -46.0060 C.ar      10 UNK        -0.0863 
     10 C10        18.1999  -30.1103  -46.3217 C.ar      10 UNK        -0.1009 
     11 C11        18.6043  -31.0968  -45.4128 C.ar      10 UNK        -0.0712 
     12 C12        17.9373  -31.2053  -44.1896 C.ar      10 UNK        -0.0894 
     13 C13        16.9230  -30.3102  -43.8458 C.ar      10 UNK        -0.0745 
     14 C14        16.5164  -29.3466  -44.7682 C.ar      10 UNK        -0.0972 
     15 C15        16.2866  -30.3561  -42.4671 C.3       10 UNK         0.0209 
     16 S16        17.1510  -29.2362  -41.3172 S.3       10 UNK        -0.2568 
     17 C17        18.6675  -30.1866  -40.9458 C.3       10 UNK        -0.0983 
     18 CA         19.9971  -29.4291  -41.1938 C.3       3 UNK         0.0876 
     19 N          20.1085  -28.8263  -42.5325 N.am      3 UNK        -0.4424 
     20 C          21.2498  -28.3103  -43.0157 C.2       2 UNK         0.4918 
     21 O          22.3076  -28.3094  -42.3895 O.2       2 UNK        -0.4875 
     22 CA         21.2306  -27.6069  -44.3813 C.3       2 UNK         0.0481 
     23 CB         21.5719  -28.5842  -45.5127 C.3       2 UNK        -0.1831 
     24 N          20.0093  -26.8679  -44.7070 N.am      2 UNK        -0.4498 
     25 C          19.4339  -25.9161  -43.9613 C.2       1 UNK         0.5027 
     26 O          19.7655  -25.6636  -42.7971 O.2       1 UNK        -0.4969 
     27 C          20.3040  -28.4461  -40.0419 C.2       3 UNK         0.5005 
     28 O          20.8128  -28.8815  -39.0077 O.2       3 UNK        -0.5279 
     29 N          20.0190  -27.1527  -40.2433 N.am      4 UNK        -0.4463 
     30 CA         20.3571  -26.0812  -39.3085 C.3       4 UNK         0.0283 
     31 CB         19.2463  -25.0177  -39.3277 C.3       4 UNK        -0.1875 
     32 C          21.7125  -25.4472  -39.6542 C.2       4 UNK         0.4949 
     33 O          22.4902  -25.1541  -38.7462 O.2       4 UNK        -0.5039 
     34 N          21.9590  -25.2179  -40.9518 N.am      5 UNK        -0.4663 
     35 CA         23.1121  -24.4634  -41.4472 C.3       5 UNK         0.0242 
     36 CB         22.8210  -23.9779  -42.8764 C.3       5 UNK        -0.1982 
     37 C          24.4479  -25.2245  -41.3980 C.2       5 UNK         0.5017 
     38 O          25.4815  -24.5831  -41.2026 O.2       5 UNK        -0.5012 
     39 N          24.4192  -26.5483  -41.6012 N.am      6 UNK        -0.4439 
     40 CA         25.6145  -27.3935  -41.7148 C.3       6 UNK         0.0297 
     41 CB         25.8682  -27.7060  -43.1999 C.3       6 UNK        -0.2006 
     42 C          25.5223  -28.6967  -40.9053 C.2       6 UNK         0.4892 
     43 O          26.5611  -29.1891  -40.4626 O.2       6 UNK        -0.5089 
     44 N          24.3036  -29.2297  -40.7369 N.am      7 UNK        -0.4243 
     45 CA         23.9673  -30.5392  -40.1684 C.3       7 UNK         0.0196 
     46 CB         24.4684  -30.6775  -38.7123 C.3       7 UNK        -0.2007 
     47 C          24.4054  -31.6940  -41.0936 C.2       7 UNK         0.5020 
     48 O          24.6426  -31.4755  -42.2829 O.2       7 UNK        -0.5147 
     49 N          24.4532  -32.9146  -40.5407 N.am      8 UNK        -0.4734 
     50 CA         24.8425  -34.1814  -41.1851 C.3       8 UNK         0.0238 
     51 CB         26.2980  -34.1211  -41.6976 C.3       8 UNK        -0.1912 
     52 C          23.8687  -34.7053  -42.2641 C.2       8 UNK         0.5038 
     53 O          24.1913  -35.6925  -42.9279 O.2       8 UNK        -0.5046 
     54 N          22.6929  -34.0793  -42.4033 N.am      9 UNK        -0.4200 
     55 CA         21.5758  -34.5567  -43.2324 C.3       9 UNK         0.0839 
     56 C          20.9550  -35.8630  -42.6651 C.2       9 UNK         0.5513 
     57 N          20.5119  -36.7650  -43.5297 N.am      9 UNK        -0.7519 
     58 O          20.8318  -36.0430  -41.4550 O.2       9 UNK        -0.4960 
     59 C59        20.4874  -33.4647  -43.3971 C.3       10 UNK        -0.0876 
     60 S60        21.0488  -32.0833  -44.4529 S.3       10 UNK        -0.2414 
     61 C61        19.7610  -32.0350  -45.7535 C.3       10 UNK         0.0169 
     62 H62        17.2414  -21.1484  -42.8255 H         1 UNK         0.0903 
     63 H63        17.0521  -22.5711  -41.7986 H         1 UNK         0.0903 
     64 H64        15.6858  -21.9801  -42.7462 H         1 UNK         0.0903 
     65 H65        18.0566  -24.3752  -42.7060 H         1 UNK         0.3096 
     66 H66        18.8166  -24.5025  -45.4192 H         1 UNK         0.1121 
     67 H67        16.8757  -26.7180  -44.6023 H         1 UNK         0.0849 
     68 H68        16.3255  -25.3339  -45.4901 H         1 UNK         0.0849 
     69 H69        15.6503  -27.9240  -46.8434 H         1 UNK         0.0865 
     70 H70        16.7651  -28.5757  -48.0129 H         1 UNK         0.0865 
     71 H71        18.7006  -30.0186  -47.2760 H         1 UNK         0.1346 
     72 H72        18.2282  -31.9710  -43.4889 H         1 UNK         0.1412 
     73 H73        15.7116  -28.6716  -44.5110 H         1 UNK         0.1426 
     74 H74        16.2876  -31.3728  -42.0711 H         1 UNK         0.0716 
     75 H75        15.2397  -30.0558  -42.5319 H         1 UNK         0.0716 
     76 H76        18.6048  -30.5227  -39.9087 H         1 UNK         0.0695 
     77 H77        18.6744  -31.1075  -41.5237 H         1 UNK         0.0695 
     78 H78        20.7855  -30.1826  -41.1466 H         1 UNK         0.0983 
     79 H79        19.2658  -28.7892  -43.0887 H         1 UNK         0.3095 
     80 H80        22.0327  -26.8685  -44.3538 H         1 UNK         0.0454 
     81 H81        22.4753  -29.1517  -45.2834 H         1 UNK         0.0851 
     82 H82        20.7716  -29.3014  -45.6754 H         1 UNK         0.0851 
     83 H83        21.7488  -28.0607  -46.4521 H         1 UNK         0.0851 
     84 H84        19.6197  -27.0294  -45.6277 H         1 UNK         0.2976 
     85 H85        19.6435  -26.8720  -41.1425 H         1 UNK         0.3116 
     86 H86        20.4194  -26.4785  -38.2930 H         1 UNK         0.0646 
     87 H87        19.4633  -24.2164  -38.6200 H         1 UNK         0.0847 
     88 H88        18.2842  -25.4459  -39.0464 H         1 UNK         0.0847 
     89 H89        19.1347  -24.5608  -40.3115 H         1 UNK         0.0847 
     90 H90        21.2429  -25.4577  -41.6319 H         1 UNK         0.3040 
     91 H91        23.2267  -23.5794  -40.8152 H         1 UNK         0.1015 
     92 H92        21.9131  -23.3753  -42.9143 H         1 UNK         0.0786 
     93 H93        22.6999  -24.8089  -43.5699 H         1 UNK         0.0786 
     94 H94        23.6367  -23.3580  -43.2514 H         1 UNK         0.0786 
     95 H95        23.5233  -26.9980  -41.7651 H         1 UNK         0.3172 
     96 H96        26.4859  -26.8598  -41.3297 H         1 UNK         0.0595 
     97 H97        26.7525  -28.3329  -43.3225 H         1 UNK         0.0839 
     98 H98        26.0341  -26.7949  -43.7748 H         1 UNK         0.0839 
     99 H99        25.0270  -28.2379  -43.6471 H         1 UNK         0.0839 
    100 H100       23.5385  -28.7992  -41.2513 H         1 UNK         0.2998 
    101 H101       22.8786  -30.5723  -40.1398 H         1 UNK         0.0822 
    102 H102       25.5474  -30.8285  -38.6633 H         1 UNK         0.0787 
    103 H103       24.2296  -29.7877  -38.1293 H         1 UNK         0.0787 
    104 H104       23.9963  -31.5200  -38.2066 H         1 UNK         0.0787 
    105 H105       24.2152  -32.9901  -39.5606 H         1 UNK         0.3055 
    106 H106       24.8144  -34.9320  -40.3933 H         1 UNK         0.1106 
    107 H107       26.4016  -33.4497  -42.5503 H         1 UNK         0.0828 
    108 H108       26.9803  -33.7820  -40.9182 H         1 UNK         0.0828 
    109 H109       26.6420  -35.1048  -42.0195 H         1 UNK         0.0828 
    110 H110       22.5114  -33.2755  -41.8238 H         1 UNK         0.2931 
    111 H111       21.9791  -34.7859  -44.2213 H         1 UNK         0.0412 
    112 H112       20.0909  -37.6128  -43.1819 H         1 UNK         0.3472 
    113 H113       20.6022  -36.6228  -44.5241 H         1 UNK         0.3472 
    114 H114       20.1892  -33.0693  -42.4246 H         1 UNK         0.0970 
    115 H115       19.5843  -33.8959  -43.8328 H         1 UNK         0.0970 
    116 H116       19.3769  -33.0362  -45.9511 H         1 UNK         0.0612 
    117 H117       20.2418  -31.7106  -46.6775 H         1 UNK         0.0612 
@<TRIPOS>BOND
     1    1    2 1    
     2    1   62 1    
     3    1   63 1    
     4    1   64 1    
     5    2    3 2    
     6    2    4 am   BACKBONE|DICT|INTERRES
     7    4    5 1    
     8    4   65 1    
     9    5    6 1    
    10    5   25 1    
    11    5   66 1    
    12    6    7 1    
    13    6   67 1    
    14    6   68 1    
    15    7    8 1    
    16    8    9 1    
    17    8   69 1    
    18    8   70 1    
    19    9   10 ar   
    20    9   14 ar   
    21   10   11 ar   
    22   10   71 1    
    23   11   12 ar   
    24   11   61 1    
    25   12   13 ar   
    26   12   72 1    
    27   13   14 ar   
    28   13   15 1    
    29   14   73 1    
    30   15   16 1    
    31   15   74 1    
    32   15   75 1    
    33   16   17 1    
    34   17   18 1    
    35   17   76 1    
    36   17   77 1    
    37   18   19 1    
    38   18   27 1    
    39   18   78 1    
    40   19   20 am   BACKBONE|DICT|INTERRES
    41   19   79 1    
    42   20   21 2    
    43   20   22 1    
    44   22   23 1    
    45   22   24 1    
    46   22   80 1    
    47   23   81 1    
    48   23   82 1    
    49   23   83 1    
    50   24   25 am   BACKBONE|DICT|INTERRES
    51   24   84 1    
    52   25   26 2    
    53   27   28 2    
    54   27   29 am   BACKBONE|DICT|INTERRES
    55   29   30 1    
    56   29   85 1    
    57   30   31 1    
    58   30   32 1    
    59   30   86 1    
    60   31   87 1    
    61   31   88 1    
    62   31   89 1    
    63   32   33 2    
    64   32   34 am   BACKBONE|DICT|INTERRES
    65   34   35 1    
    66   34   90 1    
    67   35   36 1    
    68   35   37 1    
    69   35   91 1    
    70   36   92 1    
    71   36   93 1    
    72   36   94 1    
    73   37   38 2    
    74   37   39 am   BACKBONE|DICT|INTERRES
    75   39   40 1    
    76   39   95 1    
    77   40   41 1    
    78   40   42 1    
    79   40   96 1    
    80   41   97 1    
    81   41   98 1    
    82   41   99 1    
    83   42   43 2    
    84   42   44 am   BACKBONE|DICT|INTERRES
    85   44   45 1    
    86   44  100 1    
    87   45   46 1    
    88   45   47 1    
    89   45  101 1    
    90   46  102 1    
    91   46  103 1    
    92   46  104 1    
    93   47   48 2    
    94   47   49 am   BACKBONE|DICT|INTERRES
    95   49   50 1    
    96   49  105 1    
    97   50   51 1    
    98   50   52 1    
    99   50  106 1    
   100   51  107 1    
   101   51  108 1    
   102   51  109 1    
   103   52   53 2    
   104   52   54 am   BACKBONE|DICT|INTERRES
   105   54   55 1    
   106   54  110 1    
   107   55   56 1    
   108   55   59 1    
   109   55  111 1    
   110   56   57 am   BACKBONE|DICT|INTERRES
   111   56   58 2    
   112   57  112 1    
   113   57  113 1    
   114   59   60 1    
   115   59  114 1    
   116   59  115 1    
   117   60   61 1    
   118   61  116 1    
   119   61  117 1    
@<TRIPOS>SUBSTRUCTURE
     1 UNK         1 GROUP             0       ****    0 ROOT    
