@<TRIPOS>MOLECULE
3R8
117   119    1
SMALL
USER_CHARGES


@<TRIPOS>ATOM
      1 CA         17.6742  -25.5740  -49.0875 C.3       0 UNK        -0.2013 
      2 C          17.9205  -26.2346  -47.7398 C.2       0 UNK         0.4866 
      3 O          18.8313  -27.0549  -47.6150 O.2       0 UNK        -0.5176 
      4 N          17.1195  -25.8855  -46.7251 N.am      1 UNK        -0.4884 
      5 CA         17.2133  -26.4153  -45.3610 C.3       1 UNK         0.0853 
      6 C6         15.8635  -26.3231  -44.5989 C.3       10 UNK        -0.0849 
      7 S7         14.5814  -27.3887  -45.3454 S.3       10 UNK        -0.2776 
      8 C8         14.4178  -28.7332  -44.1130 C.3       10 UNK         0.0316 
      9 C9         15.7346  -29.4384  -43.7954 C.ar      10 UNK        -0.0863 
     10 C10        16.5932  -29.8432  -44.8226 C.ar      10 UNK        -0.1009 
     11 C11        17.8367  -30.4130  -44.5397 C.ar      10 UNK        -0.0712 
     12 C12        18.1784  -30.6580  -43.2046 C.ar      10 UNK        -0.0894 
     13 C13        17.3227  -30.2853  -42.1644 C.ar      10 UNK        -0.0745 
     14 C14        16.1010  -29.6755  -42.4660 C.ar      10 UNK        -0.0972 
     15 C15        17.7350  -30.5392  -40.7182 C.3       10 UNK         0.0209 
     16 S16        17.9787  -29.0184  -39.7295 S.3       10 UNK        -0.2568 
     17 C17        18.7658  -27.8360  -40.8768 C.3       10 UNK        -0.0983 
     18 CA         20.1603  -28.2746  -41.4049 C.3       3 UNK         0.0876 
     19 N          20.4791  -27.5854  -42.6565 N.am      3 UNK        -0.4424 
     20 C          20.8281  -26.2965  -42.7886 C.2       2 UNK         0.4918 
     21 O          21.0693  -25.5380  -41.8493 O.2       2 UNK        -0.4875 
     22 CA         20.8338  -25.7484  -44.2243 C.3       2 UNK         0.0481 
     23 CB         22.0701  -26.2405  -44.9939 C.3       2 UNK        -0.1831 
     24 N          19.6105  -26.1194  -44.9436 N.am      2 UNK        -0.4498 
     25 C          18.3694  -25.7485  -44.5911 C.2       1 UNK         0.5027 
     26 O          18.1250  -24.9237  -43.7084 O.2       1 UNK        -0.4969 
     27 C          21.3225  -28.1689  -40.3958 C.2       3 UNK         0.5005 
     28 O          22.3852  -28.7280  -40.6654 O.2       3 UNK        -0.5279 
     29 N          21.1315  -27.4325  -39.2928 N.am      4 UNK        -0.4463 
     30 CA         22.1330  -27.1710  -38.2540 C.3       4 UNK         0.0283 
     31 CB         21.4572  -26.4390  -37.0831 C.3       4 UNK        -0.1875 
     32 C          23.3771  -26.3917  -38.7290 C.2       4 UNK         0.4949 
     33 O          24.3992  -26.4380  -38.0443 O.2       4 UNK        -0.5039 
     34 N          23.2925  -25.7019  -39.8774 N.am      5 UNK        -0.4663 
     35 CA         24.4377  -25.0570  -40.5325 C.3       5 UNK         0.0242 
     36 CB         23.9335  -23.9373  -41.4584 C.3       5 UNK        -0.1982 
     37 C          25.3182  -26.0511  -41.3166 C.2       5 UNK         0.5017 
     38 O          26.4207  -25.6807  -41.7219 O.2       5 UNK        -0.5012 
     39 N          24.8237  -27.2773  -41.5218 N.am      6 UNK        -0.4439 
     40 CA         25.5162  -28.4019  -42.1429 C.3       6 UNK         0.0297 
     41 CB         24.7343  -28.8041  -43.4102 C.3       6 UNK        -0.2006 
     42 C          25.5966  -29.5523  -41.1232 C.2       6 UNK         0.4892 
     43 O          25.3150  -29.3566  -39.9386 O.2       6 UNK        -0.5089 
     44 N          25.9415  -30.7565  -41.5944 N.am      7 UNK        -0.4243 
     45 CA         25.9162  -31.9962  -40.8098 C.3       7 UNK         0.0196 
     46 CB         26.9754  -32.9624  -41.3740 C.3       7 UNK        -0.2007 
     47 C          24.5029  -32.6175  -40.7818 C.2       7 UNK         0.5020 
     48 O          24.3549  -33.8113  -41.0473 O.2       7 UNK        -0.5147 
     49 N          23.4766  -31.7884  -40.5267 N.am      8 UNK        -0.4734 
     50 CA         22.0397  -32.1143  -40.5235 C.3       8 UNK         0.0238 
     51 CB         21.6994  -33.0413  -39.3378 C.3       8 UNK        -0.1912 
     52 C          21.5140  -32.6650  -41.8674 C.2       8 UNK         0.5038 
     53 O          20.4895  -33.3483  -41.8824 O.2       8 UNK        -0.5046 
     54 N          22.2322  -32.3710  -42.9612 N.am      9 UNK        -0.4200 
     55 CA         22.0733  -32.9642  -44.3004 C.3       9 UNK         0.0839 
     56 C          22.3827  -34.4938  -44.3625 C.2       9 UNK         0.5513 
     57 N          23.0961  -35.0703  -43.4016 N.am      9 UNK        -0.7519 
     58 O          22.0007  -35.1700  -45.3145 O.2       9 UNK        -0.4960 
     59 C59        20.7294  -32.5911  -44.9883 C.3       10 UNK        -0.0876 
     60 S60        20.5496  -30.7974  -45.2660 S.3       10 UNK        -0.2414 
     61 C61        18.7778  -30.7236  -45.7041 C.3       10 UNK         0.0169 
     62 H62        16.8363  -24.8780  -49.0539 H         1 UNK         0.0903 
     63 H63        18.5604  -25.0240  -49.4028 H         1 UNK         0.0903 
     64 H64        17.4566  -26.3306  -49.8408 H         1 UNK         0.0903 
     65 H65        16.3925  -25.2005  -46.8774 H         1 UNK         0.3096 
     66 H66        17.4788  -27.4695  -45.4287 H         1 UNK         0.1121 
     67 H67        15.4981  -25.2947  -44.5867 H         1 UNK         0.0849 
     68 H68        15.9898  -26.6076  -43.5522 H         1 UNK         0.0849 
     69 H69        13.9765  -28.3171  -43.2059 H         1 UNK         0.0865 
     70 H70        13.7075  -29.4708  -44.4887 H         1 UNK         0.0865 
     71 H71        16.3116  -29.6651  -45.8519 H         1 UNK         0.1346 
     72 H72        19.1200  -31.1285  -42.9650 H         1 UNK         0.1412 
     73 H73        15.4458  -29.3738  -41.6599 H         1 UNK         0.1426 
     74 H74        16.9710  -31.1493  -40.2347 H         1 UNK         0.0716 
     75 H75        18.6532  -31.1274  -40.6784 H         1 UNK         0.0716 
     76 H76        18.8037  -26.8519  -40.4074 H         1 UNK         0.0695 
     77 H77        18.0811  -27.7041  -41.7159 H         1 UNK         0.0695 
     78 H78        20.1108  -29.3297  -41.6683 H         1 UNK         0.0983 
     79 H79        20.3348  -28.1243  -43.4979 H         1 UNK         0.3095 
     80 H80        20.8758  -24.6587  -44.1702 H         1 UNK         0.0454 
     81 H81        22.1201  -25.7950  -45.9875 H         1 UNK         0.0851 
     82 H82        22.9877  -25.9665  -44.4713 H         1 UNK         0.0851 
     83 H83        22.0742  -27.3247  -45.1137 H         1 UNK         0.0851 
     84 H84        19.7060  -26.7266  -45.7513 H         1 UNK         0.2976 
     85 H85        20.2280  -26.9994  -39.1654 H         1 UNK         0.3116 
     86 H86        22.4853  -28.1396  -37.8931 H         1 UNK         0.0646 
     87 H87        20.6352  -27.0231  -36.6689 H         1 UNK         0.0847 
     88 H88        22.1651  -26.2616  -36.2721 H         1 UNK         0.0847 
     89 H89        21.0627  -25.4689  -37.3879 H         1 UNK         0.0847 
     90 H90        22.4151  -25.6965  -40.3907 H         1 UNK         0.3040 
     91 H91        25.0683  -24.6012  -39.7657 H         1 UNK         0.1015 
     92 H92        23.3769  -24.3329  -42.3081 H         1 UNK         0.0786 
     93 H93        24.7681  -23.3618  -41.8609 H         1 UNK         0.0786 
     94 H94        23.2862  -23.2400  -40.9264 H         1 UNK         0.0786 
     95 H95        23.9488  -27.5281  -41.0692 H         1 UNK         0.3172 
     96 H96        26.5363  -28.1279  -42.4186 H         1 UNK         0.0595 
     97 H97        23.7330  -29.1653  -43.1699 H         1 UNK         0.0839 
     98 H98        25.2448  -29.5875  -43.9707 H         1 UNK         0.0839 
     99 H99        24.6250  -27.9567  -44.0869 H         1 UNK         0.0839 
    100 H100       26.1572  -30.8503  -42.5765 H         1 UNK         0.2998 
    101 H101       26.1882  -31.7773  -39.7748 H         1 UNK         0.0822 
    102 H102       27.0276  -33.8763  -40.7805 H         1 UNK         0.0787 
    103 H103       26.7519  -33.2528  -42.4015 H         1 UNK         0.0787 
    104 H104       27.9690  -32.5140  -41.3599 H         1 UNK         0.0787 
    105 H105       23.6996  -30.8167  -40.3306 H         1 UNK         0.3055 
    106 H106       21.5085  -31.1775  -40.3611 H         1 UNK         0.1106 
    107 H107       20.6212  -33.1736  -39.2385 H         1 UNK         0.0828 
    108 H108       22.1377  -34.0322  -39.4604 H         1 UNK         0.0828 
    109 H109       22.0598  -32.6287  -38.3956 H         1 UNK         0.0828 
    110 H110       23.0541  -31.8006  -42.8355 H         1 UNK         0.2931 
    111 H111       22.8664  -32.5150  -44.8993 H         1 UNK         0.0412 
    112 H112       23.2949  -36.0559  -43.4660 H         1 UNK         0.3472 
    113 H113       23.4442  -34.5411  -42.6076 H         1 UNK         0.3472 
    114 H114       20.6558  -33.0671  -45.9677 H         1 UNK         0.0970 
    115 H115       19.8823  -32.9644  -44.4114 H         1 UNK         0.0970 
    116 H116       18.6691  -29.9469  -46.4632 H         1 UNK         0.0612 
    117 H117       18.4700  -31.6572  -46.1768 H         1 UNK         0.0612 
@<TRIPOS>BOND
     1    1    2 1    
     2    1   62 1    
     3    1   63 1    
     4    1   64 1    
     5    2    3 2    
     6    2    4 am   BACKBONE|DICT|INTERRES
     7    4    5 1    
     8    4   65 1    
     9    5    6 1    
    10    5   25 1    
    11    5   66 1    
    12    6    7 1    
    13    6   67 1    
    14    6   68 1    
    15    7    8 1    
    16    8    9 1    
    17    8   69 1    
    18    8   70 1    
    19    9   10 ar   
    20    9   14 ar   
    21   10   11 ar   
    22   10   71 1    
    23   11   12 ar   
    24   11   61 1    
    25   12   13 ar   
    26   12   72 1    
    27   13   14 ar   
    28   13   15 1    
    29   14   73 1    
    30   15   16 1    
    31   15   74 1    
    32   15   75 1    
    33   16   17 1    
    34   17   18 1    
    35   17   76 1    
    36   17   77 1    
    37   18   19 1    
    38   18   27 1    
    39   18   78 1    
    40   19   20 am   BACKBONE|DICT|INTERRES
    41   19   79 1    
    42   20   21 2    
    43   20   22 1    
    44   22   23 1    
    45   22   24 1    
    46   22   80 1    
    47   23   81 1    
    48   23   82 1    
    49   23   83 1    
    50   24   25 am   BACKBONE|DICT|INTERRES
    51   24   84 1    
    52   25   26 2    
    53   27   28 2    
    54   27   29 am   BACKBONE|DICT|INTERRES
    55   29   30 1    
    56   29   85 1    
    57   30   31 1    
    58   30   32 1    
    59   30   86 1    
    60   31   87 1    
    61   31   88 1    
    62   31   89 1    
    63   32   33 2    
    64   32   34 am   BACKBONE|DICT|INTERRES
    65   34   35 1    
    66   34   90 1    
    67   35   36 1    
    68   35   37 1    
    69   35   91 1    
    70   36   92 1    
    71   36   93 1    
    72   36   94 1    
    73   37   38 2    
    74   37   39 am   BACKBONE|DICT|INTERRES
    75   39   40 1    
    76   39   95 1    
    77   40   41 1    
    78   40   42 1    
    79   40   96 1    
    80   41   97 1    
    81   41   98 1    
    82   41   99 1    
    83   42   43 2    
    84   42   44 am   BACKBONE|DICT|INTERRES
    85   44   45 1    
    86   44  100 1    
    87   45   46 1    
    88   45   47 1    
    89   45  101 1    
    90   46  102 1    
    91   46  103 1    
    92   46  104 1    
    93   47   48 2    
    94   47   49 am   BACKBONE|DICT|INTERRES
    95   49   50 1    
    96   49  105 1    
    97   50   51 1    
    98   50   52 1    
    99   50  106 1    
   100   51  107 1    
   101   51  108 1    
   102   51  109 1    
   103   52   53 2    
   104   52   54 am   BACKBONE|DICT|INTERRES
   105   54   55 1    
   106   54  110 1    
   107   55   56 1    
   108   55   59 1    
   109   55  111 1    
   110   56   57 am   BACKBONE|DICT|INTERRES
   111   56   58 2    
   112   57  112 1    
   113   57  113 1    
   114   59   60 1    
   115   59  114 1    
   116   59  115 1    
   117   60   61 1    
   118   61  116 1    
   119   61  117 1    
@<TRIPOS>SUBSTRUCTURE
     1 UNK         1 GROUP             0       ****    0 ROOT    
