@<TRIPOS>MOLECULE
3R8
117   119    1
SMALL
USER_CHARGES


@<TRIPOS>ATOM
      1 CA         20.2793  -24.0144  -39.1632 C.3       0 UNK        -0.2013 
      2 C          19.3385  -23.8745  -40.3515 C.2       0 UNK         0.4866 
      3 O          18.7650  -22.8030  -40.5509 O.2       0 UNK        -0.5176 
      4 N          19.1704  -24.9477  -41.1325 N.am      1 UNK        -0.4884 
      5 CA         18.3320  -24.9894  -42.3349 C.3       1 UNK         0.0853 
      6 C6         17.5548  -26.3295  -42.4283 C.3       10 UNK        -0.0849 
      7 S7         18.6408  -27.7741  -42.6280 S.3       10 UNK        -0.2776 
      8 C8         17.4475  -29.1259  -42.8481 C.3       10 UNK         0.0316 
      9 C9         18.0992  -30.2280  -43.6621 C.ar      10 UNK        -0.0863 
     10 C10        18.6510  -31.3534  -43.0433 C.ar      10 UNK        -0.1009 
     11 C11        19.3274  -32.3142  -43.8019 C.ar      10 UNK        -0.0712 
     12 C12        19.4607  -32.1318  -45.1837 C.ar      10 UNK        -0.0894 
     13 C13        18.9246  -31.0011  -45.8103 C.ar      10 UNK        -0.0745 
     14 C14        18.2122  -30.0744  -45.0446 C.ar      10 UNK        -0.0972 
     15 C15        19.1487  -30.7715  -47.3040 C.3       10 UNK         0.0209 
     16 S16        19.5355  -29.0347  -47.7387 S.3       10 UNK        -0.2568 
     17 C17        21.0081  -28.7105  -46.7090 C.3       10 UNK        -0.0983 
     18 CA         21.4388  -27.2186  -46.7151 C.3       3 UNK         0.0876 
     19 N          20.3673  -26.3280  -46.2385 N.am      3 UNK        -0.4424 
     20 C          20.2219  -25.0454  -46.5979 C.2       2 UNK         0.4918 
     21 O          21.0247  -24.4548  -47.3216 O.2       2 UNK        -0.4875 
     22 CA         18.9987  -24.2729  -46.0713 C.3       2 UNK         0.0481 
     23 CB         17.8607  -24.3286  -47.1030 C.3       2 UNK        -0.1831 
     24 N          18.4844  -24.7021  -44.7668 N.am      2 UNK        -0.4498 
     25 C          19.1532  -24.6526  -43.6050 C.2       1 UNK         0.5027 
     26 O          20.3455  -24.3400  -43.5212 O.2       1 UNK        -0.4969 
     27 C          22.7675  -26.9846  -45.9528 C.2       3 UNK         0.5005 
     28 O          23.3886  -27.9448  -45.4950 O.2       3 UNK        -0.5279 
     29 N          23.1813  -25.7128  -45.8323 N.am      4 UNK        -0.4463 
     30 CA         24.3624  -25.2152  -45.1144 C.3       4 UNK         0.0283 
     31 CB         25.6631  -25.6738  -45.8076 C.3       4 UNK        -0.1875 
     32 C          24.3192  -25.5737  -43.6168 C.2       4 UNK         0.4949 
     33 O          25.2166  -26.2497  -43.1096 O.2       4 UNK        -0.5039 
     34 N          23.2408  -25.1423  -42.9480 N.am      5 UNK        -0.4663 
     35 CA         22.8680  -25.3886  -41.5485 C.3       5 UNK         0.0242 
     36 CB         23.9558  -24.9475  -40.5495 C.3       5 UNK        -0.1982 
     37 C          22.3990  -26.8288  -41.2915 C.2       5 UNK         0.5017 
     38 O          21.3114  -27.0049  -40.7425 O.2       5 UNK        -0.5012 
     39 N          23.2097  -27.8095  -41.7130 N.am      6 UNK        -0.4439 
     40 CA         22.9874  -29.2621  -41.7919 C.3       6 UNK         0.0297 
     41 CB         21.8399  -29.5703  -42.7677 C.3       6 UNK        -0.2006 
     42 C          22.7501  -30.0002  -40.4603 C.2       6 UNK         0.4892 
     43 O          23.3011  -31.0868  -40.2721 O.2       6 UNK        -0.5089 
     44 N          21.9218  -29.4229  -39.5805 N.am      7 UNK        -0.4243 
     45 CA         21.3823  -30.0017  -38.3486 C.3       7 UNK         0.0196 
     46 CB         22.4942  -30.1735  -37.2873 C.3       7 UNK        -0.2007 
     47 C          20.5785  -31.2811  -38.6575 C.2       7 UNK         0.5020 
     48 O          19.6869  -31.2401  -39.5062 O.2       7 UNK        -0.5147 
     49 N          20.8971  -32.3885  -37.9779 N.am      8 UNK        -0.4734 
     50 CA         20.2753  -33.6986  -38.1905 C.3       8 UNK         0.0238 
     51 CB         20.3189  -34.4818  -36.8665 C.3       8 UNK        -0.1912 
     52 C          20.9315  -34.5141  -39.3220 C.2       8 UNK         0.5038 
     53 O          20.4208  -35.5883  -39.6420 O.2       8 UNK        -0.5046 
     54 N          22.0519  -34.0275  -39.8785 N.am      9 UNK        -0.4200 
     55 CA         22.9059  -34.7214  -40.8619 C.3       9 UNK         0.0839 
     56 C          23.6163  -35.9975  -40.3110 C.2       9 UNK         0.5513 
     57 N          23.7524  -36.1638  -39.0005 N.am      9 UNK        -0.7519 
     58 O          24.0823  -36.8376  -41.0771 O.2       9 UNK        -0.4960 
     59 C59        22.2046  -34.9650  -42.2307 C.3       10 UNK        -0.0876 
     60 S60        21.7488  -33.4077  -43.0590 S.3       10 UNK        -0.2414 
     61 C61        19.9371  -33.5359  -43.1284 C.3       10 UNK         0.0169 
     62 H62        19.7814  -23.6882  -38.2505 H         1 UNK         0.0903 
     63 H63        20.6025  -25.0448  -39.0175 H         1 UNK         0.0903 
     64 H64        21.1638  -23.3949  -39.3083 H         1 UNK         0.0903 
     65 H65        19.7169  -25.7883  -40.9635 H         1 UNK         0.3096 
     66 H66        17.5801  -24.2005  -42.2593 H         1 UNK         0.1121 
     67 H67        16.9608  -26.4718  -41.5239 H         1 UNK         0.0849 
     68 H68        16.8362  -26.3073  -43.2490 H         1 UNK         0.0849 
     69 H69        17.1249  -29.4936  -41.8728 H         1 UNK         0.0865 
     70 H70        16.5546  -28.7673  -43.3626 H         1 UNK         0.0865 
     71 H71        18.5791  -31.4665  -41.9698 H         1 UNK         0.1346 
     72 H72        20.0088  -32.8613  -45.7644 H         1 UNK         0.1412 
     73 H73        17.7961  -29.1942  -45.5148 H         1 UNK         0.1426 
     74 H74        18.2517  -31.0775  -47.8435 H         1 UNK         0.0716 
     75 H75        19.9608  -31.4031  -47.6676 H         1 UNK         0.0716 
     76 H76        21.8132  -29.3470  -47.0812 H         1 UNK         0.0695 
     77 H77        20.8071  -29.0347  -45.6879 H         1 UNK         0.0695 
     78 H78        21.6510  -26.9615  -47.7555 H         1 UNK         0.0983 
     79 H79        19.6882  -26.7382  -45.6145 H         1 UNK         0.3095 
     80 H80        19.3032  -23.2296  -45.9656 H         1 UNK         0.0454 
     81 H81        18.2014  -23.9829  -48.0802 H         1 UNK         0.0851 
     82 H82        17.0260  -23.6908  -46.8119 H         1 UNK         0.0851 
     83 H83        17.4817  -25.3433  -47.2321 H         1 UNK         0.0851 
     84 H84        17.5144  -24.9814  -44.7485 H         1 UNK         0.2976 
     85 H85        22.5923  -25.0063  -46.2642 H         1 UNK         0.3116 
     86 H86        24.3262  -24.1264  -45.1739 H         1 UNK         0.0646 
     87 H87        25.7865  -26.7566  -45.7693 H         1 UNK         0.0847 
     88 H88        25.6833  -25.3711  -46.8543 H         1 UNK         0.0847 
     89 H89        26.5363  -25.2326  -45.3257 H         1 UNK         0.0847 
     90 H90        22.5204  -24.6640  -43.4790 H         1 UNK         0.3040 
     91 H91        22.0053  -24.7461  -41.3785 H         1 UNK         0.1015 
     92 H92        23.5908  -25.0249  -39.5245 H         1 UNK         0.0786 
     93 H93        24.2450  -23.9093  -40.7125 H         1 UNK         0.0786 
     94 H94        24.8546  -25.5607  -40.6159 H         1 UNK         0.0786 
     95 H95        24.0766  -27.4909  -42.1397 H         1 UNK         0.3172 
     96 H96        23.9044  -29.6640  -42.2253 H         1 UNK         0.0595 
     97 H97        20.8676  -29.4906  -42.2834 H         1 UNK         0.0839 
     98 H98        21.9207  -30.5828  -43.1573 H         1 UNK         0.0839 
     99 H99        21.8396  -28.8955  -43.6204 H         1 UNK         0.0839 
    100 H100       21.5098  -28.5382  -39.8745 H         1 UNK         0.2998 
    101 H101       20.6629  -29.2786  -37.9615 H         1 UNK         0.0822 
    102 H102       22.0819  -30.4947  -36.3299 H         1 UNK         0.0787 
    103 H103       23.0070  -29.2284  -37.1078 H         1 UNK         0.0787 
    104 H104       23.2487  -30.9008  -37.5891 H         1 UNK         0.0787 
    105 H105       21.6431  -32.3389  -37.2985 H         1 UNK         0.3055 
    106 H106       19.2273  -33.5595  -38.4669 H         1 UNK         0.1106 
    107 H107       19.8042  -33.9437  -36.0702 H         1 UNK         0.0828 
    108 H108       19.8274  -35.4506  -36.9671 H         1 UNK         0.0828 
    109 H109       21.3422  -34.6691  -36.5390 H         1 UNK         0.0828 
    110 H110       22.3795  -33.1140  -39.5923 H         1 UNK         0.2931 
    111 H111       23.7275  -34.0291  -41.0498 H         1 UNK         0.0412 
    112 H112       24.2223  -36.9856  -38.6537 H         1 UNK         0.3472 
    113 H113       23.3959  -35.4763  -38.3570 H         1 UNK         0.3472 
    114 H114       22.8707  -35.4928  -42.9152 H         1 UNK         0.0970 
    115 H115       21.3307  -35.6074  -42.1152 H         1 UNK         0.0970 
    116 H116       19.6564  -34.4344  -43.6797 H         1 UNK         0.0612 
    117 H117       19.5480  -33.6528  -42.1155 H         1 UNK         0.0612 
@<TRIPOS>BOND
     1    1    2 1    
     2    1   62 1    
     3    1   63 1    
     4    1   64 1    
     5    2    3 2    
     6    2    4 am   BACKBONE|DICT|INTERRES
     7    4    5 1    
     8    4   65 1    
     9    5    6 1    
    10    5   25 1    
    11    5   66 1    
    12    6    7 1    
    13    6   67 1    
    14    6   68 1    
    15    7    8 1    
    16    8    9 1    
    17    8   69 1    
    18    8   70 1    
    19    9   10 ar   
    20    9   14 ar   
    21   10   11 ar   
    22   10   71 1    
    23   11   12 ar   
    24   11   61 1    
    25   12   13 ar   
    26   12   72 1    
    27   13   14 ar   
    28   13   15 1    
    29   14   73 1    
    30   15   16 1    
    31   15   74 1    
    32   15   75 1    
    33   16   17 1    
    34   17   18 1    
    35   17   76 1    
    36   17   77 1    
    37   18   19 1    
    38   18   27 1    
    39   18   78 1    
    40   19   20 am   BACKBONE|DICT|INTERRES
    41   19   79 1    
    42   20   21 2    
    43   20   22 1    
    44   22   23 1    
    45   22   24 1    
    46   22   80 1    
    47   23   81 1    
    48   23   82 1    
    49   23   83 1    
    50   24   25 am   BACKBONE|DICT|INTERRES
    51   24   84 1    
    52   25   26 2    
    53   27   28 2    
    54   27   29 am   BACKBONE|DICT|INTERRES
    55   29   30 1    
    56   29   85 1    
    57   30   31 1    
    58   30   32 1    
    59   30   86 1    
    60   31   87 1    
    61   31   88 1    
    62   31   89 1    
    63   32   33 2    
    64   32   34 am   BACKBONE|DICT|INTERRES
    65   34   35 1    
    66   34   90 1    
    67   35   36 1    
    68   35   37 1    
    69   35   91 1    
    70   36   92 1    
    71   36   93 1    
    72   36   94 1    
    73   37   38 2    
    74   37   39 am   BACKBONE|DICT|INTERRES
    75   39   40 1    
    76   39   95 1    
    77   40   41 1    
    78   40   42 1    
    79   40   96 1    
    80   41   97 1    
    81   41   98 1    
    82   41   99 1    
    83   42   43 2    
    84   42   44 am   BACKBONE|DICT|INTERRES
    85   44   45 1    
    86   44  100 1    
    87   45   46 1    
    88   45   47 1    
    89   45  101 1    
    90   46  102 1    
    91   46  103 1    
    92   46  104 1    
    93   47   48 2    
    94   47   49 am   BACKBONE|DICT|INTERRES
    95   49   50 1    
    96   49  105 1    
    97   50   51 1    
    98   50   52 1    
    99   50  106 1    
   100   51  107 1    
   101   51  108 1    
   102   51  109 1    
   103   52   53 2    
   104   52   54 am   BACKBONE|DICT|INTERRES
   105   54   55 1    
   106   54  110 1    
   107   55   56 1    
   108   55   59 1    
   109   55  111 1    
   110   56   57 am   BACKBONE|DICT|INTERRES
   111   56   58 2    
   112   57  112 1    
   113   57  113 1    
   114   59   60 1    
   115   59  114 1    
   116   59  115 1    
   117   60   61 1    
   118   61  116 1    
   119   61  117 1    
@<TRIPOS>SUBSTRUCTURE
     1 UNK         1 GROUP             0       ****    0 ROOT    
