@<TRIPOS>MOLECULE
3R8
117   119    1
SMALL
USER_CHARGES


@<TRIPOS>ATOM
      1 CA         21.1194  -33.4557  -47.3680 C.3       0 UNK        -0.2013 
      2 C          20.5174  -32.4347  -46.4145 C.2       0 UNK         0.4866 
      3 O          20.4625  -32.6852  -45.2107 O.2       0 UNK        -0.5176 
      4 N          20.0689  -31.2924  -46.9456 N.am      1 UNK        -0.4884 
      5 CA         19.5070  -30.1759  -46.1820 C.3       1 UNK         0.0853 
      6 C6         18.1461  -29.7135  -46.7618 C.3       10 UNK        -0.0849 
      7 S7         16.8415  -30.9453  -46.4145 S.3       10 UNK        -0.2776 
      8 C8         15.7350  -30.0645  -45.2544 C.3       10 UNK         0.0316 
      9 C9         16.4677  -29.3499  -44.1221 C.ar      10 UNK        -0.0863 
     10 C10        17.4246  -30.0153  -43.3512 C.ar      10 UNK        -0.1009 
     11 C11        18.1354  -29.3381  -42.3564 C.ar      10 UNK        -0.0712 
     12 C12        17.8494  -27.9938  -42.0987 C.ar      10 UNK        -0.0894 
     13 C13        16.8793  -27.3205  -42.8491 C.ar      10 UNK        -0.0745 
     14 C14        16.1947  -28.0049  -43.8578 C.ar      10 UNK        -0.0972 
     15 C15        16.5604  -25.8546  -42.5890 C.3       10 UNK         0.0209 
     16 S16        17.2483  -24.7916  -43.8999 S.3       10 UNK        -0.2568 
     17 C17        18.5746  -23.8893  -43.0304 C.3       10 UNK        -0.0983 
     18 CA         19.7546  -24.7811  -42.5735 C.3       3 UNK         0.0876 
     19 N          20.2999  -25.5962  -43.6638 N.am      3 UNK        -0.4424 
     20 C          21.2063  -26.5672  -43.5067 C.2       2 UNK         0.4918 
     21 O          21.6543  -26.9180  -42.4129 O.2       2 UNK        -0.4875 
     22 CA         21.6401  -27.2990  -44.7797 C.3       2 UNK         0.0481 
     23 CB         23.0760  -27.8494  -44.6720 C.3       2 UNK        -0.1831 
     24 N          20.6951  -28.3857  -45.0144 N.am      2 UNK        -0.4498 
     25 C          20.5280  -29.0282  -46.1760 C.2       1 UNK         0.5027 
     26 O          21.1296  -28.7439  -47.2154 O.2       1 UNK        -0.4969 
     27 C          20.8506  -23.9289  -41.9018 C.2       3 UNK         0.5005 
     28 O          21.7960  -23.5063  -42.5734 O.2       3 UNK        -0.5279 
     29 N          20.7153  -23.7167  -40.5844 N.am      4 UNK        -0.4463 
     30 CA         21.6386  -23.0317  -39.6636 C.3       4 UNK         0.0283 
     31 CB         21.8896  -21.5683  -40.0779 C.3       4 UNK        -0.1875 
     32 C          22.9645  -23.7796  -39.4233 C.2       4 UNK         0.4949 
     33 O          23.4074  -23.8563  -38.2774 O.2       4 UNK        -0.5039 
     34 N          23.5620  -24.3329  -40.4861 N.am      5 UNK        -0.4663 
     35 CA         24.7584  -25.1762  -40.4396 C.3       5 UNK         0.0242 
     36 CB         25.3042  -25.3624  -41.8644 C.3       5 UNK        -0.1982 
     37 C          24.4948  -26.5408  -39.7813 C.2       5 UNK         0.5017 
     38 O          25.3522  -27.0276  -39.0441 O.2       5 UNK        -0.5012 
     39 N          23.3178  -27.1221  -40.0643 N.am      6 UNK        -0.4439 
     40 CA         22.8169  -28.4129  -39.5761 C.3       6 UNK         0.0297 
     41 CB         22.5943  -28.3804  -38.0493 C.3       6 UNK        -0.2006 
     42 C          23.6576  -29.6212  -40.0368 C.2       6 UNK         0.4892 
     43 O          23.6766  -30.6482  -39.3557 O.2       6 UNK        -0.5089 
     44 N          24.3283  -29.4853  -41.1893 N.am      7 UNK        -0.4243 
     45 CA         25.0725  -30.5581  -41.8493 C.3       7 UNK         0.0196 
     46 CB         26.0014  -29.9523  -42.9141 C.3       7 UNK        -0.2007 
     47 C          24.1055  -31.5723  -42.4791 C.2       7 UNK         0.5020 
     48 O          23.0616  -31.1668  -42.9943 O.2       7 UNK        -0.5147 
     49 N          24.4803  -32.8597  -42.4345 N.am      8 UNK        -0.4734 
     50 CA         23.6787  -34.0241  -42.8364 C.3       8 UNK         0.0238 
     51 CB         23.4601  -34.0568  -44.3651 C.3       8 UNK        -0.1912 
     52 C          22.3857  -34.1100  -42.0031 C.2       8 UNK         0.5038 
     53 O          22.4536  -34.5695  -40.8615 O.2       8 UNK        -0.5046 
     54 N          21.2631  -33.6281  -42.5510 N.am      9 UNK        -0.4200 
     55 CA         19.9628  -33.5050  -41.8805 C.3       9 UNK         0.0839 
     56 C          19.2656  -34.8678  -41.5922 C.2       9 UNK         0.5513 
     57 N          18.1853  -34.8665  -40.8229 N.am      9 UNK        -0.7519 
     58 O          19.6615  -35.9212  -42.0884 O.2       9 UNK        -0.4960 
     59 C59        20.0314  -32.5452  -40.6491 C.3       10 UNK        -0.0876 
     60 S60        18.6038  -31.4150  -40.5811 S.3       10 UNK        -0.2414 
     61 C61        19.2453  -30.0535  -41.6035 C.3       10 UNK         0.0169 
     62 H62        22.1854  -33.5693  -47.1734 H         1 UNK         0.0903 
     63 H63        20.6420  -34.4252  -47.2282 H         1 UNK         0.0903 
     64 H64        20.9929  -33.1642  -48.4105 H         1 UNK         0.0903 
     65 H65        20.1944  -31.1150  -47.9326 H         1 UNK         0.3096 
     66 H66        19.3595  -30.4815  -45.1460 H         1 UNK         0.1121 
     67 H67        17.8500  -28.7455  -46.3534 H         1 UNK         0.0849 
     68 H68        18.2140  -29.5693  -47.8416 H         1 UNK         0.0849 
     69 H69        15.1351  -29.3569  -45.8289 H         1 UNK         0.0865 
     70 H70        15.0333  -30.7801  -44.8241 H         1 UNK         0.0865 
     71 H71        17.6411  -31.0570  -43.5473 H         1 UNK         0.1346 
     72 H72        18.3896  -27.4741  -41.3205 H         1 UNK         0.1412 
     73 H73        15.4548  -27.4786  -44.4459 H         1 UNK         0.1426 
     74 H74        16.9227  -25.5425  -41.6087 H         1 UNK         0.0716 
     75 H75        15.4777  -25.7223  -42.5647 H         1 UNK         0.0716 
     76 H76        18.1309  -23.3712  -42.1778 H         1 UNK         0.0695 
     77 H77        18.9311  -23.1080  -43.7048 H         1 UNK         0.0695 
     78 H78        19.3845  -25.4758  -41.8197 H         1 UNK         0.0983 
     79 H79        19.9667  -25.3750  -44.5903 H         1 UNK         0.3095 
     80 H80        21.5969  -26.5942  -45.6128 H         1 UNK         0.0454 
     81 H81        23.1574  -28.5955  -43.8817 H         1 UNK         0.0851 
     82 H82        23.7852  -27.0520  -44.4505 H         1 UNK         0.0851 
     83 H83        23.3981  -28.3162  -45.6026 H         1 UNK         0.0851 
     84 H84        20.1408  -28.6536  -44.2119 H         1 UNK         0.2976 
     85 H85        19.9084  -24.1223  -40.1293 H         1 UNK         0.3116 
     86 H86        21.1210  -23.0080  -38.7030 H         1 UNK         0.0646 
     87 H87        20.9536  -21.0230  -40.1975 H         1 UNK         0.0847 
     88 H88        22.4733  -21.0466  -39.3183 H         1 UNK         0.0847 
     89 H89        22.4437  -21.4938  -41.0138 H         1 UNK         0.0847 
     90 H90        23.1276  -24.1784  -41.3928 H         1 UNK         0.3040 
     91 H91        25.5156  -24.6619  -39.8434 H         1 UNK         0.1015 
     92 H92        24.5685  -25.8295  -42.5194 H         1 UNK         0.0786 
     93 H93        26.1932  -25.9949  -41.8646 H         1 UNK         0.0786 
     94 H94        25.5867  -24.4072  -42.3074 H         1 UNK         0.0786 
     95 H95        22.7198  -26.6737  -40.7528 H         1 UNK         0.3172 
     96 H96        21.8400  -28.5416  -40.0425 H         1 UNK         0.0595 
     97 H97        23.5368  -28.3265  -37.5038 H         1 UNK         0.0839 
     98 H98        21.9863  -27.5251  -37.7549 H         1 UNK         0.0839 
     99 H99        22.0747  -29.2775  -37.7104 H         1 UNK         0.0839 
    100 H100       24.2156  -28.6245  -41.7025 H         1 UNK         0.2998 
    101 H101       25.6842  -31.0635  -41.0986 H         1 UNK         0.0822 
    102 H102       26.6055  -30.7268  -43.3884 H         1 UNK         0.0787 
    103 H103       25.4425  -29.4496  -43.7036 H         1 UNK         0.0787 
    104 H104       26.6892  -29.2286  -42.4760 H         1 UNK         0.0787 
    105 H105       25.3549  -33.0805  -41.9778 H         1 UNK         0.3055 
    106 H106       24.2590  -34.9113  -42.5764 H         1 UNK         0.1106 
    107 H107       24.4038  -34.2077  -44.8889 H         1 UNK         0.0828 
    108 H108       22.7986  -34.8753  -44.6525 H         1 UNK         0.0828 
    109 H109       23.0256  -33.1325  -44.7424 H         1 UNK         0.0828 
    110 H110       21.2867  -33.2692  -43.5011 H         1 UNK         0.2931 
    111 H111       19.3413  -33.0393  -42.6462 H         1 UNK         0.0412 
    112 H112       17.7084  -35.7350  -40.6364 H         1 UNK         0.3472 
    113 H113       17.8371  -34.0032  -40.4329 H         1 UNK         0.3472 
    114 H114       20.1003  -33.1015  -39.7124 H         1 UNK         0.0970 
    115 H115       20.9364  -31.9346  -40.6774 H         1 UNK         0.0970 
    116 H116       19.7978  -29.3619  -40.9668 H         1 UNK         0.0612 
    117 H117       19.9603  -30.4395  -42.3326 H         1 UNK         0.0612 
@<TRIPOS>BOND
     1    1    2 1    
     2    1   62 1    
     3    1   63 1    
     4    1   64 1    
     5    2    3 2    
     6    2    4 am   BACKBONE|DICT|INTERRES
     7    4    5 1    
     8    4   65 1    
     9    5    6 1    
    10    5   25 1    
    11    5   66 1    
    12    6    7 1    
    13    6   67 1    
    14    6   68 1    
    15    7    8 1    
    16    8    9 1    
    17    8   69 1    
    18    8   70 1    
    19    9   10 ar   
    20    9   14 ar   
    21   10   11 ar   
    22   10   71 1    
    23   11   12 ar   
    24   11   61 1    
    25   12   13 ar   
    26   12   72 1    
    27   13   14 ar   
    28   13   15 1    
    29   14   73 1    
    30   15   16 1    
    31   15   74 1    
    32   15   75 1    
    33   16   17 1    
    34   17   18 1    
    35   17   76 1    
    36   17   77 1    
    37   18   19 1    
    38   18   27 1    
    39   18   78 1    
    40   19   20 am   BACKBONE|DICT|INTERRES
    41   19   79 1    
    42   20   21 2    
    43   20   22 1    
    44   22   23 1    
    45   22   24 1    
    46   22   80 1    
    47   23   81 1    
    48   23   82 1    
    49   23   83 1    
    50   24   25 am   BACKBONE|DICT|INTERRES
    51   24   84 1    
    52   25   26 2    
    53   27   28 2    
    54   27   29 am   BACKBONE|DICT|INTERRES
    55   29   30 1    
    56   29   85 1    
    57   30   31 1    
    58   30   32 1    
    59   30   86 1    
    60   31   87 1    
    61   31   88 1    
    62   31   89 1    
    63   32   33 2    
    64   32   34 am   BACKBONE|DICT|INTERRES
    65   34   35 1    
    66   34   90 1    
    67   35   36 1    
    68   35   37 1    
    69   35   91 1    
    70   36   92 1    
    71   36   93 1    
    72   36   94 1    
    73   37   38 2    
    74   37   39 am   BACKBONE|DICT|INTERRES
    75   39   40 1    
    76   39   95 1    
    77   40   41 1    
    78   40   42 1    
    79   40   96 1    
    80   41   97 1    
    81   41   98 1    
    82   41   99 1    
    83   42   43 2    
    84   42   44 am   BACKBONE|DICT|INTERRES
    85   44   45 1    
    86   44  100 1    
    87   45   46 1    
    88   45   47 1    
    89   45  101 1    
    90   46  102 1    
    91   46  103 1    
    92   46  104 1    
    93   47   48 2    
    94   47   49 am   BACKBONE|DICT|INTERRES
    95   49   50 1    
    96   49  105 1    
    97   50   51 1    
    98   50   52 1    
    99   50  106 1    
   100   51  107 1    
   101   51  108 1    
   102   51  109 1    
   103   52   53 2    
   104   52   54 am   BACKBONE|DICT|INTERRES
   105   54   55 1    
   106   54  110 1    
   107   55   56 1    
   108   55   59 1    
   109   55  111 1    
   110   56   57 am   BACKBONE|DICT|INTERRES
   111   56   58 2    
   112   57  112 1    
   113   57  113 1    
   114   59   60 1    
   115   59  114 1    
   116   59  115 1    
   117   60   61 1    
   118   61  116 1    
   119   61  117 1    
@<TRIPOS>SUBSTRUCTURE
     1 UNK         1 GROUP             0       ****    0 ROOT    
