@<TRIPOS>MOLECULE
3R8
117   119    1
SMALL
USER_CHARGES


@<TRIPOS>ATOM
      1 CA         19.4735  -25.3159  -41.1045 C.3       0 UNK        -0.2013 
      2 C          18.9085  -25.4485  -42.5098 C.2       0 UNK         0.4866 
      3 O          19.6321  -25.8643  -43.4155 O.2       0 UNK        -0.5176 
      4 N          17.6344  -25.0721  -42.7028 N.am      1 UNK        -0.4884 
      5 CA         16.8300  -25.2366  -43.9316 C.3       1 UNK         0.0853 
      6 C6         16.6032  -26.7279  -44.2996 C.3       10 UNK        -0.0849 
      7 S7         15.8950  -27.7389  -42.9537 S.3       10 UNK        -0.2776 
      8 C8         15.8486  -29.3847  -43.7417 C.3       10 UNK         0.0316 
      9 C9         17.2414  -29.8663  -44.1243 C.ar      10 UNK        -0.0863 
     10 C10        18.0587  -30.4913  -43.1789 C.ar      10 UNK        -0.1009 
     11 C11        19.3579  -30.8856  -43.5142 C.ar      10 UNK        -0.0712 
     12 C12        19.8431  -30.6360  -44.8030 C.ar      10 UNK        -0.0894 
     13 C13        19.0322  -30.0129  -45.7577 C.ar      10 UNK        -0.0745 
     14 C14        17.7243  -29.6578  -45.4193 C.ar      10 UNK        -0.0972 
     15 C15        19.5624  -29.7087  -47.1530 C.3       10 UNK         0.0209 
     16 S16        19.6756  -27.9144  -47.4682 S.3       10 UNK        -0.2568 
     17 C17        20.9819  -27.4384  -46.2932 C.3       10 UNK        -0.0983 
     18 CA         21.4089  -25.9549  -46.4335 C.3       3 UNK         0.0876 
     19 N          20.3221  -25.0251  -46.1135 N.am      3 UNK        -0.4424 
     20 C          20.2343  -23.7607  -46.5507 C.2       2 UNK         0.4918 
     21 O          20.9913  -23.2868  -47.3988 O.2       2 UNK        -0.4875 
     22 CA         19.1682  -22.8436  -45.9063 C.3       2 UNK         0.0481 
     23 CB         18.3517  -22.0686  -46.9618 C.3       2 UNK        -0.1831 
     24 N          18.3045  -23.5201  -44.9265 N.am      2 UNK        -0.4498 
     25 C          17.3749  -24.4602  -45.1578 C.2       1 UNK         0.5027 
     26 O          16.9810  -24.7585  -46.2859 O.2       1 UNK        -0.4969 
     27 C          22.6154  -25.6779  -45.5171 C.2       3 UNK         0.5005 
     28 O          23.7564  -25.7787  -45.9683 O.2       3 UNK        -0.5279 
     29 N          22.3285  -25.3585  -44.2430 N.am      4 UNK        -0.4463 
     30 CA         23.2592  -25.1021  -43.1343 C.3       4 UNK         0.0283 
     31 CB         24.2121  -23.9304  -43.4509 C.3       4 UNK        -0.1875 
     32 C          24.0104  -26.3559  -42.6421 C.2       4 UNK         0.4949 
     33 O          24.9195  -26.2319  -41.8211 O.2       4 UNK        -0.5039 
     34 N          23.6048  -27.5402  -43.1212 N.am      5 UNK        -0.4663 
     35 CA         24.1267  -28.8432  -42.7051 C.3       5 UNK         0.0242 
     36 CB         23.7162  -29.8977  -43.7446 C.3       5 UNK        -0.1982 
     37 C          23.6604  -29.2288  -41.2907 C.2       5 UNK         0.5017 
     38 O          24.4533  -29.7809  -40.5270 O.2       5 UNK        -0.5012 
     39 N          22.4003  -28.8879  -40.9706 N.am      6 UNK        -0.4439 
     40 CA         21.7470  -28.9525  -39.6575 C.3       6 UNK         0.0297 
     41 CB         22.1608  -27.7203  -38.8217 C.3       6 UNK        -0.2006 
     42 C          21.9593  -30.2941  -38.9266 C.2       6 UNK         0.4892 
     43 O          21.3476  -31.2933  -39.3064 O.2       6 UNK        -0.5089 
     44 N          22.8372  -30.2963  -37.9128 N.am      7 UNK        -0.4243 
     45 CA         23.1980  -31.4455  -37.0777 C.3       7 UNK         0.0196 
     46 CB         24.1807  -30.9841  -35.9895 C.3       7 UNK        -0.2007 
     47 C          23.7746  -32.6501  -37.8437 C.2       7 UNK         0.5020 
     48 O          23.7048  -33.7662  -37.3284 O.2       7 UNK        -0.5147 
     49 N          24.2938  -32.4350  -39.0625 N.am      8 UNK        -0.4734 
     50 CA         24.7588  -33.4972  -39.9625 C.3       8 UNK         0.0238 
     51 CB         25.4496  -32.8705  -41.1823 C.3       8 UNK        -0.1912 
     52 C          23.6460  -34.4654  -40.4115 C.2       8 UNK         0.5038 
     53 O          23.9585  -35.6044  -40.7611 O.2       8 UNK        -0.5046 
     54 N          22.3824  -34.0178  -40.3702 N.am      9 UNK        -0.4200 
     55 CA         21.1961  -34.8661  -40.5646 C.3       9 UNK         0.0839 
     56 C          20.8107  -35.7112  -39.3131 C.2       9 UNK         0.5513 
     57 N          21.4644  -35.5678  -38.1654 N.am      9 UNK        -0.7519 
     58 O          19.8991  -36.5310  -39.3890 O.2       9 UNK        -0.4960 
     59 C59        19.9837  -34.0531  -41.0886 C.3       10 UNK        -0.0876 
     60 S60        20.2711  -33.3731  -42.7591 S.3       10 UNK        -0.2414 
     61 C61        20.2326  -31.5757  -42.4790 C.3       10 UNK         0.0169 
     62 H62        19.7976  -26.2911  -40.7429 H         1 UNK         0.0903 
     63 H63        20.3336  -24.6474  -41.1049 H         1 UNK         0.0903 
     64 H64        18.7372  -24.9229  -40.4038 H         1 UNK         0.0903 
     65 H65        17.1151  -24.7152  -41.9119 H         1 UNK         0.3096 
     66 H66        15.8543  -24.7964  -43.7195 H         1 UNK         0.1121 
     67 H67        17.5573  -27.1619  -44.5987 H         1 UNK         0.0849 
     68 H68        15.9380  -26.8212  -45.1603 H         1 UNK         0.0849 
     69 H69        15.3882  -30.0957  -43.0539 H         1 UNK         0.0865 
     70 H70        15.2011  -29.3492  -44.6193 H         1 UNK         0.0865 
     71 H71        17.6850  -30.6612  -42.1783 H         1 UNK         0.1346 
     72 H72        20.8490  -30.9342  -45.0629 H         1 UNK         0.1412 
     73 H73        17.0991  -29.1708  -46.1555 H         1 UNK         0.1426 
     74 H74        18.8956  -30.1549  -47.8920 H         1 UNK         0.0716 
     75 H75        20.5415  -30.1644  -47.3083 H         1 UNK         0.0716 
     76 H76        20.6256  -27.6453  -45.2820 H         1 UNK         0.0695 
     77 H77        21.8350  -28.0989  -46.4624 H         1 UNK         0.0695 
     78 H78        21.7306  -25.7852  -47.4636 H         1 UNK         0.0983 
     79 H79        19.6871  -25.3304  -45.3853 H         1 UNK         0.3095 
     80 H80        19.7283  -22.1058  -45.3303 H         1 UNK         0.0454 
     81 H81        17.5997  -21.4323  -46.4958 H         1 UNK         0.0851 
     82 H82        18.9991  -21.4214  -47.5546 H         1 UNK         0.0851 
     83 H83        17.8446  -22.7356  -47.6591 H         1 UNK         0.0851 
     84 H84        18.5453  -23.3598  -43.9578 H         1 UNK         0.2976 
     85 H85        21.3458  -25.3834  -43.9756 H         1 UNK         0.3116 
     86 H86        22.6332  -24.7907  -42.2971 H         1 UNK         0.0646 
     87 H87        24.7757  -23.6355  -42.5649 H         1 UNK         0.0847 
     88 H88        23.6634  -23.0521  -43.7906 H         1 UNK         0.0847 
     89 H89        24.9387  -24.1921  -44.2203 H         1 UNK         0.0847 
     90 H90        22.8661  -27.5382  -43.8077 H         1 UNK         0.3040 
     91 H91        25.2177  -28.7884  -42.6846 H         1 UNK         0.1015 
     92 H92        24.1742  -29.6922  -44.7124 H         1 UNK         0.0786 
     93 H93        22.6375  -29.9215  -43.8894 H         1 UNK         0.0786 
     94 H94        24.0316  -30.8972  -43.4474 H         1 UNK         0.0786 
     95 H95        21.8453  -28.4712  -41.7036 H         1 UNK         0.3172 
     96 H96        20.6742  -28.8783  -39.8426 H         1 UNK         0.0595 
     97 H97        21.8546  -26.7963  -39.3118 H         1 UNK         0.0839 
     98 H98        23.2403  -27.6637  -38.6756 H         1 UNK         0.0839 
     99 H99        21.6874  -27.7288  -37.8387 H         1 UNK         0.0839 
    100 H100       23.3159  -29.4309  -37.7104 H         1 UNK         0.2998 
    101 H101       22.2831  -31.7890  -36.5906 H         1 UNK         0.0822 
    102 H102       24.4479  -31.8097  -35.3280 H         1 UNK         0.0787 
    103 H103       25.1061  -30.5990  -36.4200 H         1 UNK         0.0787 
    104 H104       23.7468  -30.2015  -35.3667 H         1 UNK         0.0787 
    105 H105       24.3138  -31.4856  -39.4252 H         1 UNK         0.3055 
    106 H106       25.4977  -34.0894  -39.4181 H         1 UNK         0.1106 
    107 H107       26.2680  -32.2144  -40.8856 H         1 UNK         0.0828 
    108 H108       25.8681  -33.6393  -41.8332 H         1 UNK         0.0828 
    109 H109       24.7488  -32.2866  -41.7767 H         1 UNK         0.0828 
    110 H110       22.2037  -33.0714  -40.0532 H         1 UNK         0.2931 
    111 H111       21.4391  -35.5996  -41.3360 H         1 UNK         0.0412 
    112 H112       21.1937  -36.1344  -37.3772 H         1 UNK         0.3472 
    113 H113       22.2325  -34.9134  -38.0683 H         1 UNK         0.3472 
    114 H114       19.7210  -33.2652  -40.3815 H         1 UNK         0.0970 
    115 H115       19.0994  -34.6890  -41.1620 H         1 UNK         0.0970 
    116 H116       19.8615  -31.3454  -41.4808 H         1 UNK         0.0612 
    117 H117       21.2504  -31.1899  -42.5178 H         1 UNK         0.0612 
@<TRIPOS>BOND
     1    1    2 1    
     2    1   62 1    
     3    1   63 1    
     4    1   64 1    
     5    2    3 2    
     6    2    4 am   BACKBONE|DICT|INTERRES
     7    4    5 1    
     8    4   65 1    
     9    5    6 1    
    10    5   25 1    
    11    5   66 1    
    12    6    7 1    
    13    6   67 1    
    14    6   68 1    
    15    7    8 1    
    16    8    9 1    
    17    8   69 1    
    18    8   70 1    
    19    9   10 ar   
    20    9   14 ar   
    21   10   11 ar   
    22   10   71 1    
    23   11   12 ar   
    24   11   61 1    
    25   12   13 ar   
    26   12   72 1    
    27   13   14 ar   
    28   13   15 1    
    29   14   73 1    
    30   15   16 1    
    31   15   74 1    
    32   15   75 1    
    33   16   17 1    
    34   17   18 1    
    35   17   76 1    
    36   17   77 1    
    37   18   19 1    
    38   18   27 1    
    39   18   78 1    
    40   19   20 am   BACKBONE|DICT|INTERRES
    41   19   79 1    
    42   20   21 2    
    43   20   22 1    
    44   22   23 1    
    45   22   24 1    
    46   22   80 1    
    47   23   81 1    
    48   23   82 1    
    49   23   83 1    
    50   24   25 am   BACKBONE|DICT|INTERRES
    51   24   84 1    
    52   25   26 2    
    53   27   28 2    
    54   27   29 am   BACKBONE|DICT|INTERRES
    55   29   30 1    
    56   29   85 1    
    57   30   31 1    
    58   30   32 1    
    59   30   86 1    
    60   31   87 1    
    61   31   88 1    
    62   31   89 1    
    63   32   33 2    
    64   32   34 am   BACKBONE|DICT|INTERRES
    65   34   35 1    
    66   34   90 1    
    67   35   36 1    
    68   35   37 1    
    69   35   91 1    
    70   36   92 1    
    71   36   93 1    
    72   36   94 1    
    73   37   38 2    
    74   37   39 am   BACKBONE|DICT|INTERRES
    75   39   40 1    
    76   39   95 1    
    77   40   41 1    
    78   40   42 1    
    79   40   96 1    
    80   41   97 1    
    81   41   98 1    
    82   41   99 1    
    83   42   43 2    
    84   42   44 am   BACKBONE|DICT|INTERRES
    85   44   45 1    
    86   44  100 1    
    87   45   46 1    
    88   45   47 1    
    89   45  101 1    
    90   46  102 1    
    91   46  103 1    
    92   46  104 1    
    93   47   48 2    
    94   47   49 am   BACKBONE|DICT|INTERRES
    95   49   50 1    
    96   49  105 1    
    97   50   51 1    
    98   50   52 1    
    99   50  106 1    
   100   51  107 1    
   101   51  108 1    
   102   51  109 1    
   103   52   53 2    
   104   52   54 am   BACKBONE|DICT|INTERRES
   105   54   55 1    
   106   54  110 1    
   107   55   56 1    
   108   55   59 1    
   109   55  111 1    
   110   56   57 am   BACKBONE|DICT|INTERRES
   111   56   58 2    
   112   57  112 1    
   113   57  113 1    
   114   59   60 1    
   115   59  114 1    
   116   59  115 1    
   117   60   61 1    
   118   61  116 1    
   119   61  117 1    
@<TRIPOS>SUBSTRUCTURE
     1 UNK         1 GROUP             0       ****    0 ROOT    
