@<TRIPOS>MOLECULE
3R8
117   119    1
SMALL
USER_CHARGES


@<TRIPOS>ATOM
      1 CA         15.0687  -23.9827  -48.9705 C.3       0 UNK        -0.2013 
      2 C          15.2863  -24.5719  -47.5846 C.2       0 UNK         0.4866 
      3 O          14.6923  -24.0899  -46.6193 O.2       0 UNK        -0.5176 
      4 N          16.1302  -25.6088  -47.4874 N.am      1 UNK        -0.4884 
      5 CA         16.5103  -26.3156  -46.2546 C.3       1 UNK         0.0853 
      6 C6         15.3323  -27.0970  -45.6010 C.3       10 UNK        -0.0849 
      7 S7         14.6974  -28.3945  -46.7172 S.3       10 UNK        -0.2776 
      8 C8         14.7081  -29.8704  -45.6378 C.3       10 UNK         0.0316 
      9 C9         16.0746  -30.2856  -45.0854 C.ar      10 UNK        -0.0863 
     10 C10        16.1181  -31.0154  -43.8928 C.ar      10 UNK        -0.1009 
     11 C11        17.3340  -31.4585  -43.3651 C.ar      10 UNK        -0.0712 
     12 C12        18.5229  -31.1550  -44.0344 C.ar      10 UNK        -0.0894 
     13 C13        18.5024  -30.4052  -45.2127 C.ar      10 UNK        -0.0745 
     14 C14        17.2764  -29.9930  -45.7447 C.ar      10 UNK        -0.0972 
     15 C15        19.8016  -30.0648  -45.9289 C.3       10 UNK         0.0209 
     16 S16        20.3152  -28.3400  -45.6439 S.3       10 UNK        -0.2568 
     17 C17        20.9814  -28.3840  -43.9418 C.3       10 UNK        -0.0983 
     18 CA         20.9788  -26.9737  -43.2977 C.3       3 UNK         0.0876 
     19 N          19.6207  -26.4388  -43.1857 N.am      3 UNK        -0.4424 
     20 C          19.3011  -25.1707  -42.8955 C.2       2 UNK         0.4918 
     21 O          20.1299  -24.2855  -42.6746 O.2       2 UNK        -0.4875 
     22 CA         17.7919  -24.8460  -42.8873 C.3       2 UNK         0.0481 
     23 CB         17.4992  -23.3303  -42.8795 C.3       2 UNK        -0.1831 
     24 N          17.0672  -25.5181  -43.9765 N.am      2 UNK        -0.4498 
     25 C          17.2900  -25.3854  -45.2956 C.2       1 UNK         0.5027 
     26 O          18.1124  -24.5984  -45.7718 O.2       1 UNK        -0.4969 
     27 C          21.6860  -26.9700  -41.9262 C.2       3 UNK         0.5005 
     28 O          21.0486  -27.2504  -40.9066 O.2       3 UNK        -0.5279 
     29 N          22.9832  -26.6321  -41.9271 N.am      4 UNK        -0.4463 
     30 CA         23.8335  -26.6112  -40.7365 C.3       4 UNK         0.0283 
     31 CB         25.0988  -25.7870  -41.0252 C.3       4 UNK        -0.1875 
     32 C          24.2089  -28.0404  -40.3285 C.2       4 UNK         0.4949 
     33 O          24.6386  -28.8120  -41.1879 O.2       4 UNK        -0.5039 
     34 N          24.0830  -28.3477  -39.0299 N.am      5 UNK        -0.4663 
     35 CA         24.2223  -29.6895  -38.4435 C.3       5 UNK         0.0242 
     36 CB         23.9357  -29.6104  -36.9354 C.3       5 UNK        -0.1982 
     37 C          25.5643  -30.3996  -38.7000 C.2       5 UNK         0.5017 
     38 O          25.6132  -31.6289  -38.6537 O.2       5 UNK        -0.5012 
     39 N          26.6194  -29.6244  -38.9853 N.am      6 UNK        -0.4439 
     40 CA         27.9264  -30.1188  -39.4233 C.3       6 UNK         0.0297 
     41 CB         28.9381  -28.9617  -39.3938 C.3       6 UNK        -0.2006 
     42 C          27.8983  -30.7718  -40.8202 C.2       6 UNK         0.4892 
     43 O          28.7506  -31.6170  -41.0964 O.2       6 UNK        -0.5089 
     44 N          26.9390  -30.3736  -41.6676 N.am      7 UNK        -0.4243 
     45 CA         26.7182  -30.9222  -43.0028 C.3       7 UNK         0.0196 
     46 CB         26.4377  -29.7777  -43.9926 C.3       7 UNK        -0.2007 
     47 C          25.5621  -31.9307  -42.9879 C.2       7 UNK         0.5020 
     48 O          25.7491  -33.0597  -43.4426 O.2       7 UNK        -0.5147 
     49 N          24.3943  -31.5218  -42.4735 N.am      8 UNK        -0.4734 
     50 CA         23.1700  -32.3251  -42.4372 C.3       8 UNK         0.0238 
     51 CB         22.5709  -32.4410  -43.8540 C.3       8 UNK        -0.1912 
     52 C          22.1520  -31.6853  -41.4871 C.2       8 UNK         0.5038 
     53 O          22.2224  -30.4825  -41.2444 O.2       8 UNK        -0.5046 
     54 N          21.1876  -32.4852  -41.0180 N.am      9 UNK        -0.4200 
     55 CA         20.1340  -32.0923  -40.0667 C.3       9 UNK         0.0839 
     56 C          20.6475  -31.9236  -38.6059 C.2       9 UNK         0.5513 
     57 N          19.8196  -31.4118  -37.7049 N.am      9 UNK        -0.7519 
     58 O          21.7666  -32.2995  -38.2645 O.2       9 UNK        -0.4960 
     59 C59        19.2626  -30.8969  -40.5788 C.3       10 UNK        -0.0876 
     60 S60        17.4822  -31.2844  -40.5859 S.3       10 UNK        -0.2414 
     61 C61        17.3517  -32.2982  -42.0950 C.3       10 UNK         0.0169 
     62 H62        15.3652  -22.9342  -48.9830 H         1 UNK         0.0903 
     63 H63        15.6446  -24.5070  -49.7330 H         1 UNK         0.0903 
     64 H64        14.0150  -24.0423  -49.2418 H         1 UNK         0.0903 
     65 H65        16.5986  -25.9333  -48.3219 H         1 UNK         0.3096 
     66 H66        17.2547  -27.0524  -46.5600 H         1 UNK         0.1121 
     67 H67        14.5123  -26.4277  -45.3358 H         1 UNK         0.0849 
     68 H68        15.6449  -27.5782  -44.6738 H         1 UNK         0.0849 
     69 H69        14.0154  -29.6895  -44.8141 H         1 UNK         0.0865 
     70 H70        14.2988  -30.7099  -46.2011 H         1 UNK         0.0865 
     71 H71        15.1979  -31.2578  -43.3782 H         1 UNK         0.1346 
     72 H72        19.4664  -31.5066  -43.6418 H         1 UNK         0.1412 
     73 H73        17.2670  -29.4468  -46.6769 H         1 UNK         0.1426 
     74 H74        19.6684  -30.2149  -47.0012 H         1 UNK         0.0716 
     75 H75        20.6028  -30.7399  -45.6287 H         1 UNK         0.0716 
     76 H76        21.9948  -28.7882  -43.9851 H         1 UNK         0.0695 
     77 H77        20.3994  -29.0798  -43.3360 H         1 UNK         0.0695 
     78 H78        21.5308  -26.2999  -43.9572 H         1 UNK         0.0983 
     79 H79        18.8763  -27.0998  -43.3447 H         1 UNK         0.3095 
     80 H80        17.3984  -25.2597  -41.9577 H         1 UNK         0.0454 
     81 H81        16.4275  -23.1330  -42.8618 H         1 UNK         0.0851 
     82 H82        17.9175  -22.8305  -43.7536 H         1 UNK         0.0851 
     83 H83        17.9300  -22.8543  -41.9979 H         1 UNK         0.0851 
     84 H84        16.3637  -26.1798  -43.6803 H         1 UNK         0.2976 
     85 H85        23.4436  -26.4551  -42.8081 H         1 UNK         0.3116 
     86 H86        23.2849  -26.1316  -39.9228 H         1 UNK         0.0646 
     87 H87        25.6917  -26.2225  -41.8310 H         1 UNK         0.0847 
     88 H88        25.7389  -25.7333  -40.1437 H         1 UNK         0.0847 
     89 H89        24.8509  -24.7632  -41.3059 H         1 UNK         0.0847 
     90 H90        23.7452  -27.6291  -38.4054 H         1 UNK         0.3040 
     91 H91        23.4535  -30.3137  -38.9011 H         1 UNK         0.1015 
     92 H92        24.6489  -28.9649  -36.4213 H         1 UNK         0.0786 
     93 H93        23.9960  -30.5980  -36.4753 H         1 UNK         0.0786 
     94 H94        22.9324  -29.2303  -36.7419 H         1 UNK         0.0786 
     95 H95        26.4782  -28.6248  -38.9934 H         1 UNK         0.3172 
     96 H96        28.2549  -30.8786  -38.7110 H         1 UNK         0.0595 
     97 H97        28.6563  -28.1602  -40.0780 H         1 UNK         0.0839 
     98 H98        29.9311  -29.3053  -39.6874 H         1 UNK         0.0839 
     99 H99        29.0279  -28.5363  -38.3941 H         1 UNK         0.0839 
    100 H100       26.2377  -29.7112  -41.3434 H         1 UNK         0.2998 
    101 H101       27.6138  -31.4447  -43.3465 H         1 UNK         0.0822 
    102 H102       27.2807  -29.0889  -44.0469 H         1 UNK         0.0787 
    103 H103       26.2700  -30.1656  -44.9982 H         1 UNK         0.0787 
    104 H104       25.5546  -29.2012  -43.7146 H         1 UNK         0.0787 
    105 H105       24.3072  -30.5892  -42.0717 H         1 UNK         0.3055 
    106 H106       23.4153  -33.3193  -42.0569 H         1 UNK         0.1106 
    107 H107       21.6205  -32.9760  -43.8441 H         1 UNK         0.0828 
    108 H108       22.3912  -31.4566  -44.2862 H         1 UNK         0.0828 
    109 H109       23.2329  -32.9839  -44.5282 H         1 UNK         0.0828 
    110 H110       21.2113  -33.4667  -41.2536 H         1 UNK         0.2931 
    111 H111       19.5079  -32.9837  -40.0169 H         1 UNK         0.0412 
    112 H112       18.8855  -31.1323  -37.9628 H         1 UNK         0.3472 
    113 H113       20.1287  -31.3172  -36.7501 H         1 UNK         0.3472 
    114 H114       19.5447  -30.5936  -41.5838 H         1 UNK         0.0970 
    115 H115       19.4243  -29.9947  -39.9855 H         1 UNK         0.0970 
    116 H116       16.4365  -32.8890  -42.0346 H         1 UNK         0.0612 
    117 H117       18.1701  -33.0186  -42.1296 H         1 UNK         0.0612 
@<TRIPOS>BOND
     1    1    2 1    
     2    1   62 1    
     3    1   63 1    
     4    1   64 1    
     5    2    3 2    
     6    2    4 am   BACKBONE|DICT|INTERRES
     7    4    5 1    
     8    4   65 1    
     9    5    6 1    
    10    5   25 1    
    11    5   66 1    
    12    6    7 1    
    13    6   67 1    
    14    6   68 1    
    15    7    8 1    
    16    8    9 1    
    17    8   69 1    
    18    8   70 1    
    19    9   10 ar   
    20    9   14 ar   
    21   10   11 ar   
    22   10   71 1    
    23   11   12 ar   
    24   11   61 1    
    25   12   13 ar   
    26   12   72 1    
    27   13   14 ar   
    28   13   15 1    
    29   14   73 1    
    30   15   16 1    
    31   15   74 1    
    32   15   75 1    
    33   16   17 1    
    34   17   18 1    
    35   17   76 1    
    36   17   77 1    
    37   18   19 1    
    38   18   27 1    
    39   18   78 1    
    40   19   20 am   BACKBONE|DICT|INTERRES
    41   19   79 1    
    42   20   21 2    
    43   20   22 1    
    44   22   23 1    
    45   22   24 1    
    46   22   80 1    
    47   23   81 1    
    48   23   82 1    
    49   23   83 1    
    50   24   25 am   BACKBONE|DICT|INTERRES
    51   24   84 1    
    52   25   26 2    
    53   27   28 2    
    54   27   29 am   BACKBONE|DICT|INTERRES
    55   29   30 1    
    56   29   85 1    
    57   30   31 1    
    58   30   32 1    
    59   30   86 1    
    60   31   87 1    
    61   31   88 1    
    62   31   89 1    
    63   32   33 2    
    64   32   34 am   BACKBONE|DICT|INTERRES
    65   34   35 1    
    66   34   90 1    
    67   35   36 1    
    68   35   37 1    
    69   35   91 1    
    70   36   92 1    
    71   36   93 1    
    72   36   94 1    
    73   37   38 2    
    74   37   39 am   BACKBONE|DICT|INTERRES
    75   39   40 1    
    76   39   95 1    
    77   40   41 1    
    78   40   42 1    
    79   40   96 1    
    80   41   97 1    
    81   41   98 1    
    82   41   99 1    
    83   42   43 2    
    84   42   44 am   BACKBONE|DICT|INTERRES
    85   44   45 1    
    86   44  100 1    
    87   45   46 1    
    88   45   47 1    
    89   45  101 1    
    90   46  102 1    
    91   46  103 1    
    92   46  104 1    
    93   47   48 2    
    94   47   49 am   BACKBONE|DICT|INTERRES
    95   49   50 1    
    96   49  105 1    
    97   50   51 1    
    98   50   52 1    
    99   50  106 1    
   100   51  107 1    
   101   51  108 1    
   102   51  109 1    
   103   52   53 2    
   104   52   54 am   BACKBONE|DICT|INTERRES
   105   54   55 1    
   106   54  110 1    
   107   55   56 1    
   108   55   59 1    
   109   55  111 1    
   110   56   57 am   BACKBONE|DICT|INTERRES
   111   56   58 2    
   112   57  112 1    
   113   57  113 1    
   114   59   60 1    
   115   59  114 1    
   116   59  115 1    
   117   60   61 1    
   118   61  116 1    
   119   61  117 1    
@<TRIPOS>SUBSTRUCTURE
     1 UNK         1 GROUP             0       ****    0 ROOT    
