@<TRIPOS>MOLECULE
3R8
117   119    1
SMALL
USER_CHARGES


@<TRIPOS>ATOM
      1 CA         12.5391  -25.7315  -43.6527 C.3       0 UNK        -0.2013 
      2 C          13.8221  -25.4548  -44.4217 C.2       0 UNK         0.4866 
      3 O          14.3009  -24.3208  -44.4277 O.2       0 UNK        -0.5176 
      4 N          14.3842  -26.4826  -45.0705 N.am      1 UNK        -0.4884 
      5 CA         15.6308  -26.4063  -45.8452 C.3       1 UNK         0.0853 
      6 C6         15.7496  -27.5827  -46.8500 C.3       10 UNK        -0.0849 
      7 S7         15.6993  -29.2407  -46.0724 S.3       10 UNK        -0.2776 
      8 C8         17.1900  -30.0420  -46.7515 C.3       10 UNK         0.0316 
      9 C9         18.4712  -29.6211  -46.0408 C.ar      10 UNK        -0.0863 
     10 C10        18.8122  -30.1950  -44.8115 C.ar      10 UNK        -0.1009 
     11 C11        20.0103  -29.8563  -44.1700 C.ar      10 UNK        -0.0712 
     12 C12        20.8820  -28.9571  -44.7907 C.ar      10 UNK        -0.0894 
     13 C13        20.5558  -28.3728  -46.0181 C.ar      10 UNK        -0.0745 
     14 C14        19.3444  -28.7037  -46.6342 C.ar      10 UNK        -0.0972 
     15 C15        21.5310  -27.4240  -46.7053 C.3       10 UNK         0.0209 
     16 S16        21.3390  -25.6951  -46.1594 S.3       10 UNK        -0.2568 
     17 C17        22.2013  -25.7007  -44.5505 C.3       10 UNK        -0.0983 
     18 CA         21.2812  -25.3921  -43.3391 C.3       3 UNK         0.0876 
     19 N          20.0677  -26.2162  -43.3287 N.am      3 UNK        -0.4424 
     20 C          18.9529  -25.9407  -42.6411 C.2       2 UNK         0.4918 
     21 O          18.7965  -24.9328  -41.9499 O.2       2 UNK        -0.4875 
     22 CA         17.8402  -27.0003  -42.7235 C.3       2 UNK         0.0481 
     23 CB         17.1979  -27.2387  -41.3458 C.3       2 UNK        -0.1831 
     24 N          16.7814  -26.7393  -43.7010 N.am      2 UNK        -0.4498 
     25 C          16.8949  -26.3037  -44.9661 C.2       1 UNK         0.5027 
     26 O          17.9269  -25.8690  -45.4733 O.2       1 UNK        -0.4969 
     27 C          22.0955  -25.5361  -42.0353 C.2       3 UNK         0.5005 
     28 O          22.9394  -24.6830  -41.7571 O.2       3 UNK        -0.5279 
     29 N          21.8786  -26.6383  -41.2964 N.am      4 UNK        -0.4463 
     30 CA         22.5592  -27.0928  -40.0724 C.3       4 UNK         0.0283 
     31 CB         22.4318  -26.0670  -38.9304 C.3       4 UNK        -0.1875 
     32 C          24.0256  -27.5140  -40.2822 C.2       4 UNK         0.4949 
     33 O          24.4244  -28.5708  -39.7929 O.2       4 UNK        -0.5039 
     34 N          24.7881  -26.7176  -41.0425 N.am      5 UNK        -0.4663 
     35 CA         26.2069  -26.9127  -41.3703 C.3       5 UNK         0.0242 
     36 CB         26.7009  -25.6949  -42.1676 C.3       5 UNK        -0.1982 
     37 C          26.5245  -28.2151  -42.1305 C.2       5 UNK         0.5017 
     38 O          27.6713  -28.6619  -42.1048 O.2       5 UNK        -0.5012 
     39 N          25.5077  -28.8098  -42.7702 N.am      6 UNK        -0.4439 
     40 CA         25.5714  -30.1146  -43.4341 C.3       6 UNK         0.0297 
     41 CB         24.3469  -30.2703  -44.3510 C.3       6 UNK        -0.2006 
     42 C          25.6552  -31.3074  -42.4600 C.2       6 UNK         0.4892 
     43 O          25.8986  -32.4232  -42.9187 O.2       6 UNK        -0.5089 
     44 N          25.4090  -31.0781  -41.1590 N.am      7 UNK        -0.4243 
     45 CA         25.4381  -32.0242  -40.0310 C.3       7 UNK         0.0196 
     46 CB         26.8226  -32.6848  -39.8818 C.3       7 UNK        -0.2007 
     47 C          24.3169  -33.0805  -40.0252 C.2       7 UNK         0.5020 
     48 O          23.9297  -33.5272  -38.9456 O.2       7 UNK        -0.5147 
     49 N          23.7777  -33.4359  -41.1992 N.am      8 UNK        -0.4734 
     50 CA         22.6752  -34.3888  -41.3936 C.3       8 UNK         0.0238 
     51 CB         22.4434  -34.5807  -42.9014 C.3       8 UNK        -0.1912 
     52 C          21.3591  -33.9928  -40.6958 C.2       8 UNK         0.5038 
     53 O          20.5523  -34.8697  -40.3849 O.2       8 UNK        -0.5046 
     54 N          21.1829  -32.6891  -40.4518 N.am      9 UNK        -0.4200 
     55 CA         20.0969  -32.1092  -39.6505 C.3       9 UNK         0.0839 
     56 C          20.2747  -32.2926  -38.1128 C.2       9 UNK         0.5513 
     57 N          21.4041  -32.7793  -37.6108 N.am      9 UNK        -0.7519 
     58 O          19.3561  -31.9926  -37.3547 O.2       9 UNK        -0.4960 
     59 C59        19.8780  -30.6176  -40.0191 C.3       10 UNK        -0.0876 
     60 S60        19.0260  -30.3996  -41.6161 S.3       10 UNK        -0.2414 
     61 C61        20.3881  -30.4712  -42.8246 C.3       10 UNK         0.0169 
     62 H62        12.2290  -26.7729  -43.7368 H         1 UNK         0.0903 
     63 H63        12.6780  -25.5032  -42.5963 H         1 UNK         0.0903 
     64 H64        11.7318  -25.1061  -44.0330 H         1 UNK         0.0903 
     65 H65        13.9515  -27.3963  -45.0409 H         1 UNK         0.3096 
     66 H66        15.5972  -25.4835  -46.4297 H         1 UNK         0.1121 
     67 H67        14.9290  -27.5287  -47.5670 H         1 UNK         0.0849 
     68 H68        16.6578  -27.4786  -47.4466 H         1 UNK         0.0849 
     69 H69        17.0728  -31.1226  -46.6567 H         1 UNK         0.0865 
     70 H70        17.2570  -29.8459  -47.8229 H         1 UNK         0.0865 
     71 H71        18.1407  -30.9076  -44.3523 H         1 UNK         0.1346 
     72 H72        21.8224  -28.7152  -44.3197 H         1 UNK         0.1412 
     73 H73        19.0924  -28.2610  -47.5881 H         1 UNK         0.1426 
     74 H74        22.5588  -27.7527  -46.5436 H         1 UNK         0.0716 
     75 H75        21.3764  -27.4599  -47.7848 H         1 UNK         0.0716 
     76 H76        22.7190  -26.6513  -44.4202 H         1 UNK         0.0695 
     77 H77        22.9918  -24.9498  -44.6101 H         1 UNK         0.0695 
     78 H78        20.9711  -24.3470  -43.4097 H         1 UNK         0.0983 
     79 H79        20.0567  -27.0015  -43.9665 H         1 UNK         0.3095 
     80 H80        18.3030  -27.9370  -43.0301 H         1 UNK         0.0454 
     81 H81        16.6232  -26.3736  -41.0128 H         1 UNK         0.0851 
     82 H82        16.5316  -28.1014  -41.3616 H         1 UNK         0.0851 
     83 H83        17.9580  -27.4370  -40.5887 H         1 UNK         0.0851 
     84 H84        15.8589  -27.0437  -43.4283 H         1 UNK         0.2976 
     85 H85        21.1659  -27.2657  -41.6400 H         1 UNK         0.3116 
     86 H86        22.0236  -27.9888  -39.7567 H         1 UNK         0.0646 
     87 H87        22.8425  -26.4672  -38.0025 H         1 UNK         0.0847 
     88 H88        21.3889  -25.8137  -38.7400 H         1 UNK         0.0847 
     89 H89        22.9671  -25.1419  -39.1459 H         1 UNK         0.0847 
     90 H90        24.3500  -25.8646  -41.3842 H         1 UNK         0.3040 
     91 H91        26.7568  -26.9548  -40.4276 H         1 UNK         0.1015 
     92 H92        26.5773  -24.7722  -41.6001 H         1 UNK         0.0786 
     93 H93        26.1613  -25.5842  -43.1092 H         1 UNK         0.0786 
     94 H94        27.7615  -25.7859  -42.4070 H         1 UNK         0.0786 
     95 H95        24.6086  -28.3543  -42.7341 H         1 UNK         0.3172 
     96 H96        26.4693  -30.1355  -44.0552 H         1 UNK         0.0595 
     97 H97        23.4229  -30.3405  -43.7776 H         1 UNK         0.0839 
     98 H98        24.4224  -31.1803  -44.9483 H         1 UNK         0.0839 
     99 H99        24.2571  -29.4373  -45.0485 H         1 UNK         0.0839 
    100 H100       25.1697  -30.1284  -40.8904 H         1 UNK         0.2998 
    101 H101       25.2751  -31.4103  -39.1434 H         1 UNK         0.0822 
    102 H102       27.6137  -31.9373  -39.8220 H         1 UNK         0.0787 
    103 H103       26.8711  -33.2819  -38.9703 H         1 UNK         0.0787 
    104 H104       27.0509  -33.3503  -40.7147 H         1 UNK         0.0787 
    105 H105       24.2297  -33.0757  -42.0332 H         1 UNK         0.3055 
    106 H106       22.9875  -35.3441  -40.9661 H         1 UNK         0.1106 
    107 H107       21.6455  -35.3015  -43.0863 H         1 UNK         0.0828 
    108 H108       22.1593  -33.6474  -43.3890 H         1 UNK         0.0828 
    109 H109       23.3387  -34.9584  -43.3958 H         1 UNK         0.0828 
    110 H110       21.9196  -32.0599  -40.7289 H         1 UNK         0.2931 
    111 H111       19.1808  -32.6497  -39.8976 H         1 UNK         0.0412 
    112 H112       21.4845  -32.8904  -36.6126 H         1 UNK         0.3472 
    113 H113       22.1823  -33.0451  -38.2054 H         1 UNK         0.3472 
    114 H114       20.8203  -30.0687  -40.0134 H         1 UNK         0.0970 
    115 H115       19.2472  -30.1243  -39.2767 H         1 UNK         0.0970 
    116 H116       21.2576  -29.9631  -42.4058 H         1 UNK         0.0612 
    117 H117       20.6742  -31.5115  -42.9812 H         1 UNK         0.0612 
@<TRIPOS>BOND
     1    1    2 1    
     2    1   62 1    
     3    1   63 1    
     4    1   64 1    
     5    2    3 2    
     6    2    4 am   BACKBONE|DICT|INTERRES
     7    4    5 1    
     8    4   65 1    
     9    5    6 1    
    10    5   25 1    
    11    5   66 1    
    12    6    7 1    
    13    6   67 1    
    14    6   68 1    
    15    7    8 1    
    16    8    9 1    
    17    8   69 1    
    18    8   70 1    
    19    9   10 ar   
    20    9   14 ar   
    21   10   11 ar   
    22   10   71 1    
    23   11   12 ar   
    24   11   61 1    
    25   12   13 ar   
    26   12   72 1    
    27   13   14 ar   
    28   13   15 1    
    29   14   73 1    
    30   15   16 1    
    31   15   74 1    
    32   15   75 1    
    33   16   17 1    
    34   17   18 1    
    35   17   76 1    
    36   17   77 1    
    37   18   19 1    
    38   18   27 1    
    39   18   78 1    
    40   19   20 am   BACKBONE|DICT|INTERRES
    41   19   79 1    
    42   20   21 2    
    43   20   22 1    
    44   22   23 1    
    45   22   24 1    
    46   22   80 1    
    47   23   81 1    
    48   23   82 1    
    49   23   83 1    
    50   24   25 am   BACKBONE|DICT|INTERRES
    51   24   84 1    
    52   25   26 2    
    53   27   28 2    
    54   27   29 am   BACKBONE|DICT|INTERRES
    55   29   30 1    
    56   29   85 1    
    57   30   31 1    
    58   30   32 1    
    59   30   86 1    
    60   31   87 1    
    61   31   88 1    
    62   31   89 1    
    63   32   33 2    
    64   32   34 am   BACKBONE|DICT|INTERRES
    65   34   35 1    
    66   34   90 1    
    67   35   36 1    
    68   35   37 1    
    69   35   91 1    
    70   36   92 1    
    71   36   93 1    
    72   36   94 1    
    73   37   38 2    
    74   37   39 am   BACKBONE|DICT|INTERRES
    75   39   40 1    
    76   39   95 1    
    77   40   41 1    
    78   40   42 1    
    79   40   96 1    
    80   41   97 1    
    81   41   98 1    
    82   41   99 1    
    83   42   43 2    
    84   42   44 am   BACKBONE|DICT|INTERRES
    85   44   45 1    
    86   44  100 1    
    87   45   46 1    
    88   45   47 1    
    89   45  101 1    
    90   46  102 1    
    91   46  103 1    
    92   46  104 1    
    93   47   48 2    
    94   47   49 am   BACKBONE|DICT|INTERRES
    95   49   50 1    
    96   49  105 1    
    97   50   51 1    
    98   50   52 1    
    99   50  106 1    
   100   51  107 1    
   101   51  108 1    
   102   51  109 1    
   103   52   53 2    
   104   52   54 am   BACKBONE|DICT|INTERRES
   105   54   55 1    
   106   54  110 1    
   107   55   56 1    
   108   55   59 1    
   109   55  111 1    
   110   56   57 am   BACKBONE|DICT|INTERRES
   111   56   58 2    
   112   57  112 1    
   113   57  113 1    
   114   59   60 1    
   115   59  114 1    
   116   59  115 1    
   117   60   61 1    
   118   61  116 1    
   119   61  117 1    
@<TRIPOS>SUBSTRUCTURE
     1 UNK         1 GROUP             0       ****    0 ROOT    
