@<TRIPOS>MOLECULE
3R8
117   119    1
SMALL
USER_CHARGES


@<TRIPOS>ATOM
      1 CA         15.2152  -23.1628  -41.5090 C.3       0 UNK        -0.2013 
      2 C          15.7096  -23.4675  -42.9152 C.2       0 UNK         0.4866 
      3 O          15.4996  -22.6653  -43.8258 O.2       0 UNK        -0.5176 
      4 N          16.3563  -24.6248  -43.1016 N.am      1 UNK        -0.4884 
      5 CA         16.9406  -25.0672  -44.3724 C.3       1 UNK         0.0853 
      6 C6         17.3501  -26.5643  -44.3289 C.3       10 UNK        -0.0849 
      7 S7         15.9734  -27.6736  -43.8726 S.3       10 UNK        -0.2776 
      8 C8         16.3465  -29.1760  -44.8378 C.3       10 UNK         0.0316 
      9 C9         17.6725  -29.8119  -44.4374 C.ar      10 UNK        -0.0863 
     10 C10        17.8169  -30.4182  -43.1847 C.ar      10 UNK        -0.1009 
     11 C11        19.0327  -31.0020  -42.8149 C.ar      10 UNK        -0.0712 
     12 C12        20.1064  -30.9791  -43.7091 C.ar      10 UNK        -0.0894 
     13 C13        19.9785  -30.3735  -44.9606 C.ar      10 UNK        -0.0745 
     14 C14        18.7541  -29.8029  -45.3244 C.ar      10 UNK        -0.0972 
     15 C15        21.1682  -30.3268  -45.9120 C.3       10 UNK         0.0209 
     16 S16        22.2833  -28.9290  -45.5490 S.3       10 UNK        -0.2568 
     17 C17        21.1430  -27.5284  -45.7891 C.3       10 UNK        -0.0983 
     18 CA         21.7796  -26.1166  -45.8332 C.3       3 UNK         0.0876 
     19 N          20.7374  -25.1724  -46.2381 N.am      3 UNK        -0.4424 
     20 C          20.8277  -23.8472  -46.3971 C.2       2 UNK         0.4918 
     21 O          21.8840  -23.2163  -46.3863 O.2       2 UNK        -0.4875 
     22 CA         19.4833  -23.1023  -46.5462 C.3       2 UNK         0.0481 
     23 CB         19.2248  -22.7541  -48.0205 C.3       2 UNK        -0.1831 
     24 N          18.3248  -23.8413  -46.0088 N.am      2 UNK        -0.4498 
     25 C          18.1696  -24.2041  -44.7245 C.2       1 UNK         0.5027 
     26 O          18.9968  -23.9530  -43.8440 O.2       1 UNK        -0.4969 
     27 C          22.4318  -25.7561  -44.4750 C.2       3 UNK         0.5005 
     28 O          23.6081  -26.0615  -44.2749 O.2       3 UNK        -0.5279 
     29 N          21.6565  -25.1354  -43.5659 N.am      4 UNK        -0.4463 
     30 CA         21.9923  -24.8413  -42.1653 C.3       4 UNK         0.0283 
     31 CB         23.1437  -23.8184  -42.0661 C.3       4 UNK        -0.1875 
     32 C          22.2460  -26.1197  -41.3405 C.2       4 UNK         0.4949 
     33 O          23.0983  -26.1259  -40.4508 O.2       4 UNK        -0.5039 
     34 N          21.5126  -27.1906  -41.6802 N.am      5 UNK        -0.4663 
     35 CA         21.5435  -28.5619  -41.1513 C.3       5 UNK         0.0242 
     36 CB         21.1609  -28.6035  -39.6600 C.3       5 UNK        -0.1982 
     37 C          22.8492  -29.3365  -41.4066 C.2       5 UNK         0.5017 
     38 O          22.7860  -30.5304  -41.7006 O.2       5 UNK        -0.5012 
     39 N          24.0025  -28.6701  -41.2538 N.am      6 UNK        -0.4439 
     40 CA         25.3715  -29.1565  -41.4869 C.3       6 UNK         0.0297 
     41 CB         25.5934  -29.3773  -42.9982 C.3       6 UNK        -0.2006 
     42 C          25.7645  -30.4021  -40.6606 C.2       6 UNK         0.4892 
     43 O          26.7136  -31.0965  -41.0270 O.2       6 UNK        -0.5089 
     44 N          25.0066  -30.6777  -39.5865 N.am      7 UNK        -0.4243 
     45 CA         25.0108  -31.8926  -38.7598 C.3       7 UNK         0.0196 
     46 CB         26.3466  -32.0414  -38.0013 C.3       7 UNK        -0.2007 
     47 C          24.6264  -33.1794  -39.5255 C.2       7 UNK         0.5020 
     48 O          24.8246  -34.2739  -38.9964 O.2       7 UNK        -0.5147 
     49 N          24.0657  -33.0504  -40.7382 N.am      8 UNK        -0.4734 
     50 CA         23.7292  -34.1735  -41.6198 C.3       8 UNK         0.0238 
     51 CB         23.5277  -33.6529  -43.0515 C.3       8 UNK        -0.1912 
     52 C          22.4987  -34.9651  -41.1499 C.2       8 UNK         0.5038 
     53 O          22.4151  -36.1638  -41.4206 O.2       8 UNK        -0.5046 
     54 N          21.5858  -34.2876  -40.4440 N.am      9 UNK        -0.4200 
     55 CA         20.4012  -34.8831  -39.8062 C.3       9 UNK         0.0839 
     56 C          20.6873  -35.4898  -38.3999 C.2       9 UNK         0.5513 
     57 N          21.9112  -35.4501  -37.8840 N.am      9 UNK        -0.7519 
     58 O          19.7792  -36.0195  -37.7647 O.2       9 UNK        -0.4960 
     59 C59        19.2057  -33.8931  -39.7733 C.3       10 UNK        -0.0876 
     60 S60        18.6868  -33.3736  -41.4455 S.3       10 UNK        -0.2414 
     61 C61        19.2016  -31.6320  -41.4414 C.3       10 UNK         0.0169 
     62 H62        15.6712  -22.2435  -41.1424 H         1 UNK         0.0903 
     63 H63        15.4561  -23.9631  -40.8095 H         1 UNK         0.0903 
     64 H64        14.1337  -23.0295  -41.5120 H         1 UNK         0.0903 
     65 H65        16.5010  -25.2474  -42.3195 H         1 UNK         0.3096 
     66 H66        16.1854  -24.9351  -45.1507 H         1 UNK         0.1121 
     67 H67        18.1581  -26.7283  -43.6126 H         1 UNK         0.0849 
     68 H68        17.7370  -26.8738  -45.3015 H         1 UNK         0.0849 
     69 H69        15.5449  -29.9001  -44.6850 H         1 UNK         0.0865 
     70 H70        16.3341  -28.9323  -45.9014 H         1 UNK         0.0865 
     71 H71        16.9839  -30.4284  -42.4948 H         1 UNK         0.1346 
     72 H72        21.0515  -31.4164  -43.4235 H         1 UNK         0.1412 
     73 H73        18.6497  -29.3378  -46.2951 H         1 UNK         0.1426 
     74 H74        21.7344  -31.2566  -45.8389 H         1 UNK         0.0716 
     75 H75        20.8274  -30.2589  -46.9463 H         1 UNK         0.0716 
     76 H76        20.3896  -27.5683  -45.0005 H         1 UNK         0.0695 
     77 H77        20.6122  -27.7129  -46.7249 H         1 UNK         0.0695 
     78 H78        22.5613  -26.0968  -46.5953 H         1 UNK         0.0983 
     79 H79        19.8138  -25.5662  -46.3250 H         1 UNK         0.3095 
     80 H80        19.5672  -22.1694  -45.9850 H         1 UNK         0.0454 
     81 H81        18.3269  -22.1465  -48.1344 H         1 UNK         0.0851 
     82 H82        19.1071  -23.6483  -48.6338 H         1 UNK         0.0851 
     83 H83        20.0543  -22.1810  -48.4375 H         1 UNK         0.0851 
     84 H84        17.6025  -24.0824  -46.6735 H         1 UNK         0.2976 
     85 H85        20.7169  -24.8581  -43.8378 H         1 UNK         0.3116 
     86 H86        21.1043  -24.3763  -41.7347 H         1 UNK         0.0646 
     87 H87        22.9370  -22.9299  -42.6625 H         1 UNK         0.0847 
     88 H88        23.2861  -23.4907  -41.0357 H         1 UNK         0.0847 
     89 H89        24.0915  -24.2375  -42.4049 H         1 UNK         0.0847 
     90 H90        20.8764  -27.0593  -42.4532 H         1 UNK         0.3040 
     91 H91        20.7662  -29.0918  -41.7001 H         1 UNK         0.1015 
     92 H92        20.1864  -28.1457  -39.4901 H         1 UNK         0.0786 
     93 H93        21.8882  -28.0843  -39.0353 H         1 UNK         0.0786 
     94 H94        21.1007  -29.6322  -39.3019 H         1 UNK         0.0786 
     95 H95        23.9174  -27.6985  -40.9586 H         1 UNK         0.3172 
     96 H96        26.0373  -28.3550  -41.1644 H         1 UNK         0.0595 
     97 H97        25.3233  -28.4901  -43.5720 H         1 UNK         0.0839 
     98 H98        24.9984  -30.2102  -43.3752 H         1 UNK         0.0839 
     99 H99        26.6389  -29.5974  -43.2171 H         1 UNK         0.0839 
    100 H100       24.2603  -30.0264  -39.3884 H         1 UNK         0.2998 
    101 H101       24.2264  -31.7488  -38.0152 H         1 UNK         0.0822 
    102 H102       26.5986  -31.1306  -37.4581 H         1 UNK         0.0787 
    103 H103       26.2939  -32.8484  -37.2693 H         1 UNK         0.0787 
    104 H104       27.1728  -32.2706  -38.6748 H         1 UNK         0.0787 
    105 H105       23.8708  -32.1186  -41.0936 H         1 UNK         0.3055 
    106 H106       24.5753  -34.8646  -41.6260 H         1 UNK         0.1106 
    107 H107       24.4171  -33.1385  -43.4161 H         1 UNK         0.0828 
    108 H108       23.3208  -34.4729  -43.7404 H         1 UNK         0.0828 
    109 H109       22.6915  -32.9578  -43.1117 H         1 UNK         0.0828 
    110 H110       21.7521  -33.3090  -40.2658 H         1 UNK         0.2931 
    111 H111       20.0850  -35.7306  -40.4177 H         1 UNK         0.0412 
    112 H112       22.6831  -35.0523  -38.3997 H         1 UNK         0.3472 
    113 H113       22.0724  -35.8541  -36.9746 H         1 UNK         0.3472 
    114 H114       18.3385  -34.3588  -39.3013 H         1 UNK         0.0970 
    115 H115       19.4445  -33.0206  -39.1627 H         1 UNK         0.0970 
    116 H116       18.6182  -31.0815  -40.7018 H         1 UNK         0.0612 
    117 H117       20.2439  -31.5664  -41.1264 H         1 UNK         0.0612 
@<TRIPOS>BOND
     1    1    2 1    
     2    1   62 1    
     3    1   63 1    
     4    1   64 1    
     5    2    3 2    
     6    2    4 am   BACKBONE|DICT|INTERRES
     7    4    5 1    
     8    4   65 1    
     9    5    6 1    
    10    5   25 1    
    11    5   66 1    
    12    6    7 1    
    13    6   67 1    
    14    6   68 1    
    15    7    8 1    
    16    8    9 1    
    17    8   69 1    
    18    8   70 1    
    19    9   10 ar   
    20    9   14 ar   
    21   10   11 ar   
    22   10   71 1    
    23   11   12 ar   
    24   11   61 1    
    25   12   13 ar   
    26   12   72 1    
    27   13   14 ar   
    28   13   15 1    
    29   14   73 1    
    30   15   16 1    
    31   15   74 1    
    32   15   75 1    
    33   16   17 1    
    34   17   18 1    
    35   17   76 1    
    36   17   77 1    
    37   18   19 1    
    38   18   27 1    
    39   18   78 1    
    40   19   20 am   BACKBONE|DICT|INTERRES
    41   19   79 1    
    42   20   21 2    
    43   20   22 1    
    44   22   23 1    
    45   22   24 1    
    46   22   80 1    
    47   23   81 1    
    48   23   82 1    
    49   23   83 1    
    50   24   25 am   BACKBONE|DICT|INTERRES
    51   24   84 1    
    52   25   26 2    
    53   27   28 2    
    54   27   29 am   BACKBONE|DICT|INTERRES
    55   29   30 1    
    56   29   85 1    
    57   30   31 1    
    58   30   32 1    
    59   30   86 1    
    60   31   87 1    
    61   31   88 1    
    62   31   89 1    
    63   32   33 2    
    64   32   34 am   BACKBONE|DICT|INTERRES
    65   34   35 1    
    66   34   90 1    
    67   35   36 1    
    68   35   37 1    
    69   35   91 1    
    70   36   92 1    
    71   36   93 1    
    72   36   94 1    
    73   37   38 2    
    74   37   39 am   BACKBONE|DICT|INTERRES
    75   39   40 1    
    76   39   95 1    
    77   40   41 1    
    78   40   42 1    
    79   40   96 1    
    80   41   97 1    
    81   41   98 1    
    82   41   99 1    
    83   42   43 2    
    84   42   44 am   BACKBONE|DICT|INTERRES
    85   44   45 1    
    86   44  100 1    
    87   45   46 1    
    88   45   47 1    
    89   45  101 1    
    90   46  102 1    
    91   46  103 1    
    92   46  104 1    
    93   47   48 2    
    94   47   49 am   BACKBONE|DICT|INTERRES
    95   49   50 1    
    96   49  105 1    
    97   50   51 1    
    98   50   52 1    
    99   50  106 1    
   100   51  107 1    
   101   51  108 1    
   102   51  109 1    
   103   52   53 2    
   104   52   54 am   BACKBONE|DICT|INTERRES
   105   54   55 1    
   106   54  110 1    
   107   55   56 1    
   108   55   59 1    
   109   55  111 1    
   110   56   57 am   BACKBONE|DICT|INTERRES
   111   56   58 2    
   112   57  112 1    
   113   57  113 1    
   114   59   60 1    
   115   59  114 1    
   116   59  115 1    
   117   60   61 1    
   118   61  116 1    
   119   61  117 1    
@<TRIPOS>SUBSTRUCTURE
     1 UNK         1 GROUP             0       ****    0 ROOT    
