@<TRIPOS>MOLECULE
3R8
117   119    1
SMALL
USER_CHARGES


@<TRIPOS>ATOM
      1 CA         19.2429  -27.8220  -40.0215 C.3       0 UNK        -0.2013 
      2 C          19.2760  -28.7678  -41.2178 C.2       0 UNK         0.4866 
      3 O          19.8026  -29.8718  -41.0914 O.2       0 UNK        -0.5176 
      4 N          18.7232  -28.3955  -42.3808 N.am      1 UNK        -0.4884 
      5 CA         18.2029  -27.0636  -42.7307 C.3       1 UNK         0.0853 
      6 C6         16.8906  -27.1278  -43.5646 C.3       10 UNK        -0.0849 
      7 S7         15.6128  -28.1983  -42.8131 S.3       10 UNK        -0.2776 
      8 C8         15.1805  -29.3246  -44.1853 C.3       10 UNK         0.0316 
      9 C9         16.3991  -30.0131  -44.7868 C.ar      10 UNK        -0.0863 
     10 C10        17.1845  -30.8637  -44.0056 C.ar      10 UNK        -0.1009 
     11 C11        18.3367  -31.4597  -44.5303 C.ar      10 UNK        -0.0712 
     12 C12        18.6825  -31.2096  -45.8629 C.ar      10 UNK        -0.0894 
     13 C13        17.9025  -30.3629  -46.6577 C.ar      10 UNK        -0.0745 
     14 C14        16.7576  -29.7743  -46.1162 C.ar      10 UNK        -0.0972 
     15 C15        18.3000  -30.0676  -48.0977 C.3       10 UNK         0.0209 
     16 S16        19.0487  -28.4145  -48.2734 S.3       10 UNK        -0.2568 
     17 C17        20.6408  -28.6622  -47.4208 C.3       10 UNK        -0.0983 
     18 CA         21.3810  -27.3438  -47.0850 C.3       3 UNK         0.0876 
     19 N          20.5384  -26.4285  -46.3120 N.am      3 UNK        -0.4424 
     20 C          20.8393  -25.1642  -45.9879 C.2       2 UNK         0.4918 
     21 O          21.8515  -24.5812  -46.3768 O.2       2 UNK        -0.4875 
     22 CA         19.8562  -24.4241  -45.0556 C.3       2 UNK         0.0481 
     23 CB         19.0246  -23.4103  -45.8579 C.3       2 UNK        -0.1831 
     24 N          18.9462  -25.2907  -44.2901 N.am      2 UNK        -0.4498 
     25 C          19.3196  -26.2522  -43.4302 C.2       1 UNK         0.5027 
     26 O          20.5025  -26.5196  -43.2099 O.2       1 UNK        -0.4969 
     27 C          22.7101  -27.6885  -46.3773 C.2       3 UNK         0.5005 
     28 O          23.6837  -28.0000  -47.0661 O.2       3 UNK        -0.5279 
     29 N          22.7298  -27.6697  -45.0357 N.am      4 UNK        -0.4463 
     30 CA         23.8630  -28.1023  -44.2254 C.3       4 UNK         0.0283 
     31 CB         23.7187  -29.6002  -43.8955 C.3       4 UNK        -0.1875 
     32 C          23.9304  -27.2492  -42.9579 C.2       4 UNK         0.4949 
     33 O          23.2071  -27.5232  -42.0004 O.2       4 UNK        -0.5039 
     34 N          24.8304  -26.2562  -42.9514 N.am      5 UNK        -0.4663 
     35 CA         25.0810  -25.3428  -41.8250 C.3       5 UNK         0.0242 
     36 CB         26.0990  -24.2762  -42.2601 C.3       5 UNK        -0.1982 
     37 C          25.5459  -26.0347  -40.5266 C.2       5 UNK         0.5017 
     38 O          25.3951  -25.4599  -39.4486 O.2       5 UNK        -0.5012 
     39 N          26.0658  -27.2642  -40.6496 N.am      6 UNK        -0.4439 
     40 CA         26.3846  -28.1750  -39.5470 C.3       6 UNK         0.0297 
     41 CB         27.2859  -29.2998  -40.0850 C.3       6 UNK        -0.2006 
     42 C          25.1445  -28.7705  -38.8436 C.2       6 UNK         0.4892 
     43 O          25.3138  -29.4143  -37.8077 O.2       6 UNK        -0.5089 
     44 N          23.9437  -28.5617  -39.4094 N.am      7 UNK        -0.4243 
     45 CA         22.6379  -29.0555  -38.9627 C.3       7 UNK         0.0196 
     46 CB         22.2609  -28.4913  -37.5757 C.3       7 UNK        -0.2007 
     47 C          22.5454  -30.5873  -39.0489 C.2       7 UNK         0.5020 
     48 O          22.2597  -31.2538  -38.0527 O.2       7 UNK        -0.5147 
     49 N          22.8015  -31.1164  -40.2535 N.am      8 UNK        -0.4734 
     50 CA         22.8487  -32.5508  -40.5635 C.3       8 UNK         0.0238 
     51 CB         23.2535  -32.7383  -42.0348 C.3       8 UNK        -0.1912 
     52 C          21.5503  -33.3237  -40.2656 C.2       8 UNK         0.5038 
     53 O          21.6282  -34.5053  -39.9256 O.2       8 UNK        -0.5046 
     54 N          20.3998  -32.6518  -40.3855 N.am      9 UNK        -0.4200 
     55 CA         19.0717  -33.1846  -40.0473 C.3       9 UNK         0.0839 
     56 C          18.5937  -32.7620  -38.6264 C.2       9 UNK         0.5513 
     57 N          19.4072  -32.1089  -37.8037 N.am      9 UNK        -0.7519 
     58 O          17.4609  -33.0505  -38.2489 O.2       9 UNK        -0.4960 
     59 C59        18.0300  -32.8257  -41.1395 C.3       10 UNK        -0.0876 
     60 S60        18.3823  -33.6337  -42.7422 S.3       10 UNK        -0.2414 
     61 C61        19.2516  -32.3222  -43.6638 C.3       10 UNK         0.0169 
     62 H62        19.8793  -26.9552  -40.1987 H         1 UNK         0.0903 
     63 H63        18.2273  -27.4877  -39.8126 H         1 UNK         0.0903 
     64 H64        19.6006  -28.3291  -39.1266 H         1 UNK         0.0903 
     65 H65        18.7414  -29.0549  -43.1453 H         1 UNK         0.3096 
     66 H66        17.9618  -26.5047  -41.8267 H         1 UNK         0.1121 
     67 H67        17.0990  -27.4538  -44.5838 H         1 UNK         0.0849 
     68 H68        16.4476  -26.1345  -43.6551 H         1 UNK         0.0849 
     69 H69        14.6393  -28.7593  -44.9457 H         1 UNK         0.0865 
     70 H70        14.4871  -30.0822  -43.8176 H         1 UNK         0.0865 
     71 H71        16.8991  -31.0315  -42.9792 H         1 UNK         0.1346 
     72 H72        19.5755  -31.6561  -46.2787 H         1 UNK         0.1412 
     73 H73        16.1608  -29.1110  -46.7277 H         1 UNK         0.1426 
     74 H74        17.4162  -30.1234  -48.7348 H         1 UNK         0.0716 
     75 H75        18.9936  -30.8220  -48.4726 H         1 UNK         0.0716 
     76 H76        21.2608  -29.2988  -48.0556 H         1 UNK         0.0695 
     77 H77        20.4630  -29.2249  -46.5036 H         1 UNK         0.0695 
     78 H78        21.6344  -26.8418  -48.0212 H         1 UNK         0.0983 
     79 H79        19.6673  -26.8118  -45.9790 H         1 UNK         0.3095 
     80 H80        20.4597  -23.8715  -44.3327 H         1 UNK         0.0454 
     81 H81        18.3751  -23.9037  -46.5820 H         1 UNK         0.0851 
     82 H82        19.6694  -22.7271  -46.4129 H         1 UNK         0.0851 
     83 H83        18.4004  -22.8003  -45.2048 H         1 UNK         0.0851 
     84 H84        17.9599  -25.1229  -44.4268 H         1 UNK         0.2976 
     85 H85        21.9167  -27.3461  -44.5176 H         1 UNK         0.3116 
     86 H86        24.7962  -27.9627  -44.7756 H         1 UNK         0.0646 
     87 H87        23.7569  -30.2100  -44.7982 H         1 UNK         0.0847 
     88 H88        22.7748  -29.8117  -43.3913 H         1 UNK         0.0847 
     89 H89        24.5254  -29.9365  -43.2433 H         1 UNK         0.0847 
     90 H90        25.3797  -26.0993  -43.7852 H         1 UNK         0.3040 
     91 H91        24.1370  -24.8436  -41.5946 H         1 UNK         0.1015 
     92 H92        26.2852  -23.5622  -41.4563 H         1 UNK         0.0786 
     93 H93        25.7372  -23.7070  -43.1168 H         1 UNK         0.0786 
     94 H94        27.0582  -24.7197  -42.5303 H         1 UNK         0.0786 
     95 H95        26.1636  -27.6337  -41.5838 H         1 UNK         0.3172 
     96 H96        26.9459  -27.6156  -38.7958 H         1 UNK         0.0595 
     97 H97        26.7763  -29.9007  -40.8395 H         1 UNK         0.0839 
     98 H98        27.5893  -29.9751  -39.2836 H         1 UNK         0.0839 
     99 H99        28.1981  -28.9015  -40.5298 H         1 UNK         0.0839 
    100 H100       23.9120  -28.0433  -40.2834 H         1 UNK         0.2998 
    101 H101       21.9193  -28.6655  -39.6823 H         1 UNK         0.0822 
    102 H102       22.2919  -27.4018  -37.5706 H         1 UNK         0.0787 
    103 H103       21.2498  -28.7896  -37.2965 H         1 UNK         0.0787 
    104 H104       22.9285  -28.8505  -36.7923 H         1 UNK         0.0787 
    105 H105       22.9981  -30.4816  -41.0134 H         1 UNK         0.3055 
    106 H106       23.6278  -32.9888  -39.9357 H         1 UNK         0.1106 
    107 H107       23.3218  -33.7972  -42.2884 H         1 UNK         0.0828 
    108 H108       24.2289  -32.2970  -42.2396 H         1 UNK         0.0828 
    109 H109       22.5274  -32.2893  -42.7135 H         1 UNK         0.0828 
    110 H110       20.4197  -31.6688  -40.6444 H         1 UNK         0.2931 
    111 H111       19.1248  -34.2740  -40.0087 H         1 UNK         0.0412 
    112 H112       20.3625  -31.8919  -38.0663 H         1 UNK         0.3472 
    113 H113       19.0739  -31.8563  -36.8872 H         1 UNK         0.3472 
    114 H114       17.0309  -33.1478  -40.8407 H         1 UNK         0.0970 
    115 H115       17.9734  -31.7443  -41.2538 H         1 UNK         0.0970 
    116 H116       20.0035  -32.8098  -44.2860 H         1 UNK         0.0612 
    117 H117       19.8050  -31.6829  -42.9775 H         1 UNK         0.0612 
@<TRIPOS>BOND
     1    1    2 1    
     2    1   62 1    
     3    1   63 1    
     4    1   64 1    
     5    2    3 2    
     6    2    4 am   BACKBONE|DICT|INTERRES
     7    4    5 1    
     8    4   65 1    
     9    5    6 1    
    10    5   25 1    
    11    5   66 1    
    12    6    7 1    
    13    6   67 1    
    14    6   68 1    
    15    7    8 1    
    16    8    9 1    
    17    8   69 1    
    18    8   70 1    
    19    9   10 ar   
    20    9   14 ar   
    21   10   11 ar   
    22   10   71 1    
    23   11   12 ar   
    24   11   61 1    
    25   12   13 ar   
    26   12   72 1    
    27   13   14 ar   
    28   13   15 1    
    29   14   73 1    
    30   15   16 1    
    31   15   74 1    
    32   15   75 1    
    33   16   17 1    
    34   17   18 1    
    35   17   76 1    
    36   17   77 1    
    37   18   19 1    
    38   18   27 1    
    39   18   78 1    
    40   19   20 am   BACKBONE|DICT|INTERRES
    41   19   79 1    
    42   20   21 2    
    43   20   22 1    
    44   22   23 1    
    45   22   24 1    
    46   22   80 1    
    47   23   81 1    
    48   23   82 1    
    49   23   83 1    
    50   24   25 am   BACKBONE|DICT|INTERRES
    51   24   84 1    
    52   25   26 2    
    53   27   28 2    
    54   27   29 am   BACKBONE|DICT|INTERRES
    55   29   30 1    
    56   29   85 1    
    57   30   31 1    
    58   30   32 1    
    59   30   86 1    
    60   31   87 1    
    61   31   88 1    
    62   31   89 1    
    63   32   33 2    
    64   32   34 am   BACKBONE|DICT|INTERRES
    65   34   35 1    
    66   34   90 1    
    67   35   36 1    
    68   35   37 1    
    69   35   91 1    
    70   36   92 1    
    71   36   93 1    
    72   36   94 1    
    73   37   38 2    
    74   37   39 am   BACKBONE|DICT|INTERRES
    75   39   40 1    
    76   39   95 1    
    77   40   41 1    
    78   40   42 1    
    79   40   96 1    
    80   41   97 1    
    81   41   98 1    
    82   41   99 1    
    83   42   43 2    
    84   42   44 am   BACKBONE|DICT|INTERRES
    85   44   45 1    
    86   44  100 1    
    87   45   46 1    
    88   45   47 1    
    89   45  101 1    
    90   46  102 1    
    91   46  103 1    
    92   46  104 1    
    93   47   48 2    
    94   47   49 am   BACKBONE|DICT|INTERRES
    95   49   50 1    
    96   49  105 1    
    97   50   51 1    
    98   50   52 1    
    99   50  106 1    
   100   51  107 1    
   101   51  108 1    
   102   51  109 1    
   103   52   53 2    
   104   52   54 am   BACKBONE|DICT|INTERRES
   105   54   55 1    
   106   54  110 1    
   107   55   56 1    
   108   55   59 1    
   109   55  111 1    
   110   56   57 am   BACKBONE|DICT|INTERRES
   111   56   58 2    
   112   57  112 1    
   113   57  113 1    
   114   59   60 1    
   115   59  114 1    
   116   59  115 1    
   117   60   61 1    
   118   61  116 1    
   119   61  117 1    
@<TRIPOS>SUBSTRUCTURE
     1 UNK         1 GROUP             0       ****    0 ROOT    
