@<TRIPOS>MOLECULE
3R8
117   119    1
SMALL
USER_CHARGES


@<TRIPOS>ATOM
      1 CA         12.6611  -24.9260  -42.9375 C.3       0 UNK        -0.2013 
      2 C          13.6731  -25.0717  -44.0639 C.2       0 UNK         0.4866 
      3 O          14.1281  -24.0683  -44.6129 O.2       0 UNK        -0.5176 
      4 N          14.0304  -26.3143  -44.4129 N.am      1 UNK        -0.4884 
      5 CA         15.0069  -26.6439  -45.4608 C.3       1 UNK         0.0853 
      6 C6         14.8444  -28.1061  -45.9509 C.3       10 UNK        -0.0849 
      7 S7         15.0436  -29.3609  -44.6317 S.3       10 UNK        -0.2776 
      8 C8         16.3110  -30.4668  -45.3335 C.3       10 UNK         0.0316 
      9 C9         17.7354  -29.9539  -45.1478 C.ar      10 UNK        -0.0863 
     10 C10        18.3715  -30.0886  -43.9093 C.ar      10 UNK        -0.1009 
     11 C11        19.7153  -29.7303  -43.7561 C.ar      10 UNK        -0.0712 
     12 C12        20.4206  -29.2243  -44.8510 C.ar      10 UNK        -0.0894 
     13 C13        19.7897  -29.0533  -46.0863 C.ar      10 UNK        -0.0745 
     14 C14        18.4460  -29.4188  -46.2280 C.ar      10 UNK        -0.0972 
     15 C15        20.5733  -28.5275  -47.2824 C.3       10 UNK         0.0209 
     16 S16        20.5147  -26.7108  -47.4161 S.3       10 UNK        -0.2568 
     17 C17        21.7457  -26.1805  -46.1751 C.3       10 UNK        -0.0983 
     18 CA         21.1431  -25.2994  -45.0486 C.3       3 UNK         0.0876 
     19 N          20.0276  -25.9721  -44.3734 N.am      3 UNK        -0.4424 
     20 C          19.0627  -25.3682  -43.6709 C.2       2 UNK         0.4918 
     21 O          18.9939  -24.1523  -43.4856 O.2       2 UNK        -0.4875 
     22 CA         18.0144  -26.3055  -43.0480 C.3       2 UNK         0.0481 
     23 CB         17.7954  -25.9789  -41.5611 C.3       2 UNK        -0.1831 
     24 N          16.7181  -26.3236  -43.7290 N.am      2 UNK        -0.4498 
     25 C          16.4671  -26.3661  -45.0482 C.2       1 UNK         0.5027 
     26 O          17.3115  -26.2378  -45.9333 O.2       1 UNK        -0.4969 
     27 C          22.2560  -24.8477  -44.0726 C.2       3 UNK         0.5005 
     28 O          23.2092  -24.2045  -44.5148 O.2       3 UNK        -0.5279 
     29 N          22.1395  -25.2147  -42.7844 N.am      4 UNK        -0.4463 
     30 CA         23.1207  -25.0305  -41.7050 C.3       4 UNK         0.0283 
     31 CB         23.3819  -23.5350  -41.4233 C.3       4 UNK        -0.1875 
     32 C          24.4120  -25.8404  -41.9395 C.2       4 UNK         0.4949 
     33 O          25.5044  -25.3860  -41.5952 O.2       4 UNK        -0.5039 
     34 N          24.2547  -27.0336  -42.5277 N.am      5 UNK        -0.4663 
     35 CA         25.3250  -27.9967  -42.7781 C.3       5 UNK         0.0242 
     36 CB         24.8206  -29.0385  -43.7921 C.3       5 UNK        -0.1982 
     37 C          25.7701  -28.6921  -41.4817 C.2       5 UNK         0.5017 
     38 O          24.9510  -28.8979  -40.5820 O.2       5 UNK        -0.5012 
     39 N          27.0454  -29.0955  -41.4339 N.am      6 UNK        -0.4439 
     40 CA         27.6209  -29.9203  -40.3700 C.3       6 UNK         0.0297 
     41 CB         29.1380  -29.6640  -40.2982 C.3       6 UNK        -0.2006 
     42 C          27.2815  -31.3994  -40.6259 C.2       6 UNK         0.4892 
     43 O          28.1411  -32.1649  -41.0669 O.2       6 UNK        -0.5089 
     44 N          26.0146  -31.7547  -40.3967 N.am      7 UNK        -0.4243 
     45 CA         25.4379  -33.0690  -40.6567 C.3       7 UNK         0.0196 
     46 CB         24.8889  -33.1014  -42.0959 C.3       7 UNK        -0.2007 
     47 C          24.3376  -33.3618  -39.6300 C.2       7 UNK         0.5020 
     48 O          23.9148  -32.4641  -38.8962 O.2       7 UNK        -0.5147 
     49 N          23.8724  -34.6181  -39.6172 N.am      8 UNK        -0.4734 
     50 CA         22.8540  -35.1484  -38.6993 C.3       8 UNK         0.0238 
     51 CB         22.7349  -36.6672  -38.9105 C.3       8 UNK        -0.1912 
     52 C          21.4676  -34.4819  -38.7994 C.2       8 UNK         0.5038 
     53 O          20.6656  -34.6358  -37.8771 O.2       8 UNK        -0.5046 
     54 N          21.2113  -33.7547  -39.8944 N.am      9 UNK        -0.4200 
     55 CA         20.0303  -32.9010  -40.0795 C.3       9 UNK         0.0839 
     56 C          19.9761  -31.6515  -39.1488 C.2       9 UNK         0.5513 
     57 N          21.0684  -31.2479  -38.5082 N.am      9 UNK        -0.7519 
     58 O          18.9184  -31.0445  -39.0038 O.2       9 UNK        -0.4960 
     59 C59        19.8317  -32.5268  -41.5719 C.3       10 UNK        -0.0876 
     60 S60        21.1998  -31.5304  -42.2674 S.3       10 UNK        -0.2414 
     61 C61        20.4184  -29.8928  -42.4166 C.3       10 UNK         0.0169 
     62 H62        12.3425  -25.8925  -42.5471 H         1 UNK         0.0903 
     63 H63        13.0931  -24.3543  -42.1164 H         1 UNK         0.0903 
     64 H64        11.7776  -24.3967  -43.2934 H         1 UNK         0.0903 
     65 H65        13.6254  -27.1091  -43.9364 H         1 UNK         0.3096 
     66 H66        14.8057  -25.9911  -46.3138 H         1 UNK         0.1121 
     67 H67        15.5411  -28.3093  -46.7665 H         1 UNK         0.0849 
     68 H68        13.8512  -28.2342  -46.3839 H         1 UNK         0.0849 
     69 H69        16.2238  -31.4388  -44.8455 H         1 UNK         0.0865 
     70 H70        16.0973  -30.6493  -46.3880 H         1 UNK         0.0865 
     71 H71        17.8211  -30.4927  -43.0715 H         1 UNK         0.1346 
     72 H72        21.4672  -28.9773  -44.7411 H         1 UNK         0.1412 
     73 H73        17.9623  -29.3100  -47.1891 H         1 UNK         0.1426 
     74 H74        20.1642  -28.9521  -48.2004 H         1 UNK         0.0716 
     75 H75        21.6108  -28.8623  -47.2376 H         1 UNK         0.0716 
     76 H76        22.2510  -27.0516  -45.7569 H         1 UNK         0.0695 
     77 H77        22.5163  -25.6255  -46.7137 H         1 UNK         0.0695 
     78 H78        20.7509  -24.3903  -45.5102 H         1 UNK         0.0983 
     79 H79        19.9400  -26.9632  -44.5532 H         1 UNK         0.3095 
     80 H80        18.4003  -27.3235  -43.0981 H         1 UNK         0.0454 
     81 H81        18.7420  -25.9599  -41.0192 H         1 UNK         0.0851 
     82 H82        17.3247  -25.0038  -41.4280 H         1 UNK         0.0851 
     83 H83        17.1648  -26.7252  -41.0777 H         1 UNK         0.0851 
     84 H84        15.9138  -26.4260  -43.1285 H         1 UNK         0.2976 
     85 H85        21.3064  -25.7260  -42.5320 H         1 UNK         0.3116 
     86 H86        22.6645  -25.4525  -40.8082 H         1 UNK         0.0646 
     87 H87        23.9861  -23.4083  -40.5242 H         1 UNK         0.0847 
     88 H88        22.4505  -22.9916  -41.2657 H         1 UNK         0.0847 
     89 H89        23.9182  -23.0532  -42.2412 H         1 UNK         0.0847 
     90 H90        23.3174  -27.3393  -42.7370 H         1 UNK         0.3040 
     91 H91        26.1765  -27.4634  -43.2074 H         1 UNK         0.1015 
     92 H92        24.5166  -28.5686  -44.7279 H         1 UNK         0.0786 
     93 H93        23.9688  -29.6005  -43.4051 H         1 UNK         0.0786 
     94 H94        25.6015  -29.7612  -44.0331 H         1 UNK         0.0786 
     95 H95        27.6388  -28.9227  -42.2332 H         1 UNK         0.3172 
     96 H96        27.1885  -29.6341  -39.4085 H         1 UNK         0.0595 
     97 H97        29.5978  -30.2701  -39.5164 H         1 UNK         0.0839 
     98 H98        29.3529  -28.6208  -40.0660 H         1 UNK         0.0839 
     99 H99        29.6388  -29.9084  -41.2360 H         1 UNK         0.0839 
    100 H100       25.3696  -31.0699  -40.0154 H         1 UNK         0.2998 
    101 H101       26.2079  -33.8353  -40.5420 H         1 UNK         0.0822 
    102 H102       25.6829  -32.9350  -42.8242 H         1 UNK         0.0787 
    103 H103       24.4345  -34.0641  -42.3323 H         1 UNK         0.0787 
    104 H104       24.1315  -32.3326  -42.2523 H         1 UNK         0.0787 
    105 H105       24.2712  -35.2815  -40.2671 H         1 UNK         0.3055 
    106 H106       23.2094  -34.9712  -37.6817 H         1 UNK         0.1106 
    107 H107       22.4060  -36.9095  -39.9218 H         1 UNK         0.0828 
    108 H108       23.6863  -37.1699  -38.7353 H         1 UNK         0.0828 
    109 H109       22.0113  -37.1035  -38.2202 H         1 UNK         0.0828 
    110 H110       21.9345  -33.6658  -40.5920 H         1 UNK         0.2931 
    111 H111       19.1681  -33.5088  -39.7979 H         1 UNK         0.0412 
    112 H112       21.0181  -30.4411  -37.9072 H         1 UNK         0.3472 
    113 H113       21.9536  -31.7227  -38.6423 H         1 UNK         0.3472 
    114 H114       18.8816  -32.0090  -41.7038 H         1 UNK         0.0970 
    115 H115       19.7452  -33.4365  -42.1679 H         1 UNK         0.0970 
    116 H116       21.1924  -29.1312  -42.3112 H         1 UNK         0.0612 
    117 H117       19.7212  -29.7271  -41.5938 H         1 UNK         0.0612 
@<TRIPOS>BOND
     1    1    2 1    
     2    1   62 1    
     3    1   63 1    
     4    1   64 1    
     5    2    3 2    
     6    2    4 am   BACKBONE|DICT|INTERRES
     7    4    5 1    
     8    4   65 1    
     9    5    6 1    
    10    5   25 1    
    11    5   66 1    
    12    6    7 1    
    13    6   67 1    
    14    6   68 1    
    15    7    8 1    
    16    8    9 1    
    17    8   69 1    
    18    8   70 1    
    19    9   10 ar   
    20    9   14 ar   
    21   10   11 ar   
    22   10   71 1    
    23   11   12 ar   
    24   11   61 1    
    25   12   13 ar   
    26   12   72 1    
    27   13   14 ar   
    28   13   15 1    
    29   14   73 1    
    30   15   16 1    
    31   15   74 1    
    32   15   75 1    
    33   16   17 1    
    34   17   18 1    
    35   17   76 1    
    36   17   77 1    
    37   18   19 1    
    38   18   27 1    
    39   18   78 1    
    40   19   20 am   BACKBONE|DICT|INTERRES
    41   19   79 1    
    42   20   21 2    
    43   20   22 1    
    44   22   23 1    
    45   22   24 1    
    46   22   80 1    
    47   23   81 1    
    48   23   82 1    
    49   23   83 1    
    50   24   25 am   BACKBONE|DICT|INTERRES
    51   24   84 1    
    52   25   26 2    
    53   27   28 2    
    54   27   29 am   BACKBONE|DICT|INTERRES
    55   29   30 1    
    56   29   85 1    
    57   30   31 1    
    58   30   32 1    
    59   30   86 1    
    60   31   87 1    
    61   31   88 1    
    62   31   89 1    
    63   32   33 2    
    64   32   34 am   BACKBONE|DICT|INTERRES
    65   34   35 1    
    66   34   90 1    
    67   35   36 1    
    68   35   37 1    
    69   35   91 1    
    70   36   92 1    
    71   36   93 1    
    72   36   94 1    
    73   37   38 2    
    74   37   39 am   BACKBONE|DICT|INTERRES
    75   39   40 1    
    76   39   95 1    
    77   40   41 1    
    78   40   42 1    
    79   40   96 1    
    80   41   97 1    
    81   41   98 1    
    82   41   99 1    
    83   42   43 2    
    84   42   44 am   BACKBONE|DICT|INTERRES
    85   44   45 1    
    86   44  100 1    
    87   45   46 1    
    88   45   47 1    
    89   45  101 1    
    90   46  102 1    
    91   46  103 1    
    92   46  104 1    
    93   47   48 2    
    94   47   49 am   BACKBONE|DICT|INTERRES
    95   49   50 1    
    96   49  105 1    
    97   50   51 1    
    98   50   52 1    
    99   50  106 1    
   100   51  107 1    
   101   51  108 1    
   102   51  109 1    
   103   52   53 2    
   104   52   54 am   BACKBONE|DICT|INTERRES
   105   54   55 1    
   106   54  110 1    
   107   55   56 1    
   108   55   59 1    
   109   55  111 1    
   110   56   57 am   BACKBONE|DICT|INTERRES
   111   56   58 2    
   112   57  112 1    
   113   57  113 1    
   114   59   60 1    
   115   59  114 1    
   116   59  115 1    
   117   60   61 1    
   118   61  116 1    
   119   61  117 1    
@<TRIPOS>SUBSTRUCTURE
     1 UNK         1 GROUP             0       ****    0 ROOT    
