@<TRIPOS>MOLECULE
3R8
117   119    1
SMALL
USER_CHARGES


@<TRIPOS>ATOM
      1 CA         15.7922  -25.3232  -48.0933 C.3       0 UNK        -0.2013 
      2 C          16.7779  -26.2122  -47.3492 C.2       0 UNK         0.4866 
      3 O          16.9785  -26.0186  -46.1507 O.2       0 UNK        -0.5176 
      4 N          17.3773  -27.1816  -48.0578 N.am      1 UNK        -0.4884 
      5 CA         18.3871  -28.1468  -47.5875 C.3       1 UNK         0.0853 
      6 C6         17.9530  -28.9783  -46.3395 C.3       10 UNK        -0.0849 
      7 S7         16.2640  -29.6649  -46.4032 S.3       10 UNK        -0.2776 
      8 C8         16.2202  -30.6376  -44.8528 C.3       10 UNK         0.0316 
      9 C9         16.4515  -29.8604  -43.5509 C.ar      10 UNK        -0.0863 
     10 C10        16.8280  -30.5771  -42.4098 C.ar      10 UNK        -0.1009 
     11 C11        17.0583  -29.9278  -41.1934 C.ar      10 UNK        -0.0712 
     12 C12        16.8982  -28.5428  -41.1162 C.ar      10 UNK        -0.0894 
     13 C13        16.5196  -27.8072  -42.2432 C.ar      10 UNK        -0.0745 
     14 C14        16.2823  -28.4722  -43.4501 C.ar      10 UNK        -0.0972 
     15 C15        16.3455  -26.2968  -42.1523 C.3       10 UNK         0.0209 
     16 S16        17.8573  -25.4556  -41.5791 S.3       10 UNK        -0.2568 
     17 C17        18.9632  -25.6080  -43.0254 C.3       10 UNK        -0.0983 
     18 CA         19.9343  -26.8176  -42.9899 C.3       3 UNK         0.0876 
     19 N          20.6530  -26.9170  -44.2627 N.am      3 UNK        -0.4424 
     20 C          21.4555  -27.9164  -44.6501 C.2       2 UNK         0.4918 
     21 O          21.7459  -28.8890  -43.9532 O.2       2 UNK        -0.4875 
     22 CA         21.8907  -27.8833  -46.1261 C.3       2 UNK         0.0481 
     23 CB         23.0748  -28.8221  -46.4186 C.3       2 UNK        -0.1831 
     24 N          20.7366  -28.3014  -46.9222 N.am      2 UNK        -0.4498 
     25 C          19.7553  -27.4771  -47.3129 C.2       1 UNK         0.5027 
     26 O          19.8943  -26.2525  -47.3764 O.2       1 UNK        -0.4969 
     27 C          20.8914  -26.7682  -41.7795 C.2       3 UNK         0.5005 
     28 O          21.9356  -26.1161  -41.8559 O.2       3 UNK        -0.5279 
     29 N          20.4674  -27.4251  -40.6889 N.am      4 UNK        -0.4463 
     30 CA         21.1477  -27.6502  -39.4089 C.3       4 UNK         0.0283 
     31 CB         21.7426  -26.3599  -38.8105 C.3       4 UNK        -0.1875 
     32 C          22.2012  -28.7610  -39.5084 C.2       4 UNK         0.4949 
     33 O          22.8956  -28.8817  -40.5186 O.2       4 UNK        -0.5039 
     34 N          22.3201  -29.5494  -38.4317 N.am      5 UNK        -0.4663 
     35 CA         23.2083  -30.7152  -38.3347 C.3       5 UNK         0.0242 
     36 CB         22.9094  -31.4701  -37.0301 C.3       5 UNK        -0.1982 
     37 C          24.7060  -30.3758  -38.4354 C.2       5 UNK         0.5017 
     38 O          25.4966  -31.2426  -38.8078 O.2       5 UNK        -0.5012 
     39 N          25.0585  -29.1173  -38.1352 N.am      6 UNK        -0.4439 
     40 CA         26.3844  -28.5362  -38.3517 C.3       6 UNK         0.0297 
     41 CB         26.4476  -27.1539  -37.6824 C.3       6 UNK        -0.2006 
     42 C          26.7624  -28.4314  -39.8419 C.2       6 UNK         0.4892 
     43 O          27.9515  -28.4907  -40.1571 O.2       6 UNK        -0.5089 
     44 N          25.7600  -28.2923  -40.7227 N.am      7 UNK        -0.4243 
     45 CA         25.9204  -28.3741  -42.1714 C.3       7 UNK         0.0196 
     46 CB         24.9463  -27.4127  -42.8717 C.3       7 UNK        -0.2007 
     47 C          25.7096  -29.8251  -42.6205 C.2       7 UNK         0.5020 
     48 O          26.6454  -30.4188  -43.1563 O.2       7 UNK        -0.5147 
     49 N          24.5124  -30.3752  -42.3610 N.am      8 UNK        -0.4734 
     50 CA         24.1390  -31.7676  -42.6445 C.3       8 UNK         0.0238 
     51 CB         24.2742  -32.1038  -44.1480 C.3       8 UNK        -0.1912 
     52 C          22.7100  -32.1202  -42.2044 C.2       8 UNK         0.5038 
     53 O          22.4680  -33.2901  -41.9064 O.2       8 UNK        -0.5046 
     54 N          21.7842  -31.1493  -42.2390 N.am      9 UNK        -0.4200 
     55 CA         20.3262  -31.3677  -42.3094 C.3       9 UNK         0.0839 
     56 C          19.9202  -32.0291  -43.6623 C.2       9 UNK         0.5513 
     57 N          20.5048  -31.5891  -44.7709 N.am      9 UNK        -0.7519 
     58 O          19.0867  -32.9290  -43.7225 O.2       9 UNK        -0.4960 
     59 C59        19.7080  -32.0423  -41.0433 C.3       10 UNK        -0.0876 
     60 S60        19.2656  -30.8256  -39.7607 S.3       10 UNK        -0.2414 
     61 C61        17.4573  -30.7195  -39.9553 C.3       10 UNK         0.0169 
     62 H62        16.1184  -24.2845  -48.0490 H         1 UNK         0.0903 
     63 H63        15.6968  -25.6046  -49.1418 H         1 UNK         0.0903 
     64 H64        14.8067  -25.3911  -47.6332 H         1 UNK         0.0903 
     65 H65        17.1605  -27.2547  -49.0421 H         1 UNK         0.3096 
     66 H66        18.5415  -28.8394  -48.4167 H         1 UNK         0.1121 
     67 H67        18.6300  -29.8203  -46.1881 H         1 UNK         0.0849 
     68 H68        18.0418  -28.3669  -45.4411 H         1 UNK         0.0849 
     69 H69        15.2497  -31.1310  -44.7874 H         1 UNK         0.0865 
     70 H70        16.9615  -31.4342  -44.9358 H         1 UNK         0.0865 
     71 H71        16.9427  -31.6508  -42.4696 H         1 UNK         0.1346 
     72 H72        17.0661  -28.0342  -40.1764 H         1 UNK         0.1412 
     73 H73        15.9733  -27.8980  -44.3127 H         1 UNK         0.1426 
     74 H74        15.5378  -26.0803  -41.4520 H         1 UNK         0.0716 
     75 H75        16.0414  -25.8750  -43.1120 H         1 UNK         0.0716 
     76 H76        18.3439  -25.6582  -43.9215 H         1 UNK         0.0695 
     77 H77        19.5282  -24.6778  -43.1101 H         1 UNK         0.0695 
     78 H78        19.3386  -27.7295  -42.9107 H         1 UNK         0.0983 
     79 H79        20.4679  -26.1794  -44.9279 H         1 UNK         0.3095 
     80 H80        22.1925  -26.8646  -46.3786 H         1 UNK         0.0454 
     81 H81        22.8082  -29.8693  -46.2797 H         1 UNK         0.0851 
     82 H82        23.4248  -28.7038  -47.4440 H         1 UNK         0.0851 
     83 H83        23.9182  -28.6088  -45.7612 H         1 UNK         0.0851 
     84 H84        20.5531  -29.2943  -46.9281 H         1 UNK         0.2976 
     85 H85        19.5848  -27.9103  -40.7691 H         1 UNK         0.3116 
     86 H86        20.3649  -27.9950  -38.7314 H         1 UNK         0.0646 
     87 H87        22.0618  -26.5206  -37.7803 H         1 UNK         0.0847 
     88 H88        21.0112  -25.5518  -38.8007 H         1 UNK         0.0847 
     89 H89        22.6165  -26.0162  -39.3649 H         1 UNK         0.0847 
     90 H90        21.7121  -29.3841  -37.6418 H         1 UNK         0.3040 
     91 H91        22.9740  -31.3757  -39.1726 H         1 UNK         0.1015 
     92 H92        21.8714  -31.8022  -36.9937 H         1 UNK         0.0786 
     93 H93        23.0971  -30.8506  -36.1522 H         1 UNK         0.0786 
     94 H94        23.5346  -32.3598  -36.9415 H         1 UNK         0.0786 
     95 H95        24.3309  -28.4927  -37.8200 H         1 UNK         0.3172 
     96 H96        27.1176  -29.1858  -37.8689 H         1 UNK         0.0595 
     97 H97        26.2559  -27.2207  -36.6113 H         1 UNK         0.0839 
     98 H98        25.7227  -26.4615  -38.1127 H         1 UNK         0.0839 
     99 H99        27.4355  -26.7074  -37.8049 H         1 UNK         0.0839 
    100 H100       24.8032  -28.3065  -40.3857 H         1 UNK         0.2998 
    101 H101       26.9336  -28.0747  -42.4490 H         1 UNK         0.0822 
    102 H102       25.0923  -26.3860  -42.5360 H         1 UNK         0.0787 
    103 H103       25.0963  -27.4263  -43.9513 H         1 UNK         0.0787 
    104 H104       23.9059  -27.6754  -42.6845 H         1 UNK         0.0787 
    105 H105       23.8373  -29.8228  -41.8342 H         1 UNK         0.3055 
    106 H106       24.8153  -32.4111  -42.0777 H         1 UNK         0.1106 
    107 H107       23.7415  -31.3824  -44.7655 H         1 UNK         0.0828 
    108 H108       25.3124  -32.1252  -44.4758 H         1 UNK         0.0828 
    109 H109       23.8622  -33.0889  -44.3730 H         1 UNK         0.0828 
    110 H110       22.0689  -30.2260  -42.5497 H         1 UNK         0.2931 
    111 H111       19.8936  -30.3692  -42.3847 H         1 UNK         0.0412 
    112 H112       20.2807  -32.0198  -45.6534 H         1 UNK         0.3472 
    113 H113       21.1687  -30.8301  -44.7121 H         1 UNK         0.3472 
    114 H114       20.3865  -32.7702  -40.6009 H         1 UNK         0.0970 
    115 H115       18.8098  -32.6125  -41.2797 H         1 UNK         0.0970 
    116 H116       17.0267  -31.7215  -39.9844 H         1 UNK         0.0612 
    117 H117       17.0421  -30.2415  -39.0668 H         1 UNK         0.0612 
@<TRIPOS>BOND
     1    1    2 1    
     2    1   62 1    
     3    1   63 1    
     4    1   64 1    
     5    2    3 2    
     6    2    4 am   BACKBONE|DICT|INTERRES
     7    4    5 1    
     8    4   65 1    
     9    5    6 1    
    10    5   25 1    
    11    5   66 1    
    12    6    7 1    
    13    6   67 1    
    14    6   68 1    
    15    7    8 1    
    16    8    9 1    
    17    8   69 1    
    18    8   70 1    
    19    9   10 ar   
    20    9   14 ar   
    21   10   11 ar   
    22   10   71 1    
    23   11   12 ar   
    24   11   61 1    
    25   12   13 ar   
    26   12   72 1    
    27   13   14 ar   
    28   13   15 1    
    29   14   73 1    
    30   15   16 1    
    31   15   74 1    
    32   15   75 1    
    33   16   17 1    
    34   17   18 1    
    35   17   76 1    
    36   17   77 1    
    37   18   19 1    
    38   18   27 1    
    39   18   78 1    
    40   19   20 am   BACKBONE|DICT|INTERRES
    41   19   79 1    
    42   20   21 2    
    43   20   22 1    
    44   22   23 1    
    45   22   24 1    
    46   22   80 1    
    47   23   81 1    
    48   23   82 1    
    49   23   83 1    
    50   24   25 am   BACKBONE|DICT|INTERRES
    51   24   84 1    
    52   25   26 2    
    53   27   28 2    
    54   27   29 am   BACKBONE|DICT|INTERRES
    55   29   30 1    
    56   29   85 1    
    57   30   31 1    
    58   30   32 1    
    59   30   86 1    
    60   31   87 1    
    61   31   88 1    
    62   31   89 1    
    63   32   33 2    
    64   32   34 am   BACKBONE|DICT|INTERRES
    65   34   35 1    
    66   34   90 1    
    67   35   36 1    
    68   35   37 1    
    69   35   91 1    
    70   36   92 1    
    71   36   93 1    
    72   36   94 1    
    73   37   38 2    
    74   37   39 am   BACKBONE|DICT|INTERRES
    75   39   40 1    
    76   39   95 1    
    77   40   41 1    
    78   40   42 1    
    79   40   96 1    
    80   41   97 1    
    81   41   98 1    
    82   41   99 1    
    83   42   43 2    
    84   42   44 am   BACKBONE|DICT|INTERRES
    85   44   45 1    
    86   44  100 1    
    87   45   46 1    
    88   45   47 1    
    89   45  101 1    
    90   46  102 1    
    91   46  103 1    
    92   46  104 1    
    93   47   48 2    
    94   47   49 am   BACKBONE|DICT|INTERRES
    95   49   50 1    
    96   49  105 1    
    97   50   51 1    
    98   50   52 1    
    99   50  106 1    
   100   51  107 1    
   101   51  108 1    
   102   51  109 1    
   103   52   53 2    
   104   52   54 am   BACKBONE|DICT|INTERRES
   105   54   55 1    
   106   54  110 1    
   107   55   56 1    
   108   55   59 1    
   109   55  111 1    
   110   56   57 am   BACKBONE|DICT|INTERRES
   111   56   58 2    
   112   57  112 1    
   113   57  113 1    
   114   59   60 1    
   115   59  114 1    
   116   59  115 1    
   117   60   61 1    
   118   61  116 1    
   119   61  117 1    
@<TRIPOS>SUBSTRUCTURE
     1 UNK         1 GROUP             0       ****    0 ROOT    
