@<TRIPOS>MOLECULE
3R8
117   119    1
SMALL
USER_CHARGES


@<TRIPOS>ATOM
      1 CA         17.2999  -26.2275  -40.2562 C.3       0 UNK        -0.2013 
      2 C          17.5046  -26.4180  -41.7512 C.2       0 UNK         0.4866 
      3 O          18.4510  -27.0932  -42.1584 O.2       0 UNK        -0.5176 
      4 N          16.6332  -25.8084  -42.5711 N.am      1 UNK        -0.4884 
      5 CA         16.5963  -25.9206  -44.0400 C.3       1 UNK         0.0853 
      6 C6         16.2022  -27.3583  -44.4839 C.3       10 UNK        -0.0849 
      7 S7         15.3501  -27.4134  -46.0984 S.3       10 UNK        -0.2776 
      8 C8         15.1352  -29.2109  -46.3447 C.3       10 UNK         0.0316 
      9 C9         16.4358  -29.9932  -46.1960 C.ar      10 UNK        -0.0863 
     10 C10        16.5332  -31.0205  -45.2516 C.ar      10 UNK        -0.1009 
     11 C11        17.7337  -31.7162  -45.0788 C.ar      10 UNK        -0.0712 
     12 C12        18.8445  -31.3765  -45.8555 C.ar      10 UNK        -0.0894 
     13 C13        18.7599  -30.3514  -46.8025 C.ar      10 UNK        -0.0745 
     14 C14        17.5491  -29.6761  -46.9809 C.ar      10 UNK        -0.0972 
     15 C15        19.9842  -29.9524  -47.6129 C.3       10 UNK         0.0209 
     16 S16        20.6475  -28.3387  -47.0887 S.3       10 UNK        -0.2568 
     17 C17        21.0811  -28.6726  -45.3485 C.3       10 UNK        -0.0983 
     18 CA         21.7227  -27.4458  -44.6603 C.3       3 UNK         0.0876 
     19 N          20.8200  -26.2907  -44.6482 N.am      3 UNK        -0.4424 
     20 C          21.0904  -25.0582  -44.2010 C.2       2 UNK         0.4918 
     21 O          22.1631  -24.7426  -43.6853 O.2       2 UNK        -0.4875 
     22 CA         19.9740  -23.9989  -44.3166 C.3       2 UNK         0.0481 
     23 CB         20.0430  -23.2681  -45.6711 C.3       2 UNK        -0.1831 
     24 N          18.6212  -24.5078  -44.0349 N.am      2 UNK        -0.4498 
     25 C          17.8922  -25.4049  -44.7205 C.2       1 UNK         0.5027 
     26 O          18.2428  -25.8588  -45.8098 O.2       1 UNK        -0.4969 
     27 C          22.2598  -27.8299  -43.2672 C.2       3 UNK         0.5005 
     28 O          23.3886  -28.3153  -43.1903 O.2       3 UNK        -0.5279 
     29 N          21.4954  -27.5579  -42.1942 N.am      4 UNK        -0.4463 
     30 CA         21.8933  -27.7717  -40.7944 C.3       4 UNK         0.0283 
     31 CB         20.7391  -27.3876  -39.8578 C.3       4 UNK        -0.1875 
     32 C          23.1911  -27.0595  -40.3611 C.2       4 UNK         0.4949 
     33 O          23.7993  -27.4758  -39.3747 O.2       4 UNK        -0.5039 
     34 N          23.6223  -26.0341  -41.1120 N.am      5 UNK        -0.4663 
     35 CA         24.9308  -25.3882  -40.9684 C.3       5 UNK         0.0242 
     36 CB         24.9734  -24.1365  -41.8589 C.3       5 UNK        -0.1982 
     37 C          26.1189  -26.3184  -41.2916 C.2       5 UNK         0.5017 
     38 O          27.2221  -26.0621  -40.8093 O.2       5 UNK        -0.5012 
     39 N          25.8774  -27.3838  -42.0693 N.am      6 UNK        -0.4439 
     40 CA         26.8337  -28.4413  -42.4003 C.3       6 UNK         0.0297 
     41 CB         26.8825  -28.6040  -43.9313 C.3       6 UNK        -0.2006 
     42 C          26.4547  -29.7499  -41.6774 C.2       6 UNK         0.4892 
     43 O          26.5754  -30.8266  -42.2647 O.2       6 UNK        -0.5089 
     44 N          26.0179  -29.6146  -40.4149 N.am      7 UNK        -0.4243 
     45 CA         25.4689  -30.6235  -39.4988 C.3       7 UNK         0.0196 
     46 CB         26.3581  -31.8792  -39.3885 C.3       7 UNK        -0.2007 
     47 C          24.0086  -30.9811  -39.8262 C.2       7 UNK         0.5020 
     48 O          23.5945  -30.9510  -40.9857 O.2       7 UNK        -0.5147 
     49 N          23.2443  -31.2935  -38.7719 N.am      8 UNK        -0.4734 
     50 CA         21.8075  -31.5804  -38.8217 C.3       8 UNK         0.0238 
     51 CB         21.2695  -31.6471  -37.3819 C.3       8 UNK        -0.1912 
     52 C          21.4587  -32.8693  -39.5885 C.2       8 UNK         0.5038 
     53 O          22.3010  -33.7600  -39.7267 O.2       8 UNK        -0.5046 
     54 N          20.1991  -32.9450  -40.0355 N.am      9 UNK        -0.4200 
     55 CA         19.6210  -34.0608  -40.8036 C.3       9 UNK         0.0839 
     56 C          19.5226  -35.4157  -40.0413 C.2       9 UNK         0.5513 
     57 N          19.6331  -35.4481  -38.7186 N.am      9 UNK        -0.7519 
     58 O          19.3387  -36.4567  -40.6667 O.2       9 UNK        -0.4960 
     59 C59        18.2371  -33.6799  -41.3952 C.3       10 UNK        -0.0876 
     60 S60        18.2778  -32.1639  -42.4137 S.3       10 UNK        -0.2414 
     61 C61        17.8324  -32.8274  -44.0462 C.3       10 UNK         0.0169 
     62 H62        17.3360  -27.1904  -39.7475 H         1 UNK         0.0903 
     63 H63        18.0853  -25.5941  -39.8459 H         1 UNK         0.0903 
     64 H64        16.3385  -25.7653  -40.0328 H         1 UNK         0.0903 
     65 H65        15.8942  -25.2478  -42.1673 H         1 UNK         0.3096 
     66 H66        15.8074  -25.2394  -44.3633 H         1 UNK         0.1121 
     67 H67        15.5207  -27.8023  -43.7564 H         1 UNK         0.0849 
     68 H68        17.0811  -28.0061  -44.4963 H         1 UNK         0.0849 
     69 H69        14.3844  -29.5707  -45.6394 H         1 UNK         0.0865 
     70 H70        14.7274  -29.3859  -47.3412 H         1 UNK         0.0865 
     71 H71        15.6795  -31.2728  -44.6371 H         1 UNK         0.1346 
     72 H72        19.7796  -31.9001  -45.7097 H         1 UNK         0.1412 
     73 H73        17.4862  -28.8720  -47.7018 H         1 UNK         0.1426 
     74 H74        19.7169  -29.8996  -48.6692 H         1 UNK         0.0716 
     75 H75        20.7689  -30.7063  -47.5320 H         1 UNK         0.0716 
     76 H76        21.7606  -29.5273  -45.3303 H         1 UNK         0.0695 
     77 H77        20.1815  -28.9763  -44.8092 H         1 UNK         0.0695 
     78 H78        22.5936  -27.1489  -45.2486 H         1 UNK         0.0983 
     79 H79        19.9193  -26.4295  -45.0977 H         1 UNK         0.3095 
     80 H80        20.1701  -23.2586  -43.5394 H         1 UNK         0.0454 
     81 H81        21.0158  -22.7932  -45.8045 H         1 UNK         0.0851 
     82 H82        19.2884  -22.4847  -45.7386 H         1 UNK         0.0851 
     83 H83        19.8997  -23.9463  -46.5126 H         1 UNK         0.0851 
     84 H84        18.2462  -24.2311  -43.1381 H         1 UNK         0.2976 
     85 H85        20.5564  -27.2024  -42.3477 H         1 UNK         0.3116 
     86 H86        22.0699  -28.8405  -40.6812 H         1 UNK         0.0646 
     87 H87        20.4572  -26.3415  -39.9789 H         1 UNK         0.0847 
     88 H88        19.8591  -28.0029  -40.0433 H         1 UNK         0.0847 
     89 H89        21.0148  -27.5336  -38.8124 H         1 UNK         0.0847 
     90 H90        23.0606  -25.7453  -41.9050 H         1 UNK         0.3040 
     91 H91        25.0376  -25.0753  -39.9274 H         1 UNK         0.1015 
     92 H92        25.9186  -23.6046  -41.7419 H         1 UNK         0.0786 
     93 H93        24.1754  -23.4391  -41.6032 H         1 UNK         0.0786 
     94 H94        24.8698  -24.3904  -42.9148 H         1 UNK         0.0786 
     95 H95        24.9251  -27.5526  -42.3921 H         1 UNK         0.3172 
     96 H96        27.8352  -28.1709  -42.0603 H         1 UNK         0.0595 
     97 H97        25.9218  -28.9326  -44.3301 H         1 UNK         0.0839 
     98 H98        27.6294  -29.3427  -44.2248 H         1 UNK         0.0839 
     99 H99        27.1462  -27.6667  -44.4215 H         1 UNK         0.0839 
    100 H100       25.9253  -28.6652  -40.0791 H         1 UNK         0.2998 
    101 H101       25.4697  -30.1360  -38.5223 H         1 UNK         0.0822 
    102 H102       26.0270  -32.5167  -38.5679 H         1 UNK         0.0787 
    103 H103       26.3231  -32.4853  -40.2941 H         1 UNK         0.0787 
    104 H104       27.3985  -31.6166  -39.1967 H         1 UNK         0.0787 
    105 H105       23.6749  -31.3327  -37.8594 H         1 UNK         0.3055 
    106 H106       21.3253  -30.7459  -39.3355 H         1 UNK         0.1106 
    107 H107       21.4581  -30.7178  -36.8437 H         1 UNK         0.0828 
    108 H108       20.1908  -31.8087  -37.3682 H         1 UNK         0.0828 
    109 H109       21.7273  -32.4610  -36.8180 H         1 UNK         0.0828 
    110 H110       19.5741  -32.1705  -39.8684 H         1 UNK         0.2931 
    111 H111       20.2965  -34.2391  -41.6427 H         1 UNK         0.0412 
    112 H112       19.5690  -36.3326  -38.2390 H         1 UNK         0.3472 
    113 H113       19.7892  -34.6011  -38.1969 H         1 UNK         0.3472 
    114 H114       17.5131  -33.5255  -40.5928 H         1 UNK         0.0970 
    115 H115       17.8422  -34.5026  -41.9948 H         1 UNK         0.0970 
    116 H116       16.8792  -33.3542  -43.9774 H         1 UNK         0.0612 
    117 H117       18.5756  -33.5655  -44.3522 H         1 UNK         0.0612 
@<TRIPOS>BOND
     1    1    2 1    
     2    1   62 1    
     3    1   63 1    
     4    1   64 1    
     5    2    3 2    
     6    2    4 am   BACKBONE|DICT|INTERRES
     7    4    5 1    
     8    4   65 1    
     9    5    6 1    
    10    5   25 1    
    11    5   66 1    
    12    6    7 1    
    13    6   67 1    
    14    6   68 1    
    15    7    8 1    
    16    8    9 1    
    17    8   69 1    
    18    8   70 1    
    19    9   10 ar   
    20    9   14 ar   
    21   10   11 ar   
    22   10   71 1    
    23   11   12 ar   
    24   11   61 1    
    25   12   13 ar   
    26   12   72 1    
    27   13   14 ar   
    28   13   15 1    
    29   14   73 1    
    30   15   16 1    
    31   15   74 1    
    32   15   75 1    
    33   16   17 1    
    34   17   18 1    
    35   17   76 1    
    36   17   77 1    
    37   18   19 1    
    38   18   27 1    
    39   18   78 1    
    40   19   20 am   BACKBONE|DICT|INTERRES
    41   19   79 1    
    42   20   21 2    
    43   20   22 1    
    44   22   23 1    
    45   22   24 1    
    46   22   80 1    
    47   23   81 1    
    48   23   82 1    
    49   23   83 1    
    50   24   25 am   BACKBONE|DICT|INTERRES
    51   24   84 1    
    52   25   26 2    
    53   27   28 2    
    54   27   29 am   BACKBONE|DICT|INTERRES
    55   29   30 1    
    56   29   85 1    
    57   30   31 1    
    58   30   32 1    
    59   30   86 1    
    60   31   87 1    
    61   31   88 1    
    62   31   89 1    
    63   32   33 2    
    64   32   34 am   BACKBONE|DICT|INTERRES
    65   34   35 1    
    66   34   90 1    
    67   35   36 1    
    68   35   37 1    
    69   35   91 1    
    70   36   92 1    
    71   36   93 1    
    72   36   94 1    
    73   37   38 2    
    74   37   39 am   BACKBONE|DICT|INTERRES
    75   39   40 1    
    76   39   95 1    
    77   40   41 1    
    78   40   42 1    
    79   40   96 1    
    80   41   97 1    
    81   41   98 1    
    82   41   99 1    
    83   42   43 2    
    84   42   44 am   BACKBONE|DICT|INTERRES
    85   44   45 1    
    86   44  100 1    
    87   45   46 1    
    88   45   47 1    
    89   45  101 1    
    90   46  102 1    
    91   46  103 1    
    92   46  104 1    
    93   47   48 2    
    94   47   49 am   BACKBONE|DICT|INTERRES
    95   49   50 1    
    96   49  105 1    
    97   50   51 1    
    98   50   52 1    
    99   50  106 1    
   100   51  107 1    
   101   51  108 1    
   102   51  109 1    
   103   52   53 2    
   104   52   54 am   BACKBONE|DICT|INTERRES
   105   54   55 1    
   106   54  110 1    
   107   55   56 1    
   108   55   59 1    
   109   55  111 1    
   110   56   57 am   BACKBONE|DICT|INTERRES
   111   56   58 2    
   112   57  112 1    
   113   57  113 1    
   114   59   60 1    
   115   59  114 1    
   116   59  115 1    
   117   60   61 1    
   118   61  116 1    
   119   61  117 1    
@<TRIPOS>SUBSTRUCTURE
     1 UNK         1 GROUP             0       ****    0 ROOT    
