@<TRIPOS>MOLECULE
3R8
117   119    1
SMALL
USER_CHARGES


@<TRIPOS>ATOM
      1 CA         20.0059  -23.8315  -48.4340 C.3       0 UNK        -0.2013 
      2 C          20.4663  -24.6048  -47.2073 C.2       0 UNK         0.4866 
      3 O          21.4078  -24.1829  -46.5351 O.2       0 UNK        -0.5176 
      4 N          19.8158  -25.7375  -46.9160 N.am      1 UNK        -0.4884 
      5 CA         20.0678  -26.5653  -45.7331 C.3       1 UNK         0.0853 
      6 C6         19.5297  -28.0078  -45.9226 C.3       10 UNK        -0.0849 
      7 S7         17.7373  -28.1001  -46.2770 S.3       10 UNK        -0.2776 
      8 C8         17.4834  -29.9023  -46.4337 C.3       10 UNK         0.0316 
      9 C9         17.4262  -30.7032  -45.1280 C.ar      10 UNK        -0.0863 
     10 C10        17.1894  -32.0796  -45.2183 C.ar      10 UNK        -0.1009 
     11 C11        17.1105  -32.8746  -44.0717 C.ar      10 UNK        -0.0712 
     12 C12        17.2676  -32.2839  -42.8164 C.ar      10 UNK        -0.0894 
     13 C13        17.5194  -30.9150  -42.7042 C.ar      10 UNK        -0.0745 
     14 C14        17.5927  -30.1291  -43.8586 C.ar      10 UNK        -0.0972 
     15 C15        17.7164  -30.2919  -41.3318 C.3       10 UNK         0.0209 
     16 S16        19.3541  -30.7183  -40.6709 S.3       10 UNK        -0.2568 
     17 C17        19.4387  -29.6782  -39.1755 C.3       10 UNK        -0.0983 
     18 CA         20.3907  -28.4767  -39.3920 C.3       3 UNK         0.0876 
     19 N          19.8385  -27.5029  -40.3431 N.am      3 UNK        -0.4424 
     20 C          20.5350  -26.5501  -40.9734 C.2       2 UNK         0.4918 
     21 O          21.7416  -26.3562  -40.8090 O.2       2 UNK        -0.4875 
     22 CA         19.7851  -25.6946  -41.9915 C.3       2 UNK         0.0481 
     23 CB         20.1494  -24.2034  -41.8413 C.3       2 UNK        -0.1831 
     24 N          20.1503  -26.1876  -43.3154 N.am      2 UNK        -0.4498 
     25 C          19.5139  -25.8988  -44.4541 C.2       1 UNK         0.5027 
     26 O          18.5239  -25.1634  -44.5165 O.2       1 UNK        -0.4969 
     27 C          20.8256  -27.7977  -38.0752 C.2       3 UNK         0.5005 
     28 O          20.1185  -27.8622  -37.0680 O.2       3 UNK        -0.5279 
     29 N          21.9859  -27.1397  -38.1514 N.am      4 UNK        -0.4463 
     30 CA         22.6685  -26.3238  -37.1521 C.3       4 UNK         0.0283 
     31 CB         21.7792  -25.1678  -36.6499 C.3       4 UNK        -0.1875 
     32 C          23.9587  -25.7560  -37.7675 C.2       4 UNK         0.4949 
     33 O          24.9585  -25.6508  -37.0573 O.2       4 UNK        -0.5039 
     34 N          23.9219  -25.4112  -39.0665 N.am      5 UNK        -0.4663 
     35 CA         25.0478  -24.8264  -39.8072 C.3       5 UNK         0.0242 
     36 CB         24.7724  -23.3300  -40.0342 C.3       5 UNK        -0.1982 
     37 C          25.3300  -25.5245  -41.1501 C.2       5 UNK         0.5017 
     38 O          26.4705  -25.4791  -41.6124 O.2       5 UNK        -0.5012 
     39 N          24.3134  -26.1471  -41.7583 N.am      6 UNK        -0.4439 
     40 CA         24.3747  -26.8326  -43.0466 C.3       6 UNK         0.0297 
     41 CB         24.0491  -25.8390  -44.1796 C.3       6 UNK        -0.2006 
     42 C          23.4033  -28.0178  -42.9965 C.2       6 UNK         0.4892 
     43 O          22.3525  -27.9882  -43.6419 O.2       6 UNK        -0.5089 
     44 N          23.7347  -29.0085  -42.1599 N.am      7 UNK        -0.4243 
     45 CA         22.9405  -30.2182  -41.9580 C.3       7 UNK         0.0196 
     46 CB         23.3610  -30.8907  -40.6386 C.3       7 UNK        -0.2007 
     47 C          23.0977  -31.1706  -43.1521 C.2       7 UNK         0.5020 
     48 O          24.1313  -31.8310  -43.2714 O.2       7 UNK        -0.5147 
     49 N          22.0851  -31.2068  -44.0265 N.am      8 UNK        -0.4734 
     50 CA         22.0546  -32.0782  -45.2058 C.3       8 UNK         0.0238 
     51 CB         21.0105  -31.5542  -46.2012 C.3       8 UNK        -0.1912 
     52 C          21.7786  -33.5514  -44.8601 C.2       8 UNK         0.5038 
     53 O          22.2488  -34.4318  -45.5823 O.2       8 UNK        -0.5046 
     54 N          21.0386  -33.7852  -43.7705 N.am      9 UNK        -0.4200 
     55 CA         20.7499  -35.1081  -43.2056 C.3       9 UNK         0.0839 
     56 C          21.4889  -35.2707  -41.8543 C.2       9 UNK         0.5513 
     57 N          21.9744  -36.4669  -41.5528 N.am      9 UNK        -0.7519 
     58 O          21.5930  -34.3362  -41.0625 O.2       9 UNK        -0.4960 
     59 C59        19.2279  -35.3385  -43.0246 C.3       10 UNK        -0.0876 
     60 S60        18.3248  -35.3173  -44.6122 S.3       10 UNK        -0.2414 
     61 C61        16.8306  -34.3657  -44.1919 C.3       10 UNK         0.0169 
     62 H62        19.1764  -24.3253  -48.9400 H         1 UNK         0.0903 
     63 H63        19.6809  -22.8320  -48.1465 H         1 UNK         0.0903 
     64 H64        20.8259  -23.7324  -49.1448 H         1 UNK         0.0903 
     65 H65        19.0211  -26.0201  -47.4726 H         1 UNK         0.3096 
     66 H66        21.1519  -26.6353  -45.6152 H         1 UNK         0.1121 
     67 H67        20.0581  -28.4747  -46.7546 H         1 UNK         0.0849 
     68 H68        19.7631  -28.6183  -45.0486 H         1 UNK         0.0849 
     69 H69        16.5420  -30.0541  -46.9639 H         1 UNK         0.0865 
     70 H70        18.2617  -30.3138  -47.0777 H         1 UNK         0.0865 
     71 H71        17.0622  -32.5391  -46.1894 H         1 UNK         0.1346 
     72 H72        17.2028  -32.8880  -41.9218 H         1 UNK         0.1412 
     73 H73        17.7764  -29.0700  -43.7530 H         1 UNK         0.1426 
     74 H74        16.9437  -30.6468  -40.6481 H         1 UNK         0.0716 
     75 H75        17.6119  -29.2078  -41.3863 H         1 UNK         0.0716 
     76 H76        19.8021  -30.3150  -38.3666 H         1 UNK         0.0695 
     77 H77        18.4418  -29.3471  -38.8792 H         1 UNK         0.0695 
     78 H78        21.3038  -28.8756  -39.8348 H         1 UNK         0.0983 
     79 H79        18.8489  -27.5768  -40.5221 H         1 UNK         0.3095 
     80 H80        18.7107  -25.8184  -41.8417 H         1 UNK         0.0454 
     81 H81        21.2022  -24.0200  -42.0601 H         1 UNK         0.0851 
     82 H82        19.9613  -23.8558  -40.8248 H         1 UNK         0.0851 
     83 H83        19.5581  -23.5775  -42.5092 H         1 UNK         0.0851 
     84 H84        20.9483  -26.8227  -43.3437 H         1 UNK         0.2976 
     85 H85        22.4429  -27.1546  -39.0548 H         1 UNK         0.3116 
     86 H86        22.9397  -26.9647  -36.3112 H         1 UNK         0.0646 
     87 H87        21.4121  -24.5541  -37.4733 H         1 UNK         0.0847 
     88 H88        22.3345  -24.5129  -35.9770 H         1 UNK         0.0847 
     89 H89        20.9166  -25.5329  -36.0935 H         1 UNK         0.0847 
     90 H90        23.0463  -25.4944  -39.5709 H         1 UNK         0.3040 
     91 H91        25.9661  -24.9164  -39.2223 H         1 UNK         0.1015 
     92 H92        24.6650  -22.8001  -39.0875 H         1 UNK         0.0786 
     93 H93        23.8614  -23.1711  -40.6128 H         1 UNK         0.0786 
     94 H94        25.5922  -22.8578  -40.5775 H         1 UNK         0.0786 
     95 H95        23.3929  -26.1615  -41.3223 H         1 UNK         0.3172 
     96 H96        25.3754  -27.2373  -43.2117 H         1 UNK         0.0595 
     97 H97        23.0722  -25.3733  -44.0423 H         1 UNK         0.0839 
     98 H98        24.0397  -26.3391  -45.1489 H         1 UNK         0.0839 
     99 H99        24.7918  -25.0431  -44.2329 H         1 UNK         0.0839 
    100 H100       24.6191  -28.9588  -41.6748 H         1 UNK         0.2998 
    101 H101       21.8910  -29.9323  -41.8753 H         1 UNK         0.0822 
    102 H102       24.4010  -31.2187  -40.6621 H         1 UNK         0.0787 
    103 H103       23.2462  -30.2197  -39.7880 H         1 UNK         0.0787 
    104 H104       22.7467  -31.7710  -40.4427 H         1 UNK         0.0787 
    105 H105       21.2933  -30.5960  -43.8826 H         1 UNK         0.3055 
    106 H106       23.0334  -32.0376  -45.6898 H         1 UNK         0.1106 
    107 H107       20.9648  -32.1850  -47.0901 H         1 UNK         0.0828 
    108 H108       20.0149  -31.5403  -45.7607 H         1 UNK         0.0828 
    109 H109       21.2529  -30.5455  -46.5334 H         1 UNK         0.0828 
    110 H110       20.7405  -32.9994  -43.2115 H         1 UNK         0.2931 
    111 H111       21.1216  -35.8834  -43.8790 H         1 UNK         0.0412 
    112 H112       21.8853  -37.2430  -42.1907 H         1 UNK         0.3472 
    113 H113       22.4460  -36.5957  -40.6708 H         1 UNK         0.3472 
    114 H114       19.0431  -36.3078  -42.5576 H         1 UNK         0.0970 
    115 H115       18.8121  -34.5946  -42.3447 H         1 UNK         0.0970 
    116 H116       16.0836  -34.5300  -44.9698 H         1 UNK         0.0612 
    117 H117       16.3975  -34.7558  -43.2694 H         1 UNK         0.0612 
@<TRIPOS>BOND
     1    1    2 1    
     2    1   62 1    
     3    1   63 1    
     4    1   64 1    
     5    2    3 2    
     6    2    4 am   BACKBONE|DICT|INTERRES
     7    4    5 1    
     8    4   65 1    
     9    5    6 1    
    10    5   25 1    
    11    5   66 1    
    12    6    7 1    
    13    6   67 1    
    14    6   68 1    
    15    7    8 1    
    16    8    9 1    
    17    8   69 1    
    18    8   70 1    
    19    9   10 ar   
    20    9   14 ar   
    21   10   11 ar   
    22   10   71 1    
    23   11   12 ar   
    24   11   61 1    
    25   12   13 ar   
    26   12   72 1    
    27   13   14 ar   
    28   13   15 1    
    29   14   73 1    
    30   15   16 1    
    31   15   74 1    
    32   15   75 1    
    33   16   17 1    
    34   17   18 1    
    35   17   76 1    
    36   17   77 1    
    37   18   19 1    
    38   18   27 1    
    39   18   78 1    
    40   19   20 am   BACKBONE|DICT|INTERRES
    41   19   79 1    
    42   20   21 2    
    43   20   22 1    
    44   22   23 1    
    45   22   24 1    
    46   22   80 1    
    47   23   81 1    
    48   23   82 1    
    49   23   83 1    
    50   24   25 am   BACKBONE|DICT|INTERRES
    51   24   84 1    
    52   25   26 2    
    53   27   28 2    
    54   27   29 am   BACKBONE|DICT|INTERRES
    55   29   30 1    
    56   29   85 1    
    57   30   31 1    
    58   30   32 1    
    59   30   86 1    
    60   31   87 1    
    61   31   88 1    
    62   31   89 1    
    63   32   33 2    
    64   32   34 am   BACKBONE|DICT|INTERRES
    65   34   35 1    
    66   34   90 1    
    67   35   36 1    
    68   35   37 1    
    69   35   91 1    
    70   36   92 1    
    71   36   93 1    
    72   36   94 1    
    73   37   38 2    
    74   37   39 am   BACKBONE|DICT|INTERRES
    75   39   40 1    
    76   39   95 1    
    77   40   41 1    
    78   40   42 1    
    79   40   96 1    
    80   41   97 1    
    81   41   98 1    
    82   41   99 1    
    83   42   43 2    
    84   42   44 am   BACKBONE|DICT|INTERRES
    85   44   45 1    
    86   44  100 1    
    87   45   46 1    
    88   45   47 1    
    89   45  101 1    
    90   46  102 1    
    91   46  103 1    
    92   46  104 1    
    93   47   48 2    
    94   47   49 am   BACKBONE|DICT|INTERRES
    95   49   50 1    
    96   49  105 1    
    97   50   51 1    
    98   50   52 1    
    99   50  106 1    
   100   51  107 1    
   101   51  108 1    
   102   51  109 1    
   103   52   53 2    
   104   52   54 am   BACKBONE|DICT|INTERRES
   105   54   55 1    
   106   54  110 1    
   107   55   56 1    
   108   55   59 1    
   109   55  111 1    
   110   56   57 am   BACKBONE|DICT|INTERRES
   111   56   58 2    
   112   57  112 1    
   113   57  113 1    
   114   59   60 1    
   115   59  114 1    
   116   59  115 1    
   117   60   61 1    
   118   61  116 1    
   119   61  117 1    
@<TRIPOS>SUBSTRUCTURE
     1 UNK         1 GROUP             0       ****    0 ROOT    
