@<TRIPOS>MOLECULE
3R8
117   119    1
SMALL
USER_CHARGES


@<TRIPOS>ATOM
      1 CA         14.7062  -23.6554  -42.2276 C.3       0 UNK        -0.2013 
      2 C          15.3670  -23.9333  -43.5696 C.2       0 UNK         0.4866 
      3 O          14.8270  -23.5487  -44.6075 O.2       0 UNK        -0.5176 
      4 N          16.5295  -24.5926  -43.5510 N.am      1 UNK        -0.4884 
      5 CA         17.3458  -24.9151  -44.7233 C.3       1 UNK         0.0853 
      6 C6         17.3681  -26.4343  -45.0223 C.3       10 UNK        -0.0849 
      7 S7         15.7335  -27.1822  -45.3505 S.3       10 UNK        -0.2776 
      8 C8         15.7137  -28.5991  -44.1846 C.3       10 UNK         0.0316 
      9 C9         16.9726  -29.4716  -44.2053 C.ar      10 UNK        -0.0863 
     10 C10        17.3967  -30.0984  -43.0286 C.ar      10 UNK        -0.1009 
     11 C11        18.5830  -30.8397  -43.0007 C.ar      10 UNK        -0.0712 
     12 C12        19.3595  -30.9433  -44.1584 C.ar      10 UNK        -0.0894 
     13 C13        18.9400  -30.3360  -45.3440 C.ar      10 UNK        -0.0745 
     14 C14        17.7328  -29.6349  -45.3684 C.ar      10 UNK        -0.0972 
     15 C15        19.7823  -30.4144  -46.6056 C.3       10 UNK         0.0209 
     16 S16        20.4407  -28.7765  -47.0599 S.3       10 UNK        -0.2568 
     17 C17        22.0189  -28.7036  -46.1426 C.3       10 UNK        -0.0983 
     18 CA         22.0998  -27.6270  -45.0253 C.3       3 UNK         0.0876 
     19 N          21.4908  -26.3484  -45.4091 N.am      3 UNK        -0.4424 
     20 C          21.8041  -25.1583  -44.8784 C.2       2 UNK         0.4918 
     21 O          22.6352  -25.0096  -43.9832 O.2       2 UNK        -0.4875 
     22 CA         21.0115  -23.9444  -45.3969 C.3       2 UNK         0.0481 
     23 CB         21.5528  -23.4815  -46.7588 C.3       2 UNK        -0.1831 
     24 N          19.5735  -24.2213  -45.4980 N.am      2 UNK        -0.4498 
     25 C          18.7848  -24.4529  -44.4389 C.2       1 UNK         0.5027 
     26 O          19.1814  -24.3907  -43.2722 O.2       1 UNK        -0.4969 
     27 C          21.6550  -28.1476  -43.6408 C.2       3 UNK         0.5005 
     28 O          22.2896  -29.0697  -43.1305 O.2       3 UNK        -0.5279 
     29 N          20.6517  -27.5208  -43.0047 N.am      4 UNK        -0.4463 
     30 CA         20.2894  -27.7885  -41.6065 C.3       4 UNK         0.0283 
     31 CB         18.9178  -27.1752  -41.2831 C.3       4 UNK        -0.1875 
     32 C          21.3504  -27.2898  -40.6063 C.2       4 UNK         0.4949 
     33 O          21.4069  -27.8010  -39.4886 O.2       4 UNK        -0.5039 
     34 N          22.1754  -26.3161  -41.0206 N.am      5 UNK        -0.4663 
     35 CA         23.3144  -25.8078  -40.2521 C.3       5 UNK         0.0242 
     36 CB         23.5445  -24.3339  -40.6271 C.3       5 UNK        -0.1982 
     37 C          24.5999  -26.6300  -40.4707 C.2       5 UNK         0.5017 
     38 O          25.5815  -26.3945  -39.7644 O.2       5 UNK        -0.5012 
     39 N          24.5904  -27.5565  -41.4394 N.am      6 UNK        -0.4439 
     40 CA         25.6955  -28.4666  -41.7416 C.3       6 UNK         0.0297 
     41 CB         25.6904  -28.7661  -43.2527 C.3       6 UNK        -0.2006 
     42 C          25.5755  -29.7603  -40.9172 C.2       6 UNK         0.4892 
     43 O          24.6063  -29.9446  -40.1760 O.2       6 UNK        -0.5089 
     44 N          26.5609  -30.6533  -41.0769 N.am      7 UNK        -0.4243 
     45 CA         26.5973  -31.9897  -40.4758 C.3       7 UNK         0.0196 
     46 CB         28.0555  -32.4859  -40.4527 C.3       7 UNK        -0.2007 
     47 C          25.6505  -32.9622  -41.2093 C.2       7 UNK         0.5020 
     48 O          26.1071  -33.9091  -41.8522 O.2       7 UNK        -0.5147 
     49 N          24.3467  -32.6915  -41.1171 N.am      8 UNK        -0.4734 
     50 CA         23.2565  -33.4684  -41.6994 C.3       8 UNK         0.0238 
     51 CB         22.7680  -32.7624  -42.9766 C.3       8 UNK        -0.1912 
     52 C          22.1226  -33.5934  -40.6731 C.2       8 UNK         0.5038 
     53 O          22.0746  -32.8171  -39.7153 O.2       8 UNK        -0.5046 
     54 N          21.2264  -34.5614  -40.9041 N.am      9 UNK        -0.4200 
     55 CA         20.0588  -34.8828  -40.0601 C.3       9 UNK         0.0839 
     56 C          20.4112  -35.4716  -38.6585 C.2       9 UNK         0.5513 
     57 N          21.6233  -35.9652  -38.4345 N.am      9 UNK        -0.7519 
     58 O          19.5664  -35.5152  -37.7674 O.2       9 UNK        -0.4960 
     59 C59        19.0168  -33.7277  -39.9786 C.3       10 UNK        -0.0876 
     60 S60        18.3963  -33.2116  -41.6157 S.3       10 UNK        -0.2414 
     61 C61        19.0347  -31.5127  -41.7151 C.3       10 UNK         0.0169 
     62 H62        15.2871  -24.0538  -41.3959 H         1 UNK         0.0903 
     63 H63        14.5938  -22.5817  -42.0793 H         1 UNK         0.0903 
     64 H64        13.7161  -24.1094  -42.1967 H         1 UNK         0.0903 
     65 H65        16.9737  -24.8058  -42.6677 H         1 UNK         0.3096 
     66 H66        16.9826  -24.3770  -45.6019 H         1 UNK         0.1121 
     67 H67        17.9898  -26.6400  -45.8961 H         1 UNK         0.0849 
     68 H68        17.8403  -26.9628  -44.1943 H         1 UNK         0.0849 
     69 H69        15.5569  -28.2017  -43.1804 H         1 UNK         0.0865 
     70 H70        14.8490  -29.2255  -44.4070 H         1 UNK         0.0865 
     71 H71        16.8107  -29.9990  -42.1249 H         1 UNK         0.1346 
     72 H72        20.2896  -31.4931  -44.1340 H         1 UNK         0.1412 
     73 H73        17.4163  -29.1728  -46.2931 H         1 UNK         0.1426 
     74 H74        19.1575  -30.7774  -47.4229 H         1 UNK         0.0716 
     75 H75        20.5940  -31.1359  -46.5011 H         1 UNK         0.0716 
     76 H76        22.2796  -29.6926  -45.7605 H         1 UNK         0.0695 
     77 H77        22.7866  -28.4834  -46.8860 H         1 UNK         0.0695 
     78 H78        23.1657  -27.4259  -44.8922 H         1 UNK         0.0983 
     79 H79        20.7965  -26.3997  -46.1407 H         1 UNK         0.3095 
     80 H80        21.1499  -23.1277  -44.6850 H         1 UNK         0.0454 
     81 H81        22.6191  -23.2586  -46.6980 H         1 UNK         0.0851 
     82 H82        21.4232  -24.2410  -47.5307 H         1 UNK         0.0851 
     83 H83        21.0539  -22.5726  -47.0953 H         1 UNK         0.0851 
     84 H84        19.1852  -24.2856  -46.4288 H         1 UNK         0.2976 
     85 H85        20.1961  -26.7428  -43.4578 H         1 UNK         0.3116 
     86 H86        20.2113  -28.8697  -41.4814 H         1 UNK         0.0646 
     87 H87        18.6060  -27.4436  -40.2729 H         1 UNK         0.0847 
     88 H88        18.1450  -27.5352  -41.9598 H         1 UNK         0.0847 
     89 H89        18.9379  -26.0871  -41.3323 H         1 UNK         0.0847 
     90 H90        22.0595  -25.9373  -41.9527 H         1 UNK         0.3040 
     91 H91        23.0795  -25.8537  -39.1862 H         1 UNK         0.1015 
     92 H92        24.3434  -23.8977  -40.0258 H         1 UNK         0.0786 
     93 H93        22.6492  -23.7357  -40.4566 H         1 UNK         0.0786 
     94 H94        23.8286  -24.2227  -41.6741 H         1 UNK         0.0786 
     95 H95        23.7095  -27.7666  -41.8903 H         1 UNK         0.3172 
     96 H96        26.6432  -27.9866  -41.4886 H         1 UNK         0.0595 
     97 H97        25.6551  -27.8487  -43.8406 H         1 UNK         0.0839 
     98 H98        24.8401  -29.3839  -43.5426 H         1 UNK         0.0839 
     99 H99        26.5919  -29.3006  -43.5533 H         1 UNK         0.0839 
    100 H100       27.3086  -30.4351  -41.7198 H         1 UNK         0.2998 
    101 H101       26.2549  -31.9202  -39.4408 H         1 UNK         0.0822 
    102 H102       28.6930  -31.8166  -39.8746 H         1 UNK         0.0787 
    103 H103       28.1242  -33.4728  -39.9930 H         1 UNK         0.0787 
    104 H104       28.4738  -32.5639  -41.4571 H         1 UNK         0.0787 
    105 H105       24.0581  -31.8921  -40.5579 H         1 UNK         0.3055 
    106 H106       23.6041  -34.4741  -41.9472 H         1 UNK         0.1106 
    107 H107       22.4150  -31.7525  -42.7641 H         1 UNK         0.0828 
    108 H108       23.5655  -32.6854  -43.7157 H         1 UNK         0.0828 
    109 H109       21.9461  -33.3075  -43.4420 H         1 UNK         0.0828 
    110 H110       21.3446  -35.1518  -41.7146 H         1 UNK         0.2931 
    111 H111       19.5662  -35.7090  -40.5740 H         1 UNK         0.0412 
    112 H112       21.8381  -36.3539  -37.5294 H         1 UNK         0.3472 
    113 H113       22.3244  -35.9523  -39.1575 H         1 UNK         0.3472 
    114 H114       19.4308  -32.8717  -39.4437 H         1 UNK         0.0970 
    115 H115       18.1469  -34.0429  -39.3997 H         1 UNK         0.0970 
    116 H116       20.1239  -31.5254  -41.6600 H         1 UNK         0.0612 
    117 H117       18.6871  -30.9424  -40.8522 H         1 UNK         0.0612 
@<TRIPOS>BOND
     1    1    2 1    
     2    1   62 1    
     3    1   63 1    
     4    1   64 1    
     5    2    3 2    
     6    2    4 am   BACKBONE|DICT|INTERRES
     7    4    5 1    
     8    4   65 1    
     9    5    6 1    
    10    5   25 1    
    11    5   66 1    
    12    6    7 1    
    13    6   67 1    
    14    6   68 1    
    15    7    8 1    
    16    8    9 1    
    17    8   69 1    
    18    8   70 1    
    19    9   10 ar   
    20    9   14 ar   
    21   10   11 ar   
    22   10   71 1    
    23   11   12 ar   
    24   11   61 1    
    25   12   13 ar   
    26   12   72 1    
    27   13   14 ar   
    28   13   15 1    
    29   14   73 1    
    30   15   16 1    
    31   15   74 1    
    32   15   75 1    
    33   16   17 1    
    34   17   18 1    
    35   17   76 1    
    36   17   77 1    
    37   18   19 1    
    38   18   27 1    
    39   18   78 1    
    40   19   20 am   BACKBONE|DICT|INTERRES
    41   19   79 1    
    42   20   21 2    
    43   20   22 1    
    44   22   23 1    
    45   22   24 1    
    46   22   80 1    
    47   23   81 1    
    48   23   82 1    
    49   23   83 1    
    50   24   25 am   BACKBONE|DICT|INTERRES
    51   24   84 1    
    52   25   26 2    
    53   27   28 2    
    54   27   29 am   BACKBONE|DICT|INTERRES
    55   29   30 1    
    56   29   85 1    
    57   30   31 1    
    58   30   32 1    
    59   30   86 1    
    60   31   87 1    
    61   31   88 1    
    62   31   89 1    
    63   32   33 2    
    64   32   34 am   BACKBONE|DICT|INTERRES
    65   34   35 1    
    66   34   90 1    
    67   35   36 1    
    68   35   37 1    
    69   35   91 1    
    70   36   92 1    
    71   36   93 1    
    72   36   94 1    
    73   37   38 2    
    74   37   39 am   BACKBONE|DICT|INTERRES
    75   39   40 1    
    76   39   95 1    
    77   40   41 1    
    78   40   42 1    
    79   40   96 1    
    80   41   97 1    
    81   41   98 1    
    82   41   99 1    
    83   42   43 2    
    84   42   44 am   BACKBONE|DICT|INTERRES
    85   44   45 1    
    86   44  100 1    
    87   45   46 1    
    88   45   47 1    
    89   45  101 1    
    90   46  102 1    
    91   46  103 1    
    92   46  104 1    
    93   47   48 2    
    94   47   49 am   BACKBONE|DICT|INTERRES
    95   49   50 1    
    96   49  105 1    
    97   50   51 1    
    98   50   52 1    
    99   50  106 1    
   100   51  107 1    
   101   51  108 1    
   102   51  109 1    
   103   52   53 2    
   104   52   54 am   BACKBONE|DICT|INTERRES
   105   54   55 1    
   106   54  110 1    
   107   55   56 1    
   108   55   59 1    
   109   55  111 1    
   110   56   57 am   BACKBONE|DICT|INTERRES
   111   56   58 2    
   112   57  112 1    
   113   57  113 1    
   114   59   60 1    
   115   59  114 1    
   116   59  115 1    
   117   60   61 1    
   118   61  116 1    
   119   61  117 1    
@<TRIPOS>SUBSTRUCTURE
     1 UNK         1 GROUP             0       ****    0 ROOT    
