@<TRIPOS>MOLECULE
3R8
117   119    1
SMALL
USER_CHARGES


@<TRIPOS>ATOM
      1 CA         17.5772  -27.0299  -40.1743 C.3       0 UNK        -0.2013 
      2 C          17.5657  -26.0694  -41.3526 C.2       0 UNK         0.4866 
      3 O          17.6348  -24.8564  -41.1580 O.2       0 UNK        -0.5176 
      4 N          17.4719  -26.6040  -42.5765 N.am      1 UNK        -0.4884 
      5 CA         17.2819  -25.8353  -43.8171 C.3       1 UNK         0.0853 
      6 C6         16.4319  -26.6007  -44.8688 C.3       10 UNK        -0.0849 
      7 S7         14.9502  -27.4004  -44.1370 S.3       10 UNK        -0.2776 
      8 C8         15.1766  -29.1932  -44.4303 C.3       10 UNK         0.0316 
      9 C9         16.6225  -29.6610  -44.3181 C.ar      10 UNK        -0.0863 
     10 C10        17.2453  -29.8013  -43.0736 C.ar      10 UNK        -0.1009 
     11 C11        18.5907  -30.1814  -42.9944 C.ar      10 UNK        -0.0712 
     12 C12        19.3047  -30.4409  -44.1697 C.ar      10 UNK        -0.0894 
     13 C13        18.6795  -30.3358  -45.4153 C.ar      10 UNK        -0.0745 
     14 C14        17.3407  -29.9487  -45.4812 C.ar      10 UNK        -0.0972 
     15 C15        19.4300  -30.6428  -46.7007 C.3       10 UNK         0.0209 
     16 S16        20.1414  -29.1354  -47.4285 S.3       10 UNK        -0.2568 
     17 C17        21.8137  -29.1704  -46.7126 C.3       10 UNK        -0.0983 
     18 CA         22.4004  -27.7545  -46.4944 C.3       3 UNK         0.0876 
     19 N          21.6848  -27.0184  -45.4444 N.am      3 UNK        -0.4424 
     20 C          21.6648  -25.6851  -45.3253 C.2       2 UNK         0.4918 
     21 O          22.1264  -24.9228  -46.1776 O.2       2 UNK        -0.4875 
     22 CA         21.0963  -25.1264  -44.0084 C.3       2 UNK         0.0481 
     23 CB         21.1963  -23.5894  -43.9102 C.3       2 UNK        -0.1831 
     24 N          19.7332  -25.5825  -43.7236 N.am      2 UNK        -0.4498 
     25 C          18.6130  -25.3248  -44.4175 C.2       1 UNK         0.5027 
     26 O          18.5913  -24.6972  -45.4772 O.2       1 UNK        -0.4969 
     27 C          23.8961  -27.8148  -46.1181 C.2       3 UNK         0.5005 
     28 O          24.3912  -28.8732  -45.7246 O.2       3 UNK        -0.5279 
     29 N          24.5637  -26.6510  -46.1451 N.am      4 UNK        -0.4463 
     30 CA         25.8967  -26.3399  -45.6030 C.3       4 UNK         0.0283 
     31 CB         27.0035  -27.2212  -46.2150 C.3       4 UNK        -0.1875 
     32 C          25.9394  -26.3609  -44.0623 C.2       4 UNK         0.4949 
     33 O          26.4603  -25.4202  -43.4632 O.2       4 UNK        -0.5039 
     34 N          25.3560  -27.3981  -43.4540 N.am      5 UNK        -0.4663 
     35 CA         25.0640  -27.5079  -42.0291 C.3       5 UNK         0.0242 
     36 CB         25.6656  -28.8176  -41.4937 C.3       5 UNK        -0.1982 
     37 C          23.5412  -27.5098  -41.8385 C.2       5 UNK         0.5017 
     38 O          22.8116  -28.0047  -42.7016 O.2       5 UNK        -0.5012 
     39 N          23.0933  -26.9871  -40.6931 N.am      6 UNK        -0.4439 
     40 CA         21.6922  -26.9658  -40.2628 C.3       6 UNK         0.0297 
     41 CB         21.2962  -25.5165  -39.9199 C.3       6 UNK        -0.2006 
     42 C          21.4753  -27.9318  -39.0819 C.2       6 UNK         0.4892 
     43 O          20.6622  -27.6528  -38.2002 O.2       6 UNK        -0.5089 
     44 N          22.2166  -29.0446  -39.0760 N.am      7 UNK        -0.4243 
     45 CA         22.2037  -30.0872  -38.0563 C.3       7 UNK         0.0196 
     46 CB         23.0252  -29.6368  -36.8325 C.3       7 UNK        -0.2007 
     47 C          22.7810  -31.3693  -38.6673 C.2       7 UNK         0.5020 
     48 O          23.3882  -31.3140  -39.7396 O.2       7 UNK        -0.5147 
     49 N          22.5783  -32.4953  -37.9678 N.am      8 UNK        -0.4734 
     50 CA         23.0351  -33.8560  -38.3050 C.3       8 UNK         0.0238 
     51 CB         24.5772  -33.9270  -38.3495 C.3       8 UNK        -0.1912 
     52 C          22.3886  -34.4614  -39.5701 C.2       8 UNK         0.5038 
     53 O          22.8571  -35.4925  -40.0554 O.2       8 UNK        -0.5046 
     54 N          21.3175  -33.8321  -40.0657 N.am      9 UNK        -0.4200 
     55 CA         20.5226  -34.2616  -41.2245 C.3       9 UNK         0.0839 
     56 C          19.4696  -35.3672  -40.9204 C.2       9 UNK         0.5513 
     57 N          19.2580  -35.7634  -39.6706 N.am      9 UNK        -0.7519 
     58 O          18.8453  -35.8893  -41.8405 O.2       9 UNK        -0.4960 
     59 C59        19.9071  -33.0432  -41.9620 C.3       10 UNK        -0.0876 
     60 S60        18.9412  -31.9297  -40.8782 S.3       10 UNK        -0.2414 
     61 C61        19.2738  -30.3119  -41.6403 C.3       10 UNK         0.0169 
     62 H62        17.1166  -26.5655  -39.3026 H         1 UNK         0.0903 
     63 H63        17.0226  -27.9411  -40.3953 H         1 UNK         0.0903 
     64 H64        18.5978  -27.2998  -39.9130 H         1 UNK         0.0903 
     65 H65        17.4169  -27.6072  -42.6901 H         1 UNK         0.3096 
     66 H66        16.7172  -24.9353  -43.5618 H         1 UNK         0.1121 
     67 H67        17.0418  -27.3233  -45.4075 H         1 UNK         0.0849 
     68 H68        16.0827  -25.9040  -45.6330 H         1 UNK         0.0849 
     69 H69        14.5612  -29.7465  -43.7194 H         1 UNK         0.0865 
     70 H70        14.7772  -29.4331  -45.4170 H         1 UNK         0.0865 
     71 H71        16.6839  -29.6108  -42.1691 H         1 UNK         0.1346 
     72 H72        20.3435  -30.7348  -44.1145 H         1 UNK         0.1412 
     73 H73        16.8630  -29.8516  -46.4469 H         1 UNK         0.1426 
     74 H74        20.2081  -31.3879  -46.5271 H         1 UNK         0.0716 
     75 H75        18.7469  -31.0889  -47.4252 H         1 UNK         0.0716 
     76 H76        21.8020  -29.7226  -45.7713 H         1 UNK         0.0695 
     77 H77        22.4404  -29.7458  -47.3971 H         1 UNK         0.0695 
     78 H78        22.3230  -27.2091  -47.4379 H         1 UNK         0.0983 
     79 H79        21.3531  -27.5736  -44.6679 H         1 UNK         0.3095 
     80 H80        21.7208  -25.5333  -43.2135 H         1 UNK         0.0454 
     81 H81        20.6283  -23.0923  -44.6972 H         1 UNK         0.0851 
     82 H82        20.8269  -23.2281  -42.9506 H         1 UNK         0.0851 
     83 H83        22.2320  -23.2602  -44.0023 H         1 UNK         0.0851 
     84 H84        19.6165  -26.1188  -42.8762 H         1 UNK         0.2976 
     85 H85        24.0223  -25.8385  -46.4234 H         1 UNK         0.3116 
     86 H86        26.0988  -25.3116  -45.9074 H         1 UNK         0.0646 
     87 H87        26.9162  -28.2648  -45.9123 H         1 UNK         0.0847 
     88 H88        26.9838  -27.1844  -47.3040 H         1 UNK         0.0847 
     89 H89        27.9886  -26.8780  -45.8966 H         1 UNK         0.0847 
     90 H90        24.9166  -28.0977  -44.0484 H         1 UNK         0.3040 
     91 H91        25.4933  -26.6648  -41.4831 H         1 UNK         0.1015 
     92 H92        25.2412  -29.6908  -41.9920 H         1 UNK         0.0786 
     93 H93        25.4774  -28.9304  -40.4250 H         1 UNK         0.0786 
     94 H94        26.7459  -28.8437  -41.6369 H         1 UNK         0.0786 
     95 H95        23.7650  -26.6353  -40.0239 H         1 UNK         0.3172 
     96 H96        21.0389  -27.3083  -41.0678 H         1 UNK         0.0595 
     97 H97        20.2441  -25.4461  -39.6422 H         1 UNK         0.0839 
     98 H98        21.4465  -24.8513  -40.7701 H         1 UNK         0.0839 
     99 H99        21.8784  -25.1274  -39.0840 H         1 UNK         0.0839 
    100 H100       22.8224  -29.2499  -39.8617 H         1 UNK         0.2998 
    101 H101       21.1706  -30.2819  -37.7596 H         1 UNK         0.0822 
    102 H102       23.0330  -30.4024  -36.0559 H         1 UNK         0.0787 
    103 H103       24.0628  -29.4321  -37.1000 H         1 UNK         0.0787 
    104 H104       22.6116  -28.7327  -36.3853 H         1 UNK         0.0787 
    105 H105       22.0592  -32.4227  -37.1023 H         1 UNK         0.3055 
    106 H106       22.7073  -34.4935  -37.4821 H         1 UNK         0.1106 
    107 H107       25.0205  -33.5157  -37.4427 H         1 UNK         0.0828 
    108 H108       24.9203  -34.9588  -38.4349 H         1 UNK         0.0828 
    109 H109       24.9852  -33.3809  -39.2005 H         1 UNK         0.0828 
    110 H110       20.9915  -32.9983  -39.6008 H         1 UNK         0.2931 
    111 H111       21.2134  -34.7256  -41.9313 H         1 UNK         0.0412 
    112 H112       18.5780  -36.4853  -39.4896 H         1 UNK         0.3472 
    113 H113       19.7632  -35.3428  -38.9079 H         1 UNK         0.3472 
    114 H114       20.7195  -32.4717  -42.4124 H         1 UNK         0.0970 
    115 H115       19.2774  -33.3603  -42.7957 H         1 UNK         0.0970 
    116 H116       20.3509  -30.1592  -41.7306 H         1 UNK         0.0612 
    117 H117       18.9145  -29.5322  -40.9694 H         1 UNK         0.0612 
@<TRIPOS>BOND
     1    1    2 1    
     2    1   62 1    
     3    1   63 1    
     4    1   64 1    
     5    2    3 2    
     6    2    4 am   BACKBONE|DICT|INTERRES
     7    4    5 1    
     8    4   65 1    
     9    5    6 1    
    10    5   25 1    
    11    5   66 1    
    12    6    7 1    
    13    6   67 1    
    14    6   68 1    
    15    7    8 1    
    16    8    9 1    
    17    8   69 1    
    18    8   70 1    
    19    9   10 ar   
    20    9   14 ar   
    21   10   11 ar   
    22   10   71 1    
    23   11   12 ar   
    24   11   61 1    
    25   12   13 ar   
    26   12   72 1    
    27   13   14 ar   
    28   13   15 1    
    29   14   73 1    
    30   15   16 1    
    31   15   74 1    
    32   15   75 1    
    33   16   17 1    
    34   17   18 1    
    35   17   76 1    
    36   17   77 1    
    37   18   19 1    
    38   18   27 1    
    39   18   78 1    
    40   19   20 am   BACKBONE|DICT|INTERRES
    41   19   79 1    
    42   20   21 2    
    43   20   22 1    
    44   22   23 1    
    45   22   24 1    
    46   22   80 1    
    47   23   81 1    
    48   23   82 1    
    49   23   83 1    
    50   24   25 am   BACKBONE|DICT|INTERRES
    51   24   84 1    
    52   25   26 2    
    53   27   28 2    
    54   27   29 am   BACKBONE|DICT|INTERRES
    55   29   30 1    
    56   29   85 1    
    57   30   31 1    
    58   30   32 1    
    59   30   86 1    
    60   31   87 1    
    61   31   88 1    
    62   31   89 1    
    63   32   33 2    
    64   32   34 am   BACKBONE|DICT|INTERRES
    65   34   35 1    
    66   34   90 1    
    67   35   36 1    
    68   35   37 1    
    69   35   91 1    
    70   36   92 1    
    71   36   93 1    
    72   36   94 1    
    73   37   38 2    
    74   37   39 am   BACKBONE|DICT|INTERRES
    75   39   40 1    
    76   39   95 1    
    77   40   41 1    
    78   40   42 1    
    79   40   96 1    
    80   41   97 1    
    81   41   98 1    
    82   41   99 1    
    83   42   43 2    
    84   42   44 am   BACKBONE|DICT|INTERRES
    85   44   45 1    
    86   44  100 1    
    87   45   46 1    
    88   45   47 1    
    89   45  101 1    
    90   46  102 1    
    91   46  103 1    
    92   46  104 1    
    93   47   48 2    
    94   47   49 am   BACKBONE|DICT|INTERRES
    95   49   50 1    
    96   49  105 1    
    97   50   51 1    
    98   50   52 1    
    99   50  106 1    
   100   51  107 1    
   101   51  108 1    
   102   51  109 1    
   103   52   53 2    
   104   52   54 am   BACKBONE|DICT|INTERRES
   105   54   55 1    
   106   54  110 1    
   107   55   56 1    
   108   55   59 1    
   109   55  111 1    
   110   56   57 am   BACKBONE|DICT|INTERRES
   111   56   58 2    
   112   57  112 1    
   113   57  113 1    
   114   59   60 1    
   115   59  114 1    
   116   59  115 1    
   117   60   61 1    
   118   61  116 1    
   119   61  117 1    
@<TRIPOS>SUBSTRUCTURE
     1 UNK         1 GROUP             0       ****    0 ROOT    
