@<TRIPOS>MOLECULE
3R8
117   119    1
SMALL
USER_CHARGES


@<TRIPOS>ATOM
      1 CA         17.4097  -23.5239  -39.9318 C.3       0 UNK        -0.2013 
      2 C          17.4967  -23.7057  -41.4398 C.2       0 UNK         0.4866 
      3 O          17.6976  -22.7296  -42.1637 O.2       0 UNK        -0.5176 
      4 N          17.3391  -24.9467  -41.9184 N.am      1 UNK        -0.4884 
      5 CA         17.4876  -25.3223  -43.3292 C.3       1 UNK         0.0853 
      6 C6         16.8312  -26.6967  -43.6078 C.3       10 UNK        -0.0849 
      7 S7         16.3010  -26.8697  -45.3439 S.3       10 UNK        -0.2776 
      8 C8         15.7489  -28.6041  -45.3727 C.3       10 UNK         0.0316 
      9 C9         16.9155  -29.5685  -45.2195 C.ar      10 UNK        -0.0863 
     10 C10        17.1248  -30.2419  -44.0112 C.ar      10 UNK        -0.1009 
     11 C11        18.2008  -31.1230  -43.8679 C.ar      10 UNK        -0.0712 
     12 C12        19.0571  -31.3394  -44.9502 C.ar      10 UNK        -0.0894 
     13 C13        18.8663  -30.6626  -46.1591 C.ar      10 UNK        -0.0745 
     14 C14        17.7894  -29.7825  -46.2895 C.ar      10 UNK        -0.0972 
     15 C15        19.8221  -30.8824  -47.3243 C.3       10 UNK         0.0209 
     16 S16        21.0477  -29.5396  -47.4793 S.3       10 UNK        -0.2568 
     17 C17        21.9797  -29.7019  -45.9136 C.3       10 UNK        -0.0983 
     18 CA         22.1619  -28.3982  -45.0794 C.3       3 UNK         0.0876 
     19 N          21.2545  -27.2992  -45.4319 N.am      3 UNK        -0.4424 
     20 C          21.5851  -26.0075  -45.2986 C.2       2 UNK         0.4918 
     21 O          22.6690  -25.6186  -44.8625 O.2       2 UNK        -0.4875 
     22 CA         20.5232  -24.9697  -45.6986 C.3       2 UNK         0.0481 
     23 CB         20.3627  -24.9185  -47.2270 C.3       2 UNK        -0.1831 
     24 N          19.2105  -25.1598  -45.0719 N.am      2 UNK        -0.4498 
     25 C          18.9725  -25.2934  -43.7590 C.2       1 UNK         0.5027 
     26 O          19.8591  -25.4099  -42.9089 O.2       1 UNK        -0.4969 
     27 C          22.1195  -28.6882  -43.5647 C.2       3 UNK         0.5005 
     28 O          23.1277  -29.1200  -43.0068 O.2       3 UNK        -0.5279 
     29 N          20.9769  -28.4340  -42.9063 N.am      4 UNK        -0.4463 
     30 CA         20.8044  -28.5887  -41.4553 C.3       4 UNK         0.0283 
     31 CB         19.3348  -28.3654  -41.0679 C.3       4 UNK        -0.1875 
     32 C          21.7256  -27.6541  -40.6523 C.2       4 UNK         0.4949 
     33 O          22.2723  -28.0683  -39.6312 O.2       4 UNK        -0.5039 
     34 N          21.9498  -26.4395  -41.1731 N.am      5 UNK        -0.4663 
     35 CA         22.9357  -25.4744  -40.6767 C.3       5 UNK         0.0242 
     36 CB         22.7352  -24.1380  -41.4086 C.3       5 UNK        -0.1982 
     37 C          24.3981  -25.9508  -40.8050 C.2       5 UNK         0.5017 
     38 O          25.2555  -25.4417  -40.0832 O.2       5 UNK        -0.5012 
     39 N          24.6534  -26.9278  -41.6875 N.am      6 UNK        -0.4439 
     40 CA         25.9325  -27.6237  -41.8517 C.3       6 UNK         0.0297 
     41 CB         26.2254  -27.7887  -43.3545 C.3       6 UNK        -0.2006 
     42 C          25.9510  -28.9804  -41.1135 C.2       6 UNK         0.4892 
     43 O          26.8475  -29.7861  -41.3667 O.2       6 UNK        -0.5089 
     44 N          24.9827  -29.2022  -40.2099 N.am      7 UNK        -0.4243 
     45 CA         24.8092  -30.3675  -39.3369 C.3       7 UNK         0.0196 
     46 CB         26.0274  -30.5652  -38.4076 C.3       7 UNK        -0.2007 
     47 C          24.3860  -31.6568  -40.0669 C.2       7 UNK         0.5020 
     48 O          24.6801  -32.7507  -39.5796 O.2       7 UNK        -0.5147 
     49 N          23.6665  -31.5310  -41.1918 N.am      8 UNK        -0.4734 
     50 CA         22.9771  -32.6556  -41.8363 C.3       8 UNK         0.0238 
     51 CB         22.5797  -32.2609  -43.2661 C.3       8 UNK        -0.1912 
     52 C          21.7295  -33.0907  -41.0418 C.2       8 UNK         0.5038 
     53 O          21.2529  -32.3481  -40.1795 O.2       8 UNK        -0.5046 
     54 N          21.2078  -34.2763  -41.3820 N.am      9 UNK        -0.4200 
     55 CA         20.0233  -34.9169  -40.7770 C.3       9 UNK         0.0839 
     56 C          20.2370  -35.4327  -39.3202 C.2       9 UNK         0.5513 
     57 N          21.4610  -35.5005  -38.8099 N.am      9 UNK        -0.7519 
     58 O          19.2809  -35.8128  -38.6487 O.2       9 UNK        -0.4960 
     59 C59        18.7108  -34.0875  -40.9201 C.3       10 UNK        -0.0876 
     60 S60        18.3196  -33.6169  -42.6416 S.3       10 UNK        -0.2414 
     61 C61        18.4685  -31.8065  -42.5347 C.3       10 UNK         0.0169 
     62 H62        17.2101  -24.4638  -39.4176 H         1 UNK         0.0903 
     63 H63        18.3474  -23.1214  -39.5494 H         1 UNK         0.0903 
     64 H64        16.6116  -22.8250  -39.6830 H         1 UNK         0.0903 
     65 H65        17.1934  -25.7081  -41.2718 H         1 UNK         0.3096 
     66 H66        16.9620  -24.5613  -43.9115 H         1 UNK         0.1121 
     67 H67        15.9370  -26.8193  -42.9940 H         1 UNK         0.0849 
     68 H68        17.4978  -27.5155  -43.3346 H         1 UNK         0.0849 
     69 H69        15.0040  -28.7634  -44.5914 H         1 UNK         0.0865 
     70 H70        15.2421  -28.7986  -46.3191 H         1 UNK         0.0865 
     71 H71        16.4573  -30.0693  -43.1780 H         1 UNK         0.1346 
     72 H72        19.8808  -32.0309  -44.8422 H         1 UNK         0.1412 
     73 H73        17.6364  -29.2555  -47.2218 H         1 UNK         0.1426 
     74 H74        20.3439  -31.8351  -47.2195 H         1 UNK         0.0716 
     75 H75        19.2536  -30.9490  -48.2531 H         1 UNK         0.0716 
     76 H76        22.9635  -30.1023  -46.1641 H         1 UNK         0.0695 
     77 H77        21.5202  -30.4881  -45.3218 H         1 UNK         0.0695 
     78 H78        23.1787  -28.0540  -45.2849 H         1 UNK         0.0983 
     79 H79        20.3637  -27.5536  -45.8341 H         1 UNK         0.3095 
     80 H80        20.8879  -23.9944  -45.3699 H         1 UNK         0.0454 
     81 H81        19.9328  -25.8396  -47.6227 H         1 UNK         0.0851 
     82 H82        19.7213  -24.0915  -47.5317 H         1 UNK         0.0851 
     83 H83        21.3268  -24.7731  -47.7166 H         1 UNK         0.0851 
     84 H84        18.4136  -25.1265  -45.6927 H         1 UNK         0.2976 
     85 H85        20.2005  -28.0509  -43.4240 H         1 UNK         0.3116 
     86 H86        21.0700  -29.6171  -41.2004 H         1 UNK         0.0646 
     87 H87        18.6678  -29.0187  -41.6281 H         1 UNK         0.0847 
     88 H88        19.1800  -28.5780  -40.0093 H         1 UNK         0.0847 
     89 H89        19.0227  -27.3358  -41.2384 H         1 UNK         0.0847 
     90 H90        21.3945  -26.1507  -41.9752 H         1 UNK         0.3040 
     91 H91        22.7406  -25.3174  -39.6136 H         1 UNK         0.1015 
     92 H92        22.9039  -24.2383  -42.4815 H         1 UNK         0.0786 
     93 H93        23.4261  -23.3797  -41.0377 H         1 UNK         0.0786 
     94 H94        21.7245  -23.7548  -41.2648 H         1 UNK         0.0786 
     95 H95        23.8781  -27.3230  -42.2072 H         1 UNK         0.3172 
     96 H96        26.7355  -27.0211  -41.4231 H         1 UNK         0.0595 
     97 H97        25.5187  -28.4646  -43.8358 H         1 UNK         0.0839 
     98 H98        27.2234  -28.1984  -43.5149 H         1 UNK         0.0839 
     99 H99        26.1828  -26.8320  -43.8754 H         1 UNK         0.0839 
    100 H100       24.2614  -28.4968  -40.1085 H         1 UNK         0.2998 
    101 H101       23.9619  -30.1180  -38.6964 H         1 UNK         0.0822 
    102 H102       25.8173  -31.3124  -37.6413 H         1 UNK         0.0787 
    103 H103       26.9062  -30.9048  -38.9562 H         1 UNK         0.0787 
    104 H104       26.2881  -29.6409  -37.8919 H         1 UNK         0.0787 
    105 H105       23.4759  -30.6052  -41.5609 H         1 UNK         0.3055 
    106 H106       23.6692  -33.4994  -41.8865 H         1 UNK         0.1106 
    107 H107       23.4205  -31.8368  -43.8157 H         1 UNK         0.0828 
    108 H108       22.2254  -33.1236  -43.8313 H         1 UNK         0.0828 
    109 H109       21.7731  -31.5294  -43.2567 H         1 UNK         0.0828 
    110 H110       21.6625  -34.8172  -42.1032 H         1 UNK         0.2931 
    111 H111       19.8790  -35.8266  -41.3610 H         1 UNK         0.0412 
    112 H112       21.5855  -35.8473  -37.8716 H         1 UNK         0.3472 
    113 H113       22.2580  -35.1930  -39.3439 H         1 UNK         0.3472 
    114 H114       17.8610  -34.6659  -40.5533 H         1 UNK         0.0970 
    115 H115       18.7508  -33.1985  -40.2888 H         1 UNK         0.0970 
    116 H116       17.7801  -31.4414  -41.7711 H         1 UNK         0.0612 
    117 H117       19.4712  -31.5417  -42.1992 H         1 UNK         0.0612 
@<TRIPOS>BOND
     1    1    2 1    
     2    1   62 1    
     3    1   63 1    
     4    1   64 1    
     5    2    3 2    
     6    2    4 am   BACKBONE|DICT|INTERRES
     7    4    5 1    
     8    4   65 1    
     9    5    6 1    
    10    5   25 1    
    11    5   66 1    
    12    6    7 1    
    13    6   67 1    
    14    6   68 1    
    15    7    8 1    
    16    8    9 1    
    17    8   69 1    
    18    8   70 1    
    19    9   10 ar   
    20    9   14 ar   
    21   10   11 ar   
    22   10   71 1    
    23   11   12 ar   
    24   11   61 1    
    25   12   13 ar   
    26   12   72 1    
    27   13   14 ar   
    28   13   15 1    
    29   14   73 1    
    30   15   16 1    
    31   15   74 1    
    32   15   75 1    
    33   16   17 1    
    34   17   18 1    
    35   17   76 1    
    36   17   77 1    
    37   18   19 1    
    38   18   27 1    
    39   18   78 1    
    40   19   20 am   BACKBONE|DICT|INTERRES
    41   19   79 1    
    42   20   21 2    
    43   20   22 1    
    44   22   23 1    
    45   22   24 1    
    46   22   80 1    
    47   23   81 1    
    48   23   82 1    
    49   23   83 1    
    50   24   25 am   BACKBONE|DICT|INTERRES
    51   24   84 1    
    52   25   26 2    
    53   27   28 2    
    54   27   29 am   BACKBONE|DICT|INTERRES
    55   29   30 1    
    56   29   85 1    
    57   30   31 1    
    58   30   32 1    
    59   30   86 1    
    60   31   87 1    
    61   31   88 1    
    62   31   89 1    
    63   32   33 2    
    64   32   34 am   BACKBONE|DICT|INTERRES
    65   34   35 1    
    66   34   90 1    
    67   35   36 1    
    68   35   37 1    
    69   35   91 1    
    70   36   92 1    
    71   36   93 1    
    72   36   94 1    
    73   37   38 2    
    74   37   39 am   BACKBONE|DICT|INTERRES
    75   39   40 1    
    76   39   95 1    
    77   40   41 1    
    78   40   42 1    
    79   40   96 1    
    80   41   97 1    
    81   41   98 1    
    82   41   99 1    
    83   42   43 2    
    84   42   44 am   BACKBONE|DICT|INTERRES
    85   44   45 1    
    86   44  100 1    
    87   45   46 1    
    88   45   47 1    
    89   45  101 1    
    90   46  102 1    
    91   46  103 1    
    92   46  104 1    
    93   47   48 2    
    94   47   49 am   BACKBONE|DICT|INTERRES
    95   49   50 1    
    96   49  105 1    
    97   50   51 1    
    98   50   52 1    
    99   50  106 1    
   100   51  107 1    
   101   51  108 1    
   102   51  109 1    
   103   52   53 2    
   104   52   54 am   BACKBONE|DICT|INTERRES
   105   54   55 1    
   106   54  110 1    
   107   55   56 1    
   108   55   59 1    
   109   55  111 1    
   110   56   57 am   BACKBONE|DICT|INTERRES
   111   56   58 2    
   112   57  112 1    
   113   57  113 1    
   114   59   60 1    
   115   59  114 1    
   116   59  115 1    
   117   60   61 1    
   118   61  116 1    
   119   61  117 1    
@<TRIPOS>SUBSTRUCTURE
     1 UNK         1 GROUP             0       ****    0 ROOT    
