@<TRIPOS>MOLECULE
3R8
117   119    1
SMALL
USER_CHARGES


@<TRIPOS>ATOM
      1 CA         15.6661  -23.7881  -49.0654 C.3       0 UNK        -0.2013 
      2 C          17.0331  -23.6276  -48.4171 C.2       0 UNK         0.4866 
      3 O          17.8831  -22.9112  -48.9471 O.2       0 UNK        -0.5176 
      4 N          17.2499  -24.2832  -47.2739 N.am      1 UNK        -0.4884 
      5 CA         18.4866  -24.2516  -46.4945 C.3       1 UNK         0.0853 
      6 C6         19.6101  -25.1355  -47.1084 C.3       10 UNK        -0.0849 
      7 S7         19.1665  -26.8992  -47.3094 S.3       10 UNK        -0.2776 
      8 C8         20.0798  -27.6280  -45.9137 C.3       10 UNK         0.0316 
      9 C9         19.4918  -28.9553  -45.4580 C.ar      10 UNK        -0.0863 
     10 C10        20.3034  -30.0904  -45.3760 C.ar      10 UNK        -0.1009 
     11 C11        19.7975  -31.2922  -44.8702 C.ar      10 UNK        -0.0712 
     12 C12        18.4583  -31.3613  -44.4775 C.ar      10 UNK        -0.0894 
     13 C13        17.6319  -30.2380  -44.5675 C.ar      10 UNK        -0.0745 
     14 C14        18.1539  -29.0366  -45.0561 C.ar      10 UNK        -0.0972 
     15 C15        16.1818  -30.3286  -44.1175 C.3       10 UNK         0.0209 
     16 S16        16.0454  -30.2947  -42.3016 S.3       10 UNK        -0.2568 
     17 C17        16.2308  -28.5159  -41.9383 C.3       10 UNK        -0.0983 
     18 CA         17.6993  -28.0798  -41.6855 C.3       3 UNK         0.0876 
     19 N          17.8618  -26.6484  -41.9662 N.am      3 UNK        -0.4424 
     20 C          18.9905  -26.0560  -42.3695 C.2       2 UNK         0.4918 
     21 O          20.0633  -26.6473  -42.4948 O.2       2 UNK        -0.4875 
     22 CA         18.9140  -24.5507  -42.6704 C.3       2 UNK         0.0481 
     23 CB         20.0026  -23.7848  -41.8995 C.3       2 UNK        -0.1831 
     24 N          19.0526  -24.2827  -44.1041 N.am      2 UNK        -0.4498 
     25 C          18.1468  -24.6147  -45.0355 C.2       1 UNK         0.5027 
     26 O          17.0753  -25.1740  -44.7792 O.2       1 UNK        -0.4969 
     27 C          18.2573  -28.4736  -40.2963 C.2       3 UNK         0.5005 
     28 O          17.5751  -29.1346  -39.5111 O.2       3 UNK        -0.5279 
     29 N          19.4946  -28.0507  -40.0166 N.am      4 UNK        -0.4463 
     30 CA         20.2688  -28.3404  -38.8164 C.3       4 UNK         0.0283 
     31 CB         19.6692  -27.6452  -37.5774 C.3       4 UNK        -0.1875 
     32 C          21.7000  -27.8563  -39.0602 C.2       4 UNK         0.4949 
     33 O          21.8874  -26.6864  -39.3970 O.2       4 UNK        -0.5039 
     34 N          22.6746  -28.7567  -38.8802 N.am      5 UNK        -0.4663 
     35 CA         24.1257  -28.5177  -38.9154 C.3       5 UNK         0.0242 
     36 CB         24.5494  -27.5639  -37.7774 C.3       5 UNK        -0.1982 
     37 C          24.6920  -28.0829  -40.2839 C.2       5 UNK         0.5017 
     38 O          25.8262  -27.6053  -40.3414 O.2       5 UNK        -0.5012 
     39 N          23.9286  -28.2925  -41.3674 N.am      6 UNK        -0.4439 
     40 CA         24.3705  -28.0944  -42.7554 C.3       6 UNK         0.0297 
     41 CB         23.1501  -28.1420  -43.6891 C.3       6 UNK        -0.2006 
     42 C          25.4326  -29.1207  -43.2003 C.2       6 UNK         0.4892 
     43 O          26.2228  -28.8325  -44.0994 O.2       6 UNK        -0.5089 
     44 N          25.4310  -30.2823  -42.5405 N.am      7 UNK        -0.4243 
     45 CA         26.3822  -31.3813  -42.6392 C.3       7 UNK         0.0196 
     46 CB         26.2341  -32.1255  -43.9866 C.3       7 UNK        -0.2007 
     47 C          26.1155  -32.2422  -41.3958 C.2       7 UNK         0.5020 
     48 O          26.0777  -31.6983  -40.2908 O.2       7 UNK        -0.5147 
     49 N          25.8376  -33.5385  -41.5846 N.am      8 UNK        -0.4734 
     50 CA         25.2952  -34.4294  -40.5479 C.3       8 UNK         0.0238 
     51 CB         25.5099  -35.8882  -40.9858 C.3       8 UNK        -0.1912 
     52 C          23.8034  -34.1679  -40.2369 C.2       8 UNK         0.5038 
     53 O          23.2781  -34.7485  -39.2865 O.2       8 UNK        -0.5046 
     54 N          23.1590  -33.3290  -41.0598 N.am      9 UNK        -0.4200 
     55 CA         21.7561  -32.8953  -41.0220 C.3       9 UNK         0.0839 
     56 C          21.3014  -32.3837  -39.6278 C.2       9 UNK         0.5513 
     57 N          20.1568  -32.8376  -39.1385 N.am      9 UNK        -0.7519 
     58 O          21.9522  -31.5352  -39.0206 O.2       9 UNK        -0.4960 
     59 C59        21.4903  -31.8001  -42.0923 C.3       10 UNK        -0.0876 
     60 S60        22.1834  -32.1921  -43.7399 S.3       10 UNK        -0.2414 
     61 C61        20.6943  -32.5167  -44.7382 C.3       10 UNK         0.0169 
     62 H62        15.7724  -24.2092  -50.0647 H         1 UNK         0.0903 
     63 H63        15.0163  -24.4457  -48.4882 H         1 UNK         0.0903 
     64 H64        15.1759  -22.8190  -49.1538 H         1 UNK         0.0903 
     65 H65        16.5183  -24.8334  -46.8388 H         1 UNK         0.3096 
     66 H66        18.8376  -23.2170  -46.4780 H         1 UNK         0.1121 
     67 H67        19.8672  -24.7515  -48.0967 H         1 UNK         0.0849 
     68 H68        20.5292  -25.0476  -46.5264 H         1 UNK         0.0849 
     69 H69        21.1267  -27.7394  -46.2001 H         1 UNK         0.0865 
     70 H70        20.0677  -26.9443  -45.0670 H         1 UNK         0.0865 
     71 H71        21.3413  -30.0355  -45.6749 H         1 UNK         0.1346 
     72 H72        18.0574  -32.2865  -44.0861 H         1 UNK         0.1412 
     73 H73        17.5265  -28.1562  -45.1055 H         1 UNK         0.1426 
     74 H74        15.7509  -31.2619  -44.4829 H         1 UNK         0.0716 
     75 H75        15.5835  -29.5281  -44.5554 H         1 UNK         0.0716 
     76 H76        15.5955  -28.2608  -41.0881 H         1 UNK         0.0695 
     77 H77        15.8159  -27.9642  -42.7837 H         1 UNK         0.0695 
     78 H78        18.3280  -28.6160  -42.3973 H         1 UNK         0.0983 
     79 H79        17.0293  -26.0841  -41.8753 H         1 UNK         0.3095 
     80 H80        17.9432  -24.1717  -42.3438 H         1 UNK         0.0454 
     81 H81        21.0056  -24.0860  -42.2054 H         1 UNK         0.0851 
     82 H82        19.9240  -23.9700  -40.8272 H         1 UNK         0.0851 
     83 H83        19.9143  -22.7087  -42.0488 H         1 UNK         0.0851 
     84 H84        19.9150  -23.8440  -44.3934 H         1 UNK         0.2976 
     85 H85        19.9796  -27.4991  -40.7216 H         1 UNK         0.3116 
     86 H86        20.2686  -29.4200  -38.6553 H         1 UNK         0.0646 
     87 H87        19.5855  -26.5675  -37.7225 H         1 UNK         0.0847 
     88 H88        20.2954  -27.8086  -36.6994 H         1 UNK         0.0847 
     89 H89        18.6778  -28.0286  -37.3378 H         1 UNK         0.0847 
     90 H90        22.4039  -29.7211  -38.6909 H         1 UNK         0.3040 
     91 H91        24.5857  -29.4870  -38.7130 H         1 UNK         0.1015 
     92 H92        24.1713  -27.9039  -36.8132 H         1 UNK         0.0786 
     93 H93        24.1854  -26.5494  -37.9425 H         1 UNK         0.0786 
     94 H94        25.6356  -27.5085  -37.6939 H         1 UNK         0.0786 
     95 H95        22.9903  -28.6340  -41.2237 H         1 UNK         0.3172 
     96 H96        24.8199  -27.1020  -42.8310 H         1 UNK         0.0595 
     97 H97        22.6223  -29.0934  -43.6211 H         1 UNK         0.0839 
     98 H98        23.4486  -28.0091  -44.7298 H         1 UNK         0.0839 
     99 H99        22.4420  -27.3475  -43.4549 H         1 UNK         0.0839 
    100 H100       24.7810  -30.3727  -41.7722 H         1 UNK         0.2998 
    101 H101       27.3947  -30.9818  -42.5553 H         1 UNK         0.0822 
    102 H102       26.4414  -31.4632  -44.8270 H         1 UNK         0.0787 
    103 H103       26.9400  -32.9534  -44.0623 H         1 UNK         0.0787 
    104 H104       25.2286  -32.5230  -44.1282 H         1 UNK         0.0787 
    105 H105       25.8924  -33.9117  -42.5222 H         1 UNK         0.3055 
    106 H106       25.8486  -34.2636  -39.6205 H         1 UNK         0.1106 
    107 H107       25.1578  -36.5822  -40.2212 H         1 UNK         0.0828 
    108 H108       24.9713  -36.1180  -41.9060 H         1 UNK         0.0828 
    109 H109       26.5660  -36.1023  -41.1509 H         1 UNK         0.0828 
    110 H110       23.6900  -32.9474  -41.8267 H         1 UNK         0.2931 
    111 H111       21.1604  -33.7724  -41.2817 H         1 UNK         0.0412 
    112 H112       19.6115  -33.5243  -39.6361 H         1 UNK         0.3472 
    113 H113       19.8392  -32.5010  -38.2432 H         1 UNK         0.3472 
    114 H114       20.4182  -31.6141  -42.1774 H         1 UNK         0.0970 
    115 H115       21.9291  -30.8501  -41.7826 H         1 UNK         0.0970 
    116 H116       21.0026  -32.8361  -45.7343 H         1 UNK         0.0612 
    117 H117       20.1532  -33.3553  -44.2970 H         1 UNK         0.0612 
@<TRIPOS>BOND
     1    1    2 1    
     2    1   62 1    
     3    1   63 1    
     4    1   64 1    
     5    2    3 2    
     6    2    4 am   BACKBONE|DICT|INTERRES
     7    4    5 1    
     8    4   65 1    
     9    5    6 1    
    10    5   25 1    
    11    5   66 1    
    12    6    7 1    
    13    6   67 1    
    14    6   68 1    
    15    7    8 1    
    16    8    9 1    
    17    8   69 1    
    18    8   70 1    
    19    9   10 ar   
    20    9   14 ar   
    21   10   11 ar   
    22   10   71 1    
    23   11   12 ar   
    24   11   61 1    
    25   12   13 ar   
    26   12   72 1    
    27   13   14 ar   
    28   13   15 1    
    29   14   73 1    
    30   15   16 1    
    31   15   74 1    
    32   15   75 1    
    33   16   17 1    
    34   17   18 1    
    35   17   76 1    
    36   17   77 1    
    37   18   19 1    
    38   18   27 1    
    39   18   78 1    
    40   19   20 am   BACKBONE|DICT|INTERRES
    41   19   79 1    
    42   20   21 2    
    43   20   22 1    
    44   22   23 1    
    45   22   24 1    
    46   22   80 1    
    47   23   81 1    
    48   23   82 1    
    49   23   83 1    
    50   24   25 am   BACKBONE|DICT|INTERRES
    51   24   84 1    
    52   25   26 2    
    53   27   28 2    
    54   27   29 am   BACKBONE|DICT|INTERRES
    55   29   30 1    
    56   29   85 1    
    57   30   31 1    
    58   30   32 1    
    59   30   86 1    
    60   31   87 1    
    61   31   88 1    
    62   31   89 1    
    63   32   33 2    
    64   32   34 am   BACKBONE|DICT|INTERRES
    65   34   35 1    
    66   34   90 1    
    67   35   36 1    
    68   35   37 1    
    69   35   91 1    
    70   36   92 1    
    71   36   93 1    
    72   36   94 1    
    73   37   38 2    
    74   37   39 am   BACKBONE|DICT|INTERRES
    75   39   40 1    
    76   39   95 1    
    77   40   41 1    
    78   40   42 1    
    79   40   96 1    
    80   41   97 1    
    81   41   98 1    
    82   41   99 1    
    83   42   43 2    
    84   42   44 am   BACKBONE|DICT|INTERRES
    85   44   45 1    
    86   44  100 1    
    87   45   46 1    
    88   45   47 1    
    89   45  101 1    
    90   46  102 1    
    91   46  103 1    
    92   46  104 1    
    93   47   48 2    
    94   47   49 am   BACKBONE|DICT|INTERRES
    95   49   50 1    
    96   49  105 1    
    97   50   51 1    
    98   50   52 1    
    99   50  106 1    
   100   51  107 1    
   101   51  108 1    
   102   51  109 1    
   103   52   53 2    
   104   52   54 am   BACKBONE|DICT|INTERRES
   105   54   55 1    
   106   54  110 1    
   107   55   56 1    
   108   55   59 1    
   109   55  111 1    
   110   56   57 am   BACKBONE|DICT|INTERRES
   111   56   58 2    
   112   57  112 1    
   113   57  113 1    
   114   59   60 1    
   115   59  114 1    
   116   59  115 1    
   117   60   61 1    
   118   61  116 1    
   119   61  117 1    
@<TRIPOS>SUBSTRUCTURE
     1 UNK         1 GROUP             0       ****    0 ROOT    
