@<TRIPOS>MOLECULE
3R8
117   119    1
SMALL
USER_CHARGES


@<TRIPOS>ATOM
      1 CA         16.8494  -22.6834  -47.1287 C.3       0 UNK        -0.2013 
      2 C          18.1105  -23.3207  -46.5651 C.2       0 UNK         0.4866 
      3 O          19.1397  -22.6532  -46.4618 O.2       0 UNK        -0.5176 
      4 N          18.0394  -24.6087  -46.2035 N.am      1 UNK        -0.4884 
      5 CA         19.1549  -25.3894  -45.6521 C.3       1 UNK         0.0853 
      6 C6         18.8121  -26.8963  -45.5598 C.3       10 UNK        -0.0849 
      7 S7         18.4605  -27.6862  -47.1604 S.3       10 UNK        -0.2776 
      8 C8         17.3677  -29.0531  -46.6339 C.3       10 UNK         0.0316 
      9 C9         17.9367  -29.8532  -45.4644 C.ar      10 UNK        -0.0863 
     10 C10        19.1419  -30.5494  -45.6067 C.ar      10 UNK        -0.1009 
     11 C11        19.6698  -31.2773  -44.5371 C.ar      10 UNK        -0.0712 
     12 C12        18.9737  -31.3221  -43.3276 C.ar      10 UNK        -0.0894 
     13 C13        17.7672  -30.6361  -43.1671 C.ar      10 UNK        -0.0745 
     14 C14        17.2560  -29.8980  -44.2404 C.ar      10 UNK        -0.0972 
     15 C15        16.9991  -30.7342  -41.8516 C.3       10 UNK         0.0209 
     16 S16        18.0234  -30.3572  -40.3861 S.3       10 UNK        -0.2568 
     17 C17        18.1044  -28.5375  -40.4361 C.3       10 UNK        -0.0983 
     18 CA         19.3266  -28.0111  -41.2297 C.3       3 UNK         0.0876 
     19 N          19.1176  -26.6648  -41.7693 N.am      3 UNK        -0.4424 
     20 C          18.8890  -25.5114  -41.1253 C.2       2 UNK         0.4918 
     21 O          18.8453  -25.4162  -39.8983 O.2       2 UNK        -0.4875 
     22 CA         18.6535  -24.2483  -41.9864 C.3       2 UNK         0.0481 
     23 CB         19.6613  -23.1339  -41.6420 C.3       2 UNK        -0.1831 
     24 N          18.5972  -24.4968  -43.4380 N.am      2 UNK        -0.4498 
     25 C          19.5814  -24.9236  -44.2469 C.2       1 UNK         0.5027 
     26 O          20.7492  -25.0729  -43.8902 O.2       1 UNK        -0.4969 
     27 C          20.6615  -28.1564  -40.4712 C.2       3 UNK         0.5005 
     28 O          21.4860  -28.9880  -40.8532 O.2       3 UNK        -0.5279 
     29 N          20.8821  -27.3160  -39.4519 N.am      4 UNK        -0.4463 
     30 CA         22.1113  -27.2575  -38.6573 C.3       4 UNK         0.0283 
     31 CB         21.9051  -26.3243  -37.4542 C.3       4 UNK        -0.1875 
     32 C          23.3301  -26.8187  -39.4842 C.2       4 UNK         0.4949 
     33 O          24.3992  -27.4118  -39.3477 O.2       4 UNK        -0.5039 
     34 N          23.1374  -25.8291  -40.3694 N.am      5 UNK        -0.4663 
     35 CA         24.1625  -25.3469  -41.3046 C.3       5 UNK         0.0242 
     36 CB         23.7142  -24.0100  -41.9144 C.3       5 UNK        -0.1982 
     37 C          24.4951  -26.3630  -42.4133 C.2       5 UNK         0.5017 
     38 O          25.6026  -26.3306  -42.9495 O.2       5 UNK        -0.5012 
     39 N          23.5461  -27.2616  -42.7080 N.am      6 UNK        -0.4439 
     40 CA         23.7035  -28.4004  -43.6145 C.3       6 UNK         0.0297 
     41 CB         22.3558  -28.6692  -44.3042 C.3       6 UNK        -0.2006 
     42 C          24.2337  -29.6612  -42.8984 C.2       6 UNK         0.4892 
     43 O          24.3497  -30.7051  -43.5415 O.2       6 UNK        -0.5089 
     44 N          24.5441  -29.5472  -41.5959 N.am      7 UNK        -0.4243 
     45 CA         25.0801  -30.5779  -40.7009 C.3       7 UNK         0.0196 
     46 CB         26.4973  -31.0036  -41.1417 C.3       7 UNK        -0.2007 
     47 C          24.1319  -31.7738  -40.4922 C.2       7 UNK         0.5020 
     48 O          24.6036  -32.8968  -40.3085 O.2       7 UNK        -0.5147 
     49 N          22.8142  -31.5241  -40.5309 N.am      8 UNK        -0.4734 
     50 CA         21.6888  -32.4503  -40.3158 C.3       8 UNK         0.0238 
     51 CB         21.7056  -33.0135  -38.8816 C.3       8 UNK        -0.1912 
     52 C          21.5257  -33.5845  -41.3502 C.2       8 UNK         0.5038 
     53 O          20.4004  -34.0508  -41.5229 O.2       8 UNK        -0.5046 
     54 N          22.6194  -33.9933  -42.0077 N.am      9 UNK        -0.4200 
     55 CA         22.7399  -34.9774  -43.1004 C.3       9 UNK         0.0839 
     56 C          22.1066  -36.3846  -42.8685 C.2       9 UNK         0.5513 
     57 N          21.8628  -36.8005  -41.6319 N.am      9 UNK        -0.7519 
     58 O          21.8807  -37.1354  -43.8145 O.2       9 UNK        -0.4960 
     59 C59        22.4801  -34.3675  -44.5111 C.3       10 UNK        -0.0876 
     60 S60        20.7743  -33.7973  -44.8266 S.3       10 UNK        -0.2414 
     61 C61        21.0000  -32.0004  -44.6678 C.3       10 UNK         0.0169 
     62 H62        16.0185  -23.3875  -47.1688 H         1 UNK         0.0903 
     63 H63        16.5480  -21.8379  -46.5110 H         1 UNK         0.0903 
     64 H64        17.0330  -22.3188  -48.1390 H         1 UNK         0.0903 
     65 H65        17.1788  -25.1183  -46.3487 H         1 UNK         0.3096 
     66 H66        20.0173  -25.2640  -46.3111 H         1 UNK         0.1121 
     67 H67        17.9509  -27.0439  -44.9046 H         1 UNK         0.0849 
     68 H68        19.6347  -27.4560  -45.1103 H         1 UNK         0.0849 
     69 H69        16.3896  -28.6414  -46.3804 H         1 UNK         0.0865 
     70 H70        17.2051  -29.7227  -47.4796 H         1 UNK         0.0865 
     71 H71        19.6738  -30.5115  -46.5477 H         1 UNK         0.1346 
     72 H72        19.3707  -31.8987  -42.5057 H         1 UNK         0.1412 
     73 H73        16.3196  -29.3688  -44.1268 H         1 UNK         0.1426 
     74 H74        16.1212  -30.0865  -41.8579 H         1 UNK         0.0716 
     75 H75        16.6235  -31.7535  -41.7534 H         1 UNK         0.0716 
     76 H76        18.1038  -28.1558  -39.4135 H         1 UNK         0.0695 
     77 H77        17.1797  -28.1712  -40.8847 H         1 UNK         0.0695 
     78 H78        19.4288  -28.6329  -42.1201 H         1 UNK         0.0983 
     79 H79        19.1829  -26.6014  -42.7727 H         1 UNK         0.3095 
     80 H80        17.6617  -23.8848  -41.7139 H         1 UNK         0.0454 
     81 H81        19.4735  -22.2346  -42.2283 H         1 UNK         0.0851 
     82 H82        20.6901  -23.4416  -41.8218 H         1 UNK         0.0851 
     83 H83        19.5892  -22.8541  -40.5903 H         1 UNK         0.0851 
     84 H84        17.6760  -24.4216  -43.8482 H         1 UNK         0.2976 
     85 H85        20.1601  -26.6273  -39.2542 H         1 UNK         0.3116 
     86 H86        22.3116  -28.2627  -38.2800 H         1 UNK         0.0646 
     87 H87        21.0982  -26.6780  -36.8124 H         1 UNK         0.0847 
     88 H88        22.8060  -26.2737  -36.8409 H         1 UNK         0.0847 
     89 H89        21.6643  -25.3069  -37.7651 H         1 UNK         0.0847 
     90 H90        22.2286  -25.3922  -40.4169 H         1 UNK         0.3040 
     91 H91        25.0802  -25.1723  -40.7380 H         1 UNK         0.1015 
     92 H92        22.8348  -24.1301  -42.5464 H         1 UNK         0.0786 
     93 H93        24.5022  -23.5858  -42.5384 H         1 UNK         0.0786 
     94 H94        23.4819  -23.2749  -41.1437 H         1 UNK         0.0786 
     95 H95        22.6780  -27.2171  -42.1942 H         1 UNK         0.3172 
     96 H96        24.4286  -28.1431  -44.3892 H         1 UNK         0.0595 
     97 H97        21.5971  -29.0110  -43.5997 H         1 UNK         0.0839 
     98 H98        22.4596  -29.4360  -45.0717 H         1 UNK         0.0839 
     99 H99        21.9821  -27.7728  -44.7985 H         1 UNK         0.0839 
    100 H100       24.3851  -28.6505  -41.1531 H         1 UNK         0.2998 
    101 H101       25.1726  -30.1033  -39.7229 H         1 UNK         0.0822 
    102 H102       26.9598  -31.6552  -40.3994 H         1 UNK         0.0787 
    103 H103       26.4811  -31.5482  -42.0863 H         1 UNK         0.0787 
    104 H104       27.1507  -30.1397  -41.2631 H         1 UNK         0.0787 
    105 H105       22.5263  -30.5648  -40.7210 H         1 UNK         0.3055 
    106 H106       20.7938  -31.8327  -40.4104 H         1 UNK         0.1106 
    107 H107       20.8150  -33.6134  -38.6890 H         1 UNK         0.0828 
    108 H108       22.5707  -33.6526  -38.7035 H         1 UNK         0.0828 
    109 H109       21.7207  -32.2127  -38.1424 H         1 UNK         0.0828 
    110 H110       23.4959  -33.5931  -41.6881 H         1 UNK         0.2931 
    111 H111       23.8061  -35.2064  -43.0938 H         1 UNK         0.0412 
    112 H112       21.4686  -37.7166  -41.4860 H         1 UNK         0.3472 
    113 H113       22.0366  -36.1924  -40.8479 H         1 UNK         0.3472 
    114 H114       22.7367  -35.0926  -45.2853 H         1 UNK         0.0970 
    115 H115       23.1677  -33.5354  -44.6720 H         1 UNK         0.0970 
    116 H116       21.5562  -31.6368  -45.5328 H         1 UNK         0.0612 
    117 H117       21.6120  -31.7807  -43.7916 H         1 UNK         0.0612 
@<TRIPOS>BOND
     1    1    2 1    
     2    1   62 1    
     3    1   63 1    
     4    1   64 1    
     5    2    3 2    
     6    2    4 am   BACKBONE|DICT|INTERRES
     7    4    5 1    
     8    4   65 1    
     9    5    6 1    
    10    5   25 1    
    11    5   66 1    
    12    6    7 1    
    13    6   67 1    
    14    6   68 1    
    15    7    8 1    
    16    8    9 1    
    17    8   69 1    
    18    8   70 1    
    19    9   10 ar   
    20    9   14 ar   
    21   10   11 ar   
    22   10   71 1    
    23   11   12 ar   
    24   11   61 1    
    25   12   13 ar   
    26   12   72 1    
    27   13   14 ar   
    28   13   15 1    
    29   14   73 1    
    30   15   16 1    
    31   15   74 1    
    32   15   75 1    
    33   16   17 1    
    34   17   18 1    
    35   17   76 1    
    36   17   77 1    
    37   18   19 1    
    38   18   27 1    
    39   18   78 1    
    40   19   20 am   BACKBONE|DICT|INTERRES
    41   19   79 1    
    42   20   21 2    
    43   20   22 1    
    44   22   23 1    
    45   22   24 1    
    46   22   80 1    
    47   23   81 1    
    48   23   82 1    
    49   23   83 1    
    50   24   25 am   BACKBONE|DICT|INTERRES
    51   24   84 1    
    52   25   26 2    
    53   27   28 2    
    54   27   29 am   BACKBONE|DICT|INTERRES
    55   29   30 1    
    56   29   85 1    
    57   30   31 1    
    58   30   32 1    
    59   30   86 1    
    60   31   87 1    
    61   31   88 1    
    62   31   89 1    
    63   32   33 2    
    64   32   34 am   BACKBONE|DICT|INTERRES
    65   34   35 1    
    66   34   90 1    
    67   35   36 1    
    68   35   37 1    
    69   35   91 1    
    70   36   92 1    
    71   36   93 1    
    72   36   94 1    
    73   37   38 2    
    74   37   39 am   BACKBONE|DICT|INTERRES
    75   39   40 1    
    76   39   95 1    
    77   40   41 1    
    78   40   42 1    
    79   40   96 1    
    80   41   97 1    
    81   41   98 1    
    82   41   99 1    
    83   42   43 2    
    84   42   44 am   BACKBONE|DICT|INTERRES
    85   44   45 1    
    86   44  100 1    
    87   45   46 1    
    88   45   47 1    
    89   45  101 1    
    90   46  102 1    
    91   46  103 1    
    92   46  104 1    
    93   47   48 2    
    94   47   49 am   BACKBONE|DICT|INTERRES
    95   49   50 1    
    96   49  105 1    
    97   50   51 1    
    98   50   52 1    
    99   50  106 1    
   100   51  107 1    
   101   51  108 1    
   102   51  109 1    
   103   52   53 2    
   104   52   54 am   BACKBONE|DICT|INTERRES
   105   54   55 1    
   106   54  110 1    
   107   55   56 1    
   108   55   59 1    
   109   55  111 1    
   110   56   57 am   BACKBONE|DICT|INTERRES
   111   56   58 2    
   112   57  112 1    
   113   57  113 1    
   114   59   60 1    
   115   59  114 1    
   116   59  115 1    
   117   60   61 1    
   118   61  116 1    
   119   61  117 1    
@<TRIPOS>SUBSTRUCTURE
     1 UNK         1 GROUP             0       ****    0 ROOT    
