@<TRIPOS>MOLECULE
3R8
117   119    1
SMALL
USER_CHARGES


@<TRIPOS>ATOM
      1 CA         19.5044  -23.0336  -48.9836 C.3       0 UNK        -0.2013 
      2 C          20.0434  -23.9447  -47.8910 C.2       0 UNK         0.4866 
      3 O          21.0240  -23.5978  -47.2317 O.2       0 UNK        -0.5176 
      4 N          19.4169  -25.1117  -47.6996 N.am      1 UNK        -0.4884 
      5 CA         19.7417  -26.0779  -46.6462 C.3       1 UNK         0.0853 
      6 C6         19.1555  -27.4812  -46.9499 C.3       10 UNK        -0.0849 
      7 S7         17.3667  -27.4795  -47.3291 S.3       10 UNK        -0.2776 
      8 C8         17.0589  -29.2517  -47.5977 C.3       10 UNK         0.0316 
      9 C9         17.1572  -30.0457  -46.3037 C.ar      10 UNK        -0.0863 
     10 C10        18.2454  -30.8913  -46.0728 C.ar      10 UNK        -0.1009 
     11 C11        18.3242  -31.6412  -44.8957 C.ar      10 UNK        -0.0712 
     12 C12        17.3001  -31.5466  -43.9487 C.ar      10 UNK        -0.0894 
     13 C13        16.2187  -30.6834  -44.1573 C.ar      10 UNK        -0.0745 
     14 C14        16.1505  -29.9421  -45.3404 C.ar      10 UNK        -0.0972 
     15 C15        15.1121  -30.5547  -43.1180 C.3       10 UNK         0.0209 
     16 S16        15.7314  -30.0832  -41.4697 S.3       10 UNK        -0.2568 
     17 C17        16.5738  -28.4914  -41.7872 C.3       10 UNK        -0.0983 
     18 CA         18.1213  -28.6212  -41.7097 C.3       3 UNK         0.0876 
     19 N          18.8261  -27.5616  -42.4477 N.am      3 UNK        -0.4424 
     20 C          18.8914  -26.2659  -42.0989 C.2       2 UNK         0.4918 
     21 O          18.2361  -25.7596  -41.1882 O.2       2 UNK        -0.4875 
     22 CA         19.9029  -25.3905  -42.8580 C.3       2 UNK         0.0481 
     23 CB         21.2418  -25.3641  -42.0989 C.3       2 UNK        -0.1831 
     24 N          20.1349  -25.8297  -44.2368 N.am      2 UNK        -0.4498 
     25 C          19.3101  -25.5572  -45.2575 C.2       1 UNK         0.5027 
     26 O          18.2550  -24.9288  -45.1345 O.2       1 UNK        -0.4969 
     27 C          18.6786  -28.7530  -40.2677 C.2       3 UNK         0.5005 
     28 O          17.9229  -28.8239  -39.2963 O.2       3 UNK        -0.5279 
     29 N          20.0128  -28.7359  -40.1579 N.am      4 UNK        -0.4463 
     30 CA         20.7749  -28.7609  -38.9160 C.3       4 UNK         0.0283 
     31 CB         20.8080  -27.3449  -38.3054 C.3       4 UNK        -0.1875 
     32 C          22.1888  -29.2687  -39.2188 C.2       4 UNK         0.4949 
     33 O          22.5355  -29.4778  -40.3870 O.2       4 UNK        -0.5039 
     34 N          22.9996  -29.4167  -38.1624 N.am      5 UNK        -0.4663 
     35 CA         24.4032  -29.8487  -38.2076 C.3       5 UNK         0.0242 
     36 CB         24.9554  -29.9265  -36.7758 C.3       5 UNK        -0.1982 
     37 C          25.3159  -28.9753  -39.0882 C.2       5 UNK         0.5017 
     38 O          26.2995  -29.4891  -39.6188 O.2       5 UNK        -0.5012 
     39 N          24.9416  -27.7030  -39.2882 N.am      6 UNK        -0.4439 
     40 CA         25.5717  -26.7656  -40.2249 C.3       6 UNK         0.0297 
     41 CB         24.9126  -25.3849  -40.0736 C.3       6 UNK        -0.2006 
     42 C          25.5234  -27.2209  -41.6985 C.2       6 UNK         0.4892 
     43 O          26.4069  -26.8434  -42.4682 O.2       6 UNK        -0.5089 
     44 N          24.5159  -28.0304  -42.0548 N.am      7 UNK        -0.4243 
     45 CA         24.3679  -28.6751  -43.3627 C.3       7 UNK         0.0196 
     46 CB         22.9427  -28.4061  -43.8792 C.3       7 UNK        -0.2007 
     47 C          24.6565  -30.1881  -43.2926 C.2       7 UNK         0.5020 
     48 O          24.4240  -30.8855  -44.2794 O.2       7 UNK        -0.5147 
     49 N          25.1354  -30.6733  -42.1347 N.am      8 UNK        -0.4734 
     50 CA         25.3476  -32.0807  -41.7655 C.3       8 UNK         0.0238 
     51 CB         26.4245  -32.7367  -42.6563 C.3       8 UNK        -0.1912 
     52 C          24.0441  -32.9058  -41.6958 C.2       8 UNK         0.5038 
     53 O          24.0940  -34.1302  -41.8264 O.2       8 UNK        -0.5046 
     54 N          22.9092  -32.2297  -41.4745 N.am      9 UNK        -0.4200 
     55 CA         21.5652  -32.8252  -41.3931 C.3       9 UNK         0.0839 
     56 C          21.1374  -33.2065  -39.9466 C.2       9 UNK         0.5513 
     57 N          21.9563  -32.9841  -38.9254 N.am      9 UNK        -0.7519 
     58 O          20.0431  -33.7269  -39.7475 O.2       9 UNK        -0.4960 
     59 C59        20.5073  -31.9185  -42.0750 C.3       10 UNK        -0.0876 
     60 S60        20.8706  -31.6390  -43.8413 S.3       10 UNK        -0.2414 
     61 C61        19.5219  -32.5464  -44.6568 C.3       10 UNK         0.0169 
     62 H62        19.1960  -22.0793  -48.5576 H         1 UNK         0.0903 
     63 H63        20.2772  -22.8413  -49.7274 H         1 UNK         0.0903 
     64 H64        18.6455  -23.4711  -49.4925 H         1 UNK         0.0903 
     65 H65        18.5913  -25.3350  -48.2385 H         1 UNK         0.3096 
     66 H66        20.8297  -26.1788  -46.6320 H         1 UNK         0.1121 
     67 H67        19.3470  -28.1642  -46.1200 H         1 UNK         0.0849 
     68 H68        19.6771  -27.9089  -47.8077 H         1 UNK         0.0849 
     69 H69        16.0606  -29.3766  -48.0198 H         1 UNK         0.0865 
     70 H70        17.7545  -29.6337  -48.3467 H         1 UNK         0.0865 
     71 H71        19.0348  -30.9668  -46.8084 H         1 UNK         0.1346 
     72 H72        17.3503  -32.1288  -43.0391 H         1 UNK         0.1412 
     73 H73        15.3139  -29.2791  -45.5160 H         1 UNK         0.1426 
     74 H74        14.3651  -29.8234  -43.4309 H         1 UNK         0.0716 
     75 H75        14.5917  -31.5098  -43.0378 H         1 UNK         0.0716 
     76 H76        16.2051  -27.7438  -41.0827 H         1 UNK         0.0695 
     77 H77        16.2790  -28.1346  -42.7753 H         1 UNK         0.0695 
     78 H78        18.3966  -29.5462  -42.2179 H         1 UNK         0.0983 
     79 H79        19.3780  -27.8674  -43.2348 H         1 UNK         0.3095 
     80 H80        19.5118  -24.3708  -42.8783 H         1 UNK         0.0454 
     81 H81        21.9719  -24.7272  -42.5986 H         1 UNK         0.0851 
     82 H82        21.6761  -26.3588  -41.9960 H         1 UNK         0.0851 
     83 H83        21.1071  -24.9669  -41.0918 H         1 UNK         0.0851 
     84 H84        20.9954  -26.3238  -44.4195 H         1 UNK         0.2976 
     85 H85        20.5900  -28.7264  -40.9886 H         1 UNK         0.3116 
     86 H86        20.3073  -29.4586  -38.2182 H         1 UNK         0.0646 
     87 H87        19.8017  -26.9724  -38.1129 H         1 UNK         0.0847 
     88 H88        21.3369  -27.3295  -37.3520 H         1 UNK         0.0847 
     89 H89        21.3015  -26.6322  -38.9672 H         1 UNK         0.0847 
     90 H90        22.6254  -29.2257  -37.2434 H         1 UNK         0.3040 
     91 H91        24.4212  -30.8533  -38.6341 H         1 UNK         0.1015 
     92 H92        24.9329  -28.9549  -36.2805 H         1 UNK         0.0786 
     93 H93        25.9913  -30.2693  -36.7739 H         1 UNK         0.0786 
     94 H94        24.3847  -30.6282  -36.1671 H         1 UNK         0.0786 
     95 H95        24.1247  -27.3736  -38.7954 H         1 UNK         0.3172 
     96 H96        26.6234  -26.6773  -39.9446 H         1 UNK         0.0595 
     97 H97        23.8490  -25.4150  -40.3130 H         1 UNK         0.0839 
     98 H98        25.3752  -24.6566  -40.7415 H         1 UNK         0.0839 
     99 H99        25.0191  -25.0016  -39.0586 H         1 UNK         0.0839 
    100 H100       23.8438  -28.3155  -41.3493 H         1 UNK         0.2998 
    101 H101       25.0749  -28.2536  -44.0801 H         1 UNK         0.0822 
    102 H102       22.7785  -28.8730  -44.8515 H         1 UNK         0.0787 
    103 H103       22.1873  -28.7985  -43.1976 H         1 UNK         0.0787 
    104 H104       22.7723  -27.3378  -44.0032 H         1 UNK         0.0787 
    105 H105       25.3606  -30.0072  -41.4046 H         1 UNK         0.3055 
    106 H106       25.7388  -32.0664  -40.7470 H         1 UNK         0.1106 
    107 H107       27.3338  -32.1366  -42.6869 H         1 UNK         0.0828 
    108 H108       26.7011  -33.7206  -42.2757 H         1 UNK         0.0828 
    109 H109       26.0769  -32.8737  -43.6806 H         1 UNK         0.0828 
    110 H110       22.9522  -31.2254  -41.3448 H         1 UNK         0.2931 
    111 H111       21.5725  -33.7672  -41.9446 H         1 UNK         0.0412 
    112 H112       21.6677  -33.2468  -37.9961 H         1 UNK         0.3472 
    113 H113       22.8653  -32.5831  -39.0794 H         1 UNK         0.3472 
    114 H114       20.4742  -30.9509  -41.5804 H         1 UNK         0.0970 
    115 H115       19.5075  -32.3426  -41.9731 H         1 UNK         0.0970 
    116 H116       19.2398  -33.4215  -44.0696 H         1 UNK         0.0612 
    117 H117       19.8889  -32.9291  -45.6103 H         1 UNK         0.0612 
@<TRIPOS>BOND
     1    1    2 1    
     2    1   62 1    
     3    1   63 1    
     4    1   64 1    
     5    2    3 2    
     6    2    4 am   BACKBONE|DICT|INTERRES
     7    4    5 1    
     8    4   65 1    
     9    5    6 1    
    10    5   25 1    
    11    5   66 1    
    12    6    7 1    
    13    6   67 1    
    14    6   68 1    
    15    7    8 1    
    16    8    9 1    
    17    8   69 1    
    18    8   70 1    
    19    9   10 ar   
    20    9   14 ar   
    21   10   11 ar   
    22   10   71 1    
    23   11   12 ar   
    24   11   61 1    
    25   12   13 ar   
    26   12   72 1    
    27   13   14 ar   
    28   13   15 1    
    29   14   73 1    
    30   15   16 1    
    31   15   74 1    
    32   15   75 1    
    33   16   17 1    
    34   17   18 1    
    35   17   76 1    
    36   17   77 1    
    37   18   19 1    
    38   18   27 1    
    39   18   78 1    
    40   19   20 am   BACKBONE|DICT|INTERRES
    41   19   79 1    
    42   20   21 2    
    43   20   22 1    
    44   22   23 1    
    45   22   24 1    
    46   22   80 1    
    47   23   81 1    
    48   23   82 1    
    49   23   83 1    
    50   24   25 am   BACKBONE|DICT|INTERRES
    51   24   84 1    
    52   25   26 2    
    53   27   28 2    
    54   27   29 am   BACKBONE|DICT|INTERRES
    55   29   30 1    
    56   29   85 1    
    57   30   31 1    
    58   30   32 1    
    59   30   86 1    
    60   31   87 1    
    61   31   88 1    
    62   31   89 1    
    63   32   33 2    
    64   32   34 am   BACKBONE|DICT|INTERRES
    65   34   35 1    
    66   34   90 1    
    67   35   36 1    
    68   35   37 1    
    69   35   91 1    
    70   36   92 1    
    71   36   93 1    
    72   36   94 1    
    73   37   38 2    
    74   37   39 am   BACKBONE|DICT|INTERRES
    75   39   40 1    
    76   39   95 1    
    77   40   41 1    
    78   40   42 1    
    79   40   96 1    
    80   41   97 1    
    81   41   98 1    
    82   41   99 1    
    83   42   43 2    
    84   42   44 am   BACKBONE|DICT|INTERRES
    85   44   45 1    
    86   44  100 1    
    87   45   46 1    
    88   45   47 1    
    89   45  101 1    
    90   46  102 1    
    91   46  103 1    
    92   46  104 1    
    93   47   48 2    
    94   47   49 am   BACKBONE|DICT|INTERRES
    95   49   50 1    
    96   49  105 1    
    97   50   51 1    
    98   50   52 1    
    99   50  106 1    
   100   51  107 1    
   101   51  108 1    
   102   51  109 1    
   103   52   53 2    
   104   52   54 am   BACKBONE|DICT|INTERRES
   105   54   55 1    
   106   54  110 1    
   107   55   56 1    
   108   55   59 1    
   109   55  111 1    
   110   56   57 am   BACKBONE|DICT|INTERRES
   111   56   58 2    
   112   57  112 1    
   113   57  113 1    
   114   59   60 1    
   115   59  114 1    
   116   59  115 1    
   117   60   61 1    
   118   61  116 1    
   119   61  117 1    
@<TRIPOS>SUBSTRUCTURE
     1 UNK         1 GROUP             0       ****    0 ROOT    
