@<TRIPOS>MOLECULE
3R8
117   119    1
SMALL
USER_CHARGES


@<TRIPOS>ATOM
      1 CA         18.0429  -25.5296  -49.7431 C.3       0 UNK        -0.2013 
      2 C          19.1476  -25.4645  -48.6989 C.2       0 UNK         0.4866 
      3 O          20.1017  -24.7030  -48.8626 O.2       0 UNK        -0.5176 
      4 N          19.0316  -26.2638  -47.6318 N.am      1 UNK        -0.4884 
      5 CA         19.9754  -26.2988  -46.5101 C.3       1 UNK         0.0853 
      6 C6         19.7447  -27.5251  -45.5879 C.3       10 UNK        -0.0849 
      7 S7         19.8139  -29.1408  -46.4264 S.3       10 UNK        -0.2776 
      8 C8         18.1693  -29.8270  -46.0279 C.3       10 UNK         0.0316 
      9 C9         17.9112  -29.9158  -44.5260 C.ar      10 UNK        -0.0863 
     10 C10        18.6785  -30.7695  -43.7287 C.ar      10 UNK        -0.1009 
     11 C11        18.4326  -30.8755  -42.3568 C.ar      10 UNK        -0.0712 
     12 C12        17.4011  -30.1276  -41.7828 C.ar      10 UNK        -0.0894 
     13 C13        16.6327  -29.2580  -42.5647 C.ar      10 UNK        -0.0745 
     14 C14        16.8930  -29.1579  -43.9357 C.ar      10 UNK        -0.0972 
     15 C15        15.4983  -28.4547  -41.9376 C.3       10 UNK         0.0209 
     16 S16        16.0404  -27.4516  -40.5147 S.3       10 UNK        -0.2568 
     17 C17        16.9674  -26.0950  -41.3141 C.3       10 UNK        -0.0983 
     18 CA         18.4755  -26.3812  -41.5253 C.3       3 UNK         0.0876 
     19 N          19.1281  -25.2809  -42.2466 N.am      3 UNK        -0.4424 
     20 C          20.4199  -25.2410  -42.6010 C.2       2 UNK         0.4918 
     21 O          21.2476  -26.1044  -42.3036 O.2       2 UNK        -0.4875 
     22 CA         20.8369  -24.1231  -43.5708 C.3       2 UNK         0.0481 
     23 CB         22.1967  -23.5119  -43.1905 C.3       2 UNK        -0.1831 
     24 N          20.9315  -24.7460  -44.8900 N.am      2 UNK        -0.4498 
     25 C          19.8554  -25.0382  -45.6318 C.2       1 UNK         0.5027 
     26 O          18.7707  -24.4591  -45.5222 O.2       1 UNK        -0.4969 
     27 C          19.2171  -26.7312  -40.2171 C.2       3 UNK         0.5005 
     28 O          19.4525  -25.8444  -39.3920 O.2       3 UNK        -0.5279 
     29 N          19.6243  -28.0044  -40.1011 N.am      4 UNK        -0.4463 
     30 CA         20.4747  -28.6150  -39.0695 C.3       4 UNK         0.0283 
     31 CB         19.8549  -28.4898  -37.6649 C.3       4 UNK        -0.1875 
     32 C          21.9344  -28.1230  -39.0848 C.2       4 UNK         0.4949 
     33 O          22.8420  -28.9502  -39.0074 O.2       4 UNK        -0.5039 
     34 N          22.1409  -26.8060  -39.2140 N.am      5 UNK        -0.4663 
     35 CA         23.4386  -26.1217  -39.2330 C.3       5 UNK         0.0242 
     36 CB         23.2026  -24.6064  -39.3272 C.3       5 UNK        -0.1982 
     37 C          24.3918  -26.5881  -40.3479 C.2       5 UNK         0.5017 
     38 O          25.6043  -26.6000  -40.1334 O.2       5 UNK        -0.5012 
     39 N          23.8342  -26.9868  -41.5001 N.am      6 UNK        -0.4439 
     40 CA         24.5630  -27.5730  -42.6290 C.3       6 UNK         0.0297 
     41 CB         23.6327  -27.6330  -43.8528 C.3       6 UNK        -0.2006 
     42 C          25.1506  -28.9694  -42.3440 C.2       6 UNK         0.4892 
     43 O          26.0473  -29.3901  -43.0755 O.2       6 UNK        -0.5089 
     44 N          24.6298  -29.6650  -41.3180 N.am      7 UNK        -0.4243 
     45 CA         25.0014  -31.0175  -40.8770 C.3       7 UNK         0.0196 
     46 CB         26.4352  -31.0304  -40.3054 C.3       7 UNK        -0.2007 
     47 C          24.7745  -32.1081  -41.9457 C.2       7 UNK         0.5020 
     48 O          25.4664  -33.1271  -41.9415 O.2       7 UNK        -0.5147 
     49 N          23.8047  -31.8809  -42.8432 N.am      8 UNK        -0.4734 
     50 CA         23.4493  -32.7924  -43.9359 C.3       8 UNK         0.0238 
     51 CB         22.6583  -32.0124  -44.9995 C.3       8 UNK        -0.1912 
     52 C          22.6600  -34.0283  -43.4674 C.2       8 UNK         0.5038 
     53 O          22.7013  -35.0595  -44.1396 O.2       8 UNK        -0.5046 
     54 N          21.9558  -33.8985  -42.3374 N.am      9 UNK        -0.4200 
     55 CA         21.1995  -34.9720  -41.6827 C.3       9 UNK         0.0839 
     56 C          22.1444  -35.9028  -40.8803 C.2       9 UNK         0.5513 
     57 N          21.9596  -37.2119  -40.9770 N.am      9 UNK        -0.7519 
     58 O          23.0105  -35.4452  -40.1377 O.2       9 UNK        -0.4960 
     59 C59        20.0827  -34.4001  -40.7717 C.3       10 UNK        -0.0876 
     60 S60        18.7924  -33.5352  -41.7286 S.3       10 UNK        -0.2414 
     61 C61        19.2832  -31.8000  -41.5015 C.3       10 UNK         0.0169 
     62 H62        17.2733  -26.2547  -49.4786 H         1 UNK         0.0903 
     63 H63        17.5682  -24.5544  -49.8477 H         1 UNK         0.0903 
     64 H64        18.4570  -25.8129  -50.7104 H         1 UNK         0.0903 
     65 H65        18.2244  -26.8630  -47.5418 H         1 UNK         0.3096 
     66 H66        20.9874  -26.3470  -46.9192 H         1 UNK         0.1121 
     67 H67        18.7862  -27.4237  -45.0766 H         1 UNK         0.0849 
     68 H68        20.4951  -27.5565  -44.7953 H         1 UNK         0.0849 
     69 H69        17.4045  -29.2231  -46.5185 H         1 UNK         0.0865 
     70 H70        18.0904  -30.8252  -46.4610 H         1 UNK         0.0865 
     71 H71        19.4625  -31.3606  -44.1801 H         1 UNK         0.1346 
     72 H72        17.1942  -30.2193  -40.7248 H         1 UNK         0.1412 
     73 H73        16.2930  -28.4976  -44.5472 H         1 UNK         0.1426 
     74 H74        14.7305  -29.1510  -41.5979 H         1 UNK         0.0716 
     75 H75        15.0184  -27.8065  -42.6725 H         1 UNK         0.0716 
     76 H76        16.8414  -25.2014  -40.6998 H         1 UNK         0.0695 
     77 H77        16.4930  -25.8687  -42.2704 H         1 UNK         0.0695 
     78 H78        18.5520  -27.2428  -42.1910 H         1 UNK         0.0983 
     79 H79        18.5225  -24.5367  -42.5608 H         1 UNK         0.3095 
     80 H80        20.0870  -23.3292  -43.5746 H         1 UNK         0.0454 
     81 H81        22.9856  -24.2625  -43.1256 H         1 UNK         0.0851 
     82 H82        22.1388  -23.0148  -42.2219 H         1 UNK         0.0851 
     83 H83        22.5095  -22.7628  -43.9178 H         1 UNK         0.0851 
     84 H84        21.7760  -25.2748  -45.0526 H         1 UNK         0.2976 
     85 H85        19.3898  -28.6253  -40.8633 H         1 UNK         0.3116 
     86 H86        20.5061  -29.6781  -39.3128 H         1 UNK         0.0646 
     87 H87        19.8149  -27.4552  -37.3234 H         1 UNK         0.0847 
     88 H88        20.4401  -29.0474  -36.9326 H         1 UNK         0.0847 
     89 H89        18.8411  -28.8895  -37.6422 H         1 UNK         0.0847 
     90 H90        21.3109  -26.2219  -39.2826 H         1 UNK         0.3040 
     91 H91        23.9310  -26.3351  -38.2819 H         1 UNK         0.1015 
     92 H92        22.6573  -24.3431  -40.2336 H         1 UNK         0.0786 
     93 H93        24.1473  -24.0609  -39.3416 H         1 UNK         0.0786 
     94 H94        22.6305  -24.2404  -38.4744 H         1 UNK         0.0786 
     95 H95        22.8311  -26.8583  -41.6189 H         1 UNK         0.3172 
     96 H96        25.3988  -26.9123  -42.8680 H         1 UNK         0.0595 
     97 H97        24.1403  -28.0723  -44.7129 H         1 UNK         0.0839 
     98 H98        23.3069  -26.6366  -44.1478 H         1 UNK         0.0839 
     99 H99        22.7437  -28.2336  -43.6562 H         1 UNK         0.0839 
    100 H100       23.9209  -29.2135  -40.7488 H         1 UNK         0.2998 
    101 H101       24.3229  -31.2602  -40.0577 H         1 UNK         0.0822 
    102 H102       26.6629  -31.9892  -39.8381 H         1 UNK         0.0787 
    103 H103       27.1820  -30.8617  -41.0818 H         1 UNK         0.0787 
    104 H104       26.5638  -30.2618  -39.5431 H         1 UNK         0.0787 
    105 H105       23.3024  -31.0070  -42.7907 H         1 UNK         0.3055 
    106 H106       24.3719  -33.1555  -44.3951 H         1 UNK         0.1106 
    107 H107       22.3732  -32.6603  -45.8296 H         1 UNK         0.0828 
    108 H108       21.7433  -31.5837  -44.5916 H         1 UNK         0.0828 
    109 H109       23.2512  -31.1978  -45.4163 H         1 UNK         0.0828 
    110 H110       22.0334  -33.0326  -41.8289 H         1 UNK         0.2931 
    111 H111       20.7183  -35.5677  -42.4620 H         1 UNK         0.0412 
    112 H112       21.2444  -37.5941  -41.5769 H         1 UNK         0.3472 
    113 H113       22.5539  -37.8322  -40.4488 H         1 UNK         0.3472 
    114 H114       20.4962  -33.7368  -40.0095 H         1 UNK         0.0970 
    115 H115       19.5890  -35.2083  -40.2284 H         1 UNK         0.0970 
    116 H116       20.3322  -31.6718  -41.7691 H         1 UNK         0.0612 
    117 H117       19.1955  -31.5388  -40.4458 H         1 UNK         0.0612 
@<TRIPOS>BOND
     1    1    2 1    
     2    1   62 1    
     3    1   63 1    
     4    1   64 1    
     5    2    3 2    
     6    2    4 am   BACKBONE|DICT|INTERRES
     7    4    5 1    
     8    4   65 1    
     9    5    6 1    
    10    5   25 1    
    11    5   66 1    
    12    6    7 1    
    13    6   67 1    
    14    6   68 1    
    15    7    8 1    
    16    8    9 1    
    17    8   69 1    
    18    8   70 1    
    19    9   10 ar   
    20    9   14 ar   
    21   10   11 ar   
    22   10   71 1    
    23   11   12 ar   
    24   11   61 1    
    25   12   13 ar   
    26   12   72 1    
    27   13   14 ar   
    28   13   15 1    
    29   14   73 1    
    30   15   16 1    
    31   15   74 1    
    32   15   75 1    
    33   16   17 1    
    34   17   18 1    
    35   17   76 1    
    36   17   77 1    
    37   18   19 1    
    38   18   27 1    
    39   18   78 1    
    40   19   20 am   BACKBONE|DICT|INTERRES
    41   19   79 1    
    42   20   21 2    
    43   20   22 1    
    44   22   23 1    
    45   22   24 1    
    46   22   80 1    
    47   23   81 1    
    48   23   82 1    
    49   23   83 1    
    50   24   25 am   BACKBONE|DICT|INTERRES
    51   24   84 1    
    52   25   26 2    
    53   27   28 2    
    54   27   29 am   BACKBONE|DICT|INTERRES
    55   29   30 1    
    56   29   85 1    
    57   30   31 1    
    58   30   32 1    
    59   30   86 1    
    60   31   87 1    
    61   31   88 1    
    62   31   89 1    
    63   32   33 2    
    64   32   34 am   BACKBONE|DICT|INTERRES
    65   34   35 1    
    66   34   90 1    
    67   35   36 1    
    68   35   37 1    
    69   35   91 1    
    70   36   92 1    
    71   36   93 1    
    72   36   94 1    
    73   37   38 2    
    74   37   39 am   BACKBONE|DICT|INTERRES
    75   39   40 1    
    76   39   95 1    
    77   40   41 1    
    78   40   42 1    
    79   40   96 1    
    80   41   97 1    
    81   41   98 1    
    82   41   99 1    
    83   42   43 2    
    84   42   44 am   BACKBONE|DICT|INTERRES
    85   44   45 1    
    86   44  100 1    
    87   45   46 1    
    88   45   47 1    
    89   45  101 1    
    90   46  102 1    
    91   46  103 1    
    92   46  104 1    
    93   47   48 2    
    94   47   49 am   BACKBONE|DICT|INTERRES
    95   49   50 1    
    96   49  105 1    
    97   50   51 1    
    98   50   52 1    
    99   50  106 1    
   100   51  107 1    
   101   51  108 1    
   102   51  109 1    
   103   52   53 2    
   104   52   54 am   BACKBONE|DICT|INTERRES
   105   54   55 1    
   106   54  110 1    
   107   55   56 1    
   108   55   59 1    
   109   55  111 1    
   110   56   57 am   BACKBONE|DICT|INTERRES
   111   56   58 2    
   112   57  112 1    
   113   57  113 1    
   114   59   60 1    
   115   59  114 1    
   116   59  115 1    
   117   60   61 1    
   118   61  116 1    
   119   61  117 1    
@<TRIPOS>SUBSTRUCTURE
     1 UNK         1 GROUP             0       ****    0 ROOT    
