@<TRIPOS>MOLECULE
3R8
117   119    1
SMALL
USER_CHARGES


@<TRIPOS>ATOM
      1 CA         18.4064  -27.1535  -41.0111 C.3       0 UNK        -0.2013 
      2 C          18.2572  -27.0757  -42.5211 C.2       0 UNK         0.4866 
      3 O          19.2597  -26.9965  -43.2334 O.2       0 UNK        -0.5176 
      4 N          17.0055  -27.0713  -43.0001 N.am      1 UNK        -0.4884 
      5 CA         16.6022  -26.9601  -44.4102 C.3       1 UNK         0.0853 
      6 C6         16.8949  -28.2463  -45.2375 C.3       10 UNK        -0.0849 
      7 S7         16.1271  -29.7383  -44.5127 S.3       10 UNK        -0.2776 
      8 C8         17.3359  -31.0426  -44.9264 C.3       10 UNK         0.0316 
      9 C9         18.7155  -30.7643  -44.3448 C.ar      10 UNK        -0.0863 
     10 C10        18.9034  -30.7372  -42.9609 C.ar      10 UNK        -0.1009 
     11 C11        20.1567  -30.4325  -42.4105 C.ar      10 UNK        -0.0712 
     12 C12        21.2241  -30.1651  -43.2758 C.ar      10 UNK        -0.0894 
     13 C13        21.0523  -30.2014  -44.6638 C.ar      10 UNK        -0.0745 
     14 C14        19.7970  -30.5094  -45.1914 C.ar      10 UNK        -0.0972 
     15 C15        22.2174  -29.9082  -45.6002 C.3       10 UNK         0.0209 
     16 S16        22.0761  -28.2707  -46.3890 S.3       10 UNK        -0.2568 
     17 C17        22.3367  -27.1724  -44.9592 C.3       10 UNK        -0.0983 
     18 CA         21.9002  -25.7071  -45.2177 C.3       3 UNK         0.0876 
     19 N          20.5083  -25.6008  -45.6584 N.am      3 UNK        -0.4424 
     20 C          20.0108  -24.5772  -46.3669 C.2       2 UNK         0.4918 
     21 O          20.6683  -23.5838  -46.6789 O.2       2 UNK        -0.4875 
     22 CA         18.5504  -24.6788  -46.8507 C.3       2 UNK         0.0481 
     23 CB         18.5087  -24.8892  -48.3736 C.3       2 UNK        -0.1831 
     24 N          17.8137  -25.7678  -46.2063 N.am      2 UNK        -0.4498 
     25 C          17.1719  -25.6629  -45.0348 C.2       1 UNK         0.5027 
     26 O          17.0341  -24.5960  -44.4310 O.2       1 UNK        -0.4969 
     27 C          22.1386  -24.8624  -43.9552 C.2       3 UNK         0.5005 
     28 O          23.0472  -24.0311  -43.9386 O.2       3 UNK        -0.5279 
     29 N          21.3405  -25.1384  -42.9097 N.am      4 UNK        -0.4463 
     30 CA         21.4338  -24.6118  -41.5386 C.3       4 UNK         0.0283 
     31 CB         21.1267  -23.1003  -41.5124 C.3       4 UNK        -0.1875 
     32 C          22.7582  -24.9574  -40.8179 C.2       4 UNK         0.4949 
     33 O          23.1061  -24.3026  -39.8348 O.2       4 UNK        -0.5039 
     34 N          23.4729  -25.9765  -41.3152 N.am      5 UNK        -0.4663 
     35 CA         24.8256  -26.3502  -40.8886 C.3       5 UNK         0.0242 
     36 CB         25.6673  -26.6107  -42.1512 C.3       5 UNK        -0.1982 
     37 C          24.8630  -27.5810  -39.9666 C.2       5 UNK         0.5017 
     38 O          25.9443  -27.9310  -39.4937 O.2       5 UNK        -0.5012 
     39 N          23.7088  -28.2369  -39.7601 N.am      6 UNK        -0.4439 
     40 CA         23.5231  -29.4908  -39.0080 C.3       6 UNK         0.0297 
     41 CB         23.8665  -29.3002  -37.5148 C.3       6 UNK        -0.2006 
     42 C          24.2471  -30.7073  -39.6323 C.2       6 UNK         0.4892 
     43 O          24.5442  -31.6704  -38.9250 O.2       6 UNK        -0.5089 
     44 N          24.5184  -30.6437  -40.9448 N.am      7 UNK        -0.4243 
     45 CA         25.2811  -31.6443  -41.6994 C.3       7 UNK         0.0196 
     46 CB         25.7860  -31.0014  -43.0017 C.3       7 UNK        -0.2007 
     47 C          24.5045  -32.9384  -42.0060 C.2       7 UNK         0.5020 
     48 O          25.1337  -33.9679  -42.2525 O.2       7 UNK        -0.5147 
     49 N          23.1691  -32.8665  -41.9990 N.am      8 UNK        -0.4734 
     50 CA         22.2589  -33.9912  -42.2063 C.3       8 UNK         0.0238 
     51 CB         21.6208  -33.8989  -43.6085 C.3       8 UNK        -0.1912 
     52 C          21.2570  -33.9963  -41.0450 C.2       8 UNK         0.5038 
     53 O          21.6512  -34.3486  -39.9329 O.2       8 UNK        -0.5046 
     54 N          20.0064  -33.5840  -41.3018 N.am      9 UNK        -0.4200 
     55 CA         18.9176  -33.4555  -40.3137 C.3       9 UNK         0.0839 
     56 C          18.4383  -34.8114  -39.7034 C.2       9 UNK         0.5513 
     57 N          18.7176  -35.9507  -40.3260 N.am      9 UNK        -0.7519 
     58 O          17.7696  -34.8370  -38.6732 O.2       9 UNK        -0.4960 
     59 C59        19.2161  -32.3618  -39.2395 C.3       10 UNK        -0.0876 
     60 S60        18.9591  -30.6532  -39.8299 S.3       10 UNK        -0.2414 
     61 C61        20.4057  -30.3446  -40.9019 C.3       10 UNK         0.0169 
     62 H62        18.1773  -26.1894  -40.5583 H         1 UNK         0.0903 
     63 H63        19.4255  -27.4218  -40.7388 H         1 UNK         0.0903 
     64 H64        17.7361  -27.9036  -40.5919 H         1 UNK         0.0903 
     65 H65        16.2376  -27.1158  -42.3453 H         1 UNK         0.3096 
     66 H66        15.5200  -26.8198  -44.4029 H         1 UNK         0.1121 
     67 H67        16.5070  -28.1511  -46.2533 H         1 UNK         0.0849 
     68 H68        17.9714  -28.3941  -45.3258 H         1 UNK         0.0849 
     69 H69        16.9729  -31.9967  -44.5420 H         1 UNK         0.0865 
     70 H70        17.3844  -31.1493  -46.0113 H         1 UNK         0.0865 
     71 H71        18.0499  -30.9265  -42.3270 H         1 UNK         0.1346 
     72 H72        22.1927  -29.9131  -42.8699 H         1 UNK         0.1412 
     73 H73        19.6610  -30.5255  -46.2642 H         1 UNK         0.1426 
     74 H74        23.1682  -29.9706  -45.0705 H         1 UNK         0.0716 
     75 H75        22.2524  -30.6719  -46.3784 H         1 UNK         0.0716 
     76 H76        23.3953  -27.2142  -44.6953 H         1 UNK         0.0695 
     77 H77        21.7904  -27.5837  -44.1103 H         1 UNK         0.0695 
     78 H78        22.5404  -25.3062  -46.0071 H         1 UNK         0.0983 
     79 H79        19.8968  -26.3550  -45.3773 H         1 UNK         0.3095 
     80 H80        18.0628  -23.7270  -46.6297 H         1 UNK         0.0454 
     81 H81        17.4835  -24.9183  -48.7429 H         1 UNK         0.0851 
     82 H82        18.9996  -25.8176  -48.6683 H         1 UNK         0.0851 
     83 H83        19.0144  -24.0750  -48.8947 H         1 UNK         0.0851 
     84 H84        17.8760  -26.6736  -46.6481 H         1 UNK         0.2976 
     85 H85        20.6068  -25.8343  -43.0566 H         1 UNK         0.3116 
     86 H86        20.6487  -25.1133  -40.9721 H         1 UNK         0.0646 
     87 H87        20.1827  -22.8792  -42.0103 H         1 UNK         0.0847 
     88 H88        21.0443  -22.7336  -40.4886 H         1 UNK         0.0847 
     89 H89        21.9088  -22.5196  -42.0023 H         1 UNK         0.0847 
     90 H90        23.1071  -26.4472  -42.1288 H         1 UNK         0.3040 
     91 H91        25.2848  -25.5254  -40.3386 H         1 UNK         0.1015 
     92 H92        25.2830  -27.4503  -42.7318 H         1 UNK         0.0786 
     93 H93        26.7024  -26.8400  -41.8938 H         1 UNK         0.0786 
     94 H94        25.6857  -25.7351  -42.8010 H         1 UNK         0.0786 
     95 H95        22.8772  -27.8354  -40.1689 H         1 UNK         0.3172 
     96 H96        22.4592  -29.7181  -39.0531 H         1 UNK         0.0595 
     97 H97        23.5702  -30.1726  -36.9310 H         1 UNK         0.0839 
     98 H98        23.3461  -28.4402  -37.0936 H         1 UNK         0.0839 
     99 H99        24.9358  -29.1563  -37.3576 H         1 UNK         0.0839 
    100 H100       24.2683  -29.8007  -41.4375 H         1 UNK         0.2998 
    101 H101       26.1513  -31.9259  -41.1020 H         1 UNK         0.0822 
    102 H102       26.3924  -31.7047  -43.5745 H         1 UNK         0.0787 
    103 H103       24.9631  -30.6856  -43.6427 H         1 UNK         0.0787 
    104 H104       26.4098  -30.1302  -42.7994 H         1 UNK         0.0787 
    105 H105       22.7432  -31.9912  -41.7377 H         1 UNK         0.3055 
    106 H106       22.8020  -34.9371  -42.1441 H         1 UNK         0.1106 
    107 H107       22.3835  -33.9578  -44.3851 H         1 UNK         0.0828 
    108 H108       20.9278  -34.7234  -43.7809 H         1 UNK         0.0828 
    109 H109       21.0756  -32.9686  -43.7611 H         1 UNK         0.0828 
    110 H110       19.7722  -33.3126  -42.2455 H         1 UNK         0.2931 
    111 H111       18.0526  -33.1171  -40.8852 H         1 UNK         0.0412 
    112 H112       19.2485  -35.9505  -41.1817 H         1 UNK         0.3472 
    113 H113       18.3931  -36.8204  -39.9326 H         1 UNK         0.3472 
    114 H114       18.5483  -32.4660  -38.3831 H         1 UNK         0.0970 
    115 H115       20.2201  -32.4611  -38.8262 H         1 UNK         0.0970 
    116 H116       20.7679  -29.3409  -40.6822 H         1 UNK         0.0612 
    117 H117       21.2080  -31.0270  -40.6253 H         1 UNK         0.0612 
@<TRIPOS>BOND
     1    1    2 1    
     2    1   62 1    
     3    1   63 1    
     4    1   64 1    
     5    2    3 2    
     6    2    4 am   BACKBONE|DICT|INTERRES
     7    4    5 1    
     8    4   65 1    
     9    5    6 1    
    10    5   25 1    
    11    5   66 1    
    12    6    7 1    
    13    6   67 1    
    14    6   68 1    
    15    7    8 1    
    16    8    9 1    
    17    8   69 1    
    18    8   70 1    
    19    9   10 ar   
    20    9   14 ar   
    21   10   11 ar   
    22   10   71 1    
    23   11   12 ar   
    24   11   61 1    
    25   12   13 ar   
    26   12   72 1    
    27   13   14 ar   
    28   13   15 1    
    29   14   73 1    
    30   15   16 1    
    31   15   74 1    
    32   15   75 1    
    33   16   17 1    
    34   17   18 1    
    35   17   76 1    
    36   17   77 1    
    37   18   19 1    
    38   18   27 1    
    39   18   78 1    
    40   19   20 am   BACKBONE|DICT|INTERRES
    41   19   79 1    
    42   20   21 2    
    43   20   22 1    
    44   22   23 1    
    45   22   24 1    
    46   22   80 1    
    47   23   81 1    
    48   23   82 1    
    49   23   83 1    
    50   24   25 am   BACKBONE|DICT|INTERRES
    51   24   84 1    
    52   25   26 2    
    53   27   28 2    
    54   27   29 am   BACKBONE|DICT|INTERRES
    55   29   30 1    
    56   29   85 1    
    57   30   31 1    
    58   30   32 1    
    59   30   86 1    
    60   31   87 1    
    61   31   88 1    
    62   31   89 1    
    63   32   33 2    
    64   32   34 am   BACKBONE|DICT|INTERRES
    65   34   35 1    
    66   34   90 1    
    67   35   36 1    
    68   35   37 1    
    69   35   91 1    
    70   36   92 1    
    71   36   93 1    
    72   36   94 1    
    73   37   38 2    
    74   37   39 am   BACKBONE|DICT|INTERRES
    75   39   40 1    
    76   39   95 1    
    77   40   41 1    
    78   40   42 1    
    79   40   96 1    
    80   41   97 1    
    81   41   98 1    
    82   41   99 1    
    83   42   43 2    
    84   42   44 am   BACKBONE|DICT|INTERRES
    85   44   45 1    
    86   44  100 1    
    87   45   46 1    
    88   45   47 1    
    89   45  101 1    
    90   46  102 1    
    91   46  103 1    
    92   46  104 1    
    93   47   48 2    
    94   47   49 am   BACKBONE|DICT|INTERRES
    95   49   50 1    
    96   49  105 1    
    97   50   51 1    
    98   50   52 1    
    99   50  106 1    
   100   51  107 1    
   101   51  108 1    
   102   51  109 1    
   103   52   53 2    
   104   52   54 am   BACKBONE|DICT|INTERRES
   105   54   55 1    
   106   54  110 1    
   107   55   56 1    
   108   55   59 1    
   109   55  111 1    
   110   56   57 am   BACKBONE|DICT|INTERRES
   111   56   58 2    
   112   57  112 1    
   113   57  113 1    
   114   59   60 1    
   115   59  114 1    
   116   59  115 1    
   117   60   61 1    
   118   61  116 1    
   119   61  117 1    
@<TRIPOS>SUBSTRUCTURE
     1 UNK         1 GROUP             0       ****    0 ROOT    
