@<TRIPOS>MOLECULE
3R8
117   119    1
SMALL
USER_CHARGES


@<TRIPOS>ATOM
      1 CA         15.4439  -24.2100  -47.0839 C.3       0 UNK        -0.2013 
      2 C          16.8017  -23.9730  -46.4395 C.2       0 UNK         0.4866 
      3 O          17.0345  -22.9028  -45.8760 O.2       0 UNK        -0.5176 
      4 N          17.7028  -24.9586  -46.5260 N.am      1 UNK        -0.4884 
      5 CA         19.0275  -24.9432  -45.8980 C.3       1 UNK         0.0853 
      6 C6         19.9884  -25.9590  -46.5714 C.3       10 UNK        -0.0849 
      7 S7         19.3609  -27.6749  -46.6135 S.3       10 UNK        -0.2776 
      8 C8         20.3526  -28.4508  -45.3013 C.3       10 UNK         0.0316 
      9 C9         19.7232  -29.7612  -44.8629 C.ar      10 UNK        -0.0863 
     10 C10        20.0251  -30.9537  -45.5255 C.ar      10 UNK        -0.1009 
     11 C11        19.4286  -32.1554  -45.1321 C.ar      10 UNK        -0.0712 
     12 C12        18.5413  -32.1586  -44.0496 C.ar      10 UNK        -0.0894 
     13 C13        18.2336  -30.9706  -43.3767 C.ar      10 UNK        -0.0745 
     14 C14        18.8171  -29.7739  -43.8007 C.ar      10 UNK        -0.0972 
     15 C15        17.2380  -30.9749  -42.2237 C.3       10 UNK         0.0209 
     16 S16        18.0362  -30.6648  -40.6135 S.3       10 UNK        -0.2568 
     17 C17        18.0093  -28.8388  -40.4972 C.3       10 UNK        -0.0983 
     18 CA         19.4246  -28.2105  -40.6136 C.3       3 UNK         0.0876 
     19 N          19.3577  -26.8331  -41.1205 N.am      3 UNK        -0.4424 
     20 C          20.3416  -26.1628  -41.7362 C.2       2 UNK         0.4918 
     21 O          21.4712  -26.6163  -41.9443 O.2       2 UNK        -0.4875 
     22 CA         20.0211  -24.7266  -42.1784 C.3       2 UNK         0.0481 
     23 CB         21.0978  -23.7478  -41.6818 C.3       2 UNK        -0.1831 
     24 N          19.9192  -24.6269  -43.6345 N.am      2 UNK        -0.4498 
     25 C          18.9286  -25.1509  -44.3695 C.2       1 UNK         0.5027 
     26 O          17.9807  -25.7783  -43.8877 O.2       1 UNK        -0.4969 
     27 C          20.2612  -28.3070  -39.3128 C.2       3 UNK         0.5005 
     28 O          19.7573  -28.7274  -38.2692 O.2       3 UNK        -0.5279 
     29 N          21.5235  -27.8804  -39.4049 N.am      4 UNK        -0.4463 
     30 CA         22.5565  -27.8884  -38.3758 C.3       4 UNK         0.0283 
     31 CB         22.1753  -27.0171  -37.1597 C.3       4 UNK        -0.1875 
     32 C          23.8658  -27.4002  -39.0020 C.2       4 UNK         0.4949 
     33 O          24.8697  -28.1096  -38.9481 O.2       4 UNK        -0.5039 
     34 N          23.8293  -26.1879  -39.5738 N.am      5 UNK        -0.4663 
     35 CA         25.0086  -25.4930  -40.0930 C.3       5 UNK         0.0242 
     36 CB         24.7761  -23.9744  -40.0314 C.3       5 UNK        -0.1982 
     37 C          25.4001  -25.9218  -41.5146 C.2       5 UNK         0.5017 
     38 O          26.5958  -26.0146  -41.7953 O.2       5 UNK        -0.5012 
     39 N          24.4095  -26.1521  -42.3890 N.am      6 UNK        -0.4439 
     40 CA         24.6414  -26.5419  -43.7836 C.3       6 UNK         0.0297 
     41 CB         23.4629  -26.0826  -44.6567 C.3       6 UNK        -0.2006 
     42 C          24.8656  -28.0553  -43.9092 C.2       6 UNK         0.4892 
     43 O          25.8204  -28.4825  -44.5586 O.2       6 UNK        -0.5089 
     44 N          23.9874  -28.8244  -43.2620 N.am      7 UNK        -0.4243 
     45 CA         23.9844  -30.2782  -43.1443 C.3       7 UNK         0.0196 
     46 CB         23.6558  -30.9392  -44.4975 C.3       7 UNK        -0.2007 
     47 C          22.9347  -30.6286  -42.0840 C.2       7 UNK         0.5020 
     48 O          22.1659  -29.7538  -41.6864 O.2       7 UNK        -0.5147 
     49 N          22.9080  -31.8864  -41.6408 N.am      8 UNK        -0.4734 
     50 CA         21.9423  -32.3882  -40.6643 C.3       8 UNK         0.0238 
     51 CB         22.4400  -32.1079  -39.2325 C.3       8 UNK        -0.1912 
     52 C          21.7095  -33.8744  -40.9464 C.2       8 UNK         0.5038 
     53 O          22.1835  -34.7275  -40.1936 O.2       8 UNK        -0.5046 
     54 N          21.0494  -34.1494  -42.0770 N.am      9 UNK        -0.4200 
     55 CA         20.7686  -35.4979  -42.5899 C.3       9 UNK         0.0839 
     56 C          19.9081  -36.3566  -41.6223 C.2       9 UNK         0.5513 
     57 N          20.1862  -37.6493  -41.5251 N.am      9 UNK        -0.7519 
     58 O          18.9643  -35.8705  -41.0023 O.2       9 UNK        -0.4960 
     59 C59        20.1100  -35.4535  -43.9920 C.3       10 UNK        -0.0876 
     60 S60        21.0334  -34.4356  -45.1966 S.3       10 UNK        -0.2414 
     61 C61        19.7018  -33.4287  -45.9224 C.3       10 UNK         0.0169 
     62 H62        14.6566  -24.1458  -46.3333 H         1 UNK         0.0903 
     63 H63        15.2522  -23.4540  -47.8449 H         1 UNK         0.0903 
     64 H64        15.3825  -25.1901  -47.5565 H         1 UNK         0.0903 
     65 H65        17.4510  -25.8343  -46.9636 H         1 UNK         0.3096 
     66 H66        19.4466  -23.9464  -46.0559 H         1 UNK         0.1121 
     67 H67        20.9735  -25.9322  -46.1054 H         1 UNK         0.0849 
     68 H68        20.1577  -25.6532  -47.6051 H         1 UNK         0.0849 
     69 H69        21.3704  -28.6144  -45.6584 H         1 UNK         0.0865 
     70 H70        20.4296  -27.7806  -44.4442 H         1 UNK         0.0865 
     71 H71        20.7071  -30.9415  -46.3648 H         1 UNK         0.1346 
     72 H72        18.0652  -33.0799  -43.7466 H         1 UNK         0.1412 
     73 H73        18.5613  -28.8452  -43.3111 H         1 UNK         0.1426 
     74 H74        16.7351  -31.9415  -42.1677 H         1 UNK         0.0716 
     75 H75        16.4509  -30.2427  -42.4082 H         1 UNK         0.0716 
     76 H76        17.5172  -28.5477  -39.5674 H         1 UNK         0.0695 
     77 H77        17.3647  -28.4547  -41.2886 H         1 UNK         0.0695 
     78 H78        19.9588  -28.7843  -41.3691 H         1 UNK         0.0983 
     79 H79        18.4738  -26.3628  -40.9897 H         1 UNK         0.3095 
     80 H80        19.0662  -24.4245  -41.7429 H         1 UNK         0.0454 
     81 H81        22.0667  -23.9453  -42.1414 H         1 UNK         0.0851 
     82 H82        21.2248  -23.8186  -40.6008 H         1 UNK         0.0851 
     83 H83        20.8276  -22.7159  -41.9062 H         1 UNK         0.0851 
     84 H84        20.6703  -24.1398  -44.1010 H         1 UNK         0.2976 
     85 H85        21.8314  -27.6020  -40.3339 H         1 UNK         0.3116 
     86 H86        22.7016  -28.9162  -38.0403 H         1 UNK         0.0646 
     87 H87        21.8885  -26.0070  -37.4533 H         1 UNK         0.0847 
     88 H88        23.0114  -26.9307  -36.4644 H         1 UNK         0.0847 
     89 H89        21.3452  -27.4483  -36.6008 H         1 UNK         0.0847 
     90 H90        22.9603  -25.6745  -39.5670 H         1 UNK         0.3040 
     91 H91        25.8573  -25.7212  -39.4432 H         1 UNK         0.1015 
     92 H92        23.9390  -23.6627  -40.6550 H         1 UNK         0.0786 
     93 H93        25.6573  -23.4321  -40.3776 H         1 UNK         0.0786 
     94 H94        24.5766  -23.6448  -39.0115 H         1 UNK         0.0786 
     95 H95        23.4458  -26.1100  -42.0762 H         1 UNK         0.3172 
     96 H96        25.5374  -26.0380  -44.1532 H         1 UNK         0.0595 
     97 H97        23.6244  -26.3524  -45.7012 H         1 UNK         0.0839 
     98 H98        23.3387  -25.0006  -44.6160 H         1 UNK         0.0839 
     99 H99        22.5259  -26.5398  -44.3431 H         1 UNK         0.0839 
    100 H100       23.2379  -28.3915  -42.7316 H         1 UNK         0.2998 
    101 H101       24.9630  -30.6084  -42.7908 H         1 UNK         0.0822 
    102 H102       23.5793  -32.0233  -44.4054 H         1 UNK         0.0787 
    103 H103       22.7084  -30.5788  -44.8939 H         1 UNK         0.0787 
    104 H104       24.4260  -30.7356  -45.2411 H         1 UNK         0.0787 
    105 H105       23.5525  -32.5671  -42.0210 H         1 UNK         0.3055 
    106 H106       20.9825  -31.8816  -40.7972 H         1 UNK         0.1106 
    107 H107       21.7433  -32.5040  -38.4929 H         1 UNK         0.0828 
    108 H108       23.4138  -32.5618  -39.0457 H         1 UNK         0.0828 
    109 H109       22.5293  -31.0377  -39.0515 H         1 UNK         0.0828 
    110 H110       20.7241  -33.3857  -42.6516 H         1 UNK         0.2931 
    111 H111       21.7383  -35.9884  -42.6978 H         1 UNK         0.0412 
    112 H112       20.9520  -38.0583  -42.0385 H         1 UNK         0.3472 
    113 H113       19.6276  -38.2269  -40.9157 H         1 UNK         0.3472 
    114 H114       19.0824  -35.0979  -43.9150 H         1 UNK         0.0970 
    115 H115       20.0398  -36.4626  -44.4026 H         1 UNK         0.0970 
    116 H116       18.7904  -34.0212  -46.0150 H         1 UNK         0.0612 
    117 H117       19.9898  -33.1713  -46.9429 H         1 UNK         0.0612 
@<TRIPOS>BOND
     1    1    2 1    
     2    1   62 1    
     3    1   63 1    
     4    1   64 1    
     5    2    3 2    
     6    2    4 am   BACKBONE|DICT|INTERRES
     7    4    5 1    
     8    4   65 1    
     9    5    6 1    
    10    5   25 1    
    11    5   66 1    
    12    6    7 1    
    13    6   67 1    
    14    6   68 1    
    15    7    8 1    
    16    8    9 1    
    17    8   69 1    
    18    8   70 1    
    19    9   10 ar   
    20    9   14 ar   
    21   10   11 ar   
    22   10   71 1    
    23   11   12 ar   
    24   11   61 1    
    25   12   13 ar   
    26   12   72 1    
    27   13   14 ar   
    28   13   15 1    
    29   14   73 1    
    30   15   16 1    
    31   15   74 1    
    32   15   75 1    
    33   16   17 1    
    34   17   18 1    
    35   17   76 1    
    36   17   77 1    
    37   18   19 1    
    38   18   27 1    
    39   18   78 1    
    40   19   20 am   BACKBONE|DICT|INTERRES
    41   19   79 1    
    42   20   21 2    
    43   20   22 1    
    44   22   23 1    
    45   22   24 1    
    46   22   80 1    
    47   23   81 1    
    48   23   82 1    
    49   23   83 1    
    50   24   25 am   BACKBONE|DICT|INTERRES
    51   24   84 1    
    52   25   26 2    
    53   27   28 2    
    54   27   29 am   BACKBONE|DICT|INTERRES
    55   29   30 1    
    56   29   85 1    
    57   30   31 1    
    58   30   32 1    
    59   30   86 1    
    60   31   87 1    
    61   31   88 1    
    62   31   89 1    
    63   32   33 2    
    64   32   34 am   BACKBONE|DICT|INTERRES
    65   34   35 1    
    66   34   90 1    
    67   35   36 1    
    68   35   37 1    
    69   35   91 1    
    70   36   92 1    
    71   36   93 1    
    72   36   94 1    
    73   37   38 2    
    74   37   39 am   BACKBONE|DICT|INTERRES
    75   39   40 1    
    76   39   95 1    
    77   40   41 1    
    78   40   42 1    
    79   40   96 1    
    80   41   97 1    
    81   41   98 1    
    82   41   99 1    
    83   42   43 2    
    84   42   44 am   BACKBONE|DICT|INTERRES
    85   44   45 1    
    86   44  100 1    
    87   45   46 1    
    88   45   47 1    
    89   45  101 1    
    90   46  102 1    
    91   46  103 1    
    92   46  104 1    
    93   47   48 2    
    94   47   49 am   BACKBONE|DICT|INTERRES
    95   49   50 1    
    96   49  105 1    
    97   50   51 1    
    98   50   52 1    
    99   50  106 1    
   100   51  107 1    
   101   51  108 1    
   102   51  109 1    
   103   52   53 2    
   104   52   54 am   BACKBONE|DICT|INTERRES
   105   54   55 1    
   106   54  110 1    
   107   55   56 1    
   108   55   59 1    
   109   55  111 1    
   110   56   57 am   BACKBONE|DICT|INTERRES
   111   56   58 2    
   112   57  112 1    
   113   57  113 1    
   114   59   60 1    
   115   59  114 1    
   116   59  115 1    
   117   60   61 1    
   118   61  116 1    
   119   61  117 1    
@<TRIPOS>SUBSTRUCTURE
     1 UNK         1 GROUP             0       ****    0 ROOT    
