@<TRIPOS>MOLECULE
3R8
117   119    1
SMALL
USER_CHARGES


@<TRIPOS>ATOM
      1 CA         15.5864  -21.9394  -44.4322 C.3       0 UNK        -0.2013 
      2 C          16.2191  -23.1399  -45.1199 C.2       0 UNK         0.4866 
      3 O          16.4349  -23.1063  -46.3314 O.2       0 UNK        -0.5176 
      4 N          16.5126  -24.2013  -44.3563 N.am      1 UNK        -0.4884 
      5 CA         17.1305  -25.4421  -44.8417 C.3       1 UNK         0.0853 
      6 C6         17.0742  -26.5636  -43.7688 C.3       10 UNK        -0.0849 
      7 S7         15.5344  -27.5352  -43.8806 S.3       10 UNK        -0.2776 
      8 C8         15.8256  -28.8897  -42.6793 C.3       10 UNK         0.0316 
      9 C9         17.1085  -29.6985  -42.8914 C.ar      10 UNK        -0.0863 
     10 C10        17.7482  -30.2651  -41.7830 C.ar      10 UNK        -0.1009 
     11 C11        18.9539  -30.9578  -41.9289 C.ar      10 UNK        -0.0712 
     12 C12        19.5300  -31.0759  -43.1970 C.ar      10 UNK        -0.0894 
     13 C13        18.8917  -30.5396  -44.3163 C.ar      10 UNK        -0.0745 
     14 C14        17.6692  -29.8809  -44.1613 C.ar      10 UNK        -0.0972 
     15 C15        19.5157  -30.6585  -45.6971 C.3       10 UNK         0.0209 
     16 S16        20.0736  -29.0397  -46.3186 S.3       10 UNK        -0.2568 
     17 C17        21.7905  -28.9092  -45.7067 C.3       10 UNK        -0.0983 
     18 CA         22.0463  -27.8130  -44.6384 C.3       3 UNK         0.0876 
     19 N          21.4035  -26.5305  -44.9668 N.am      3 UNK        -0.4424 
     20 C          21.6899  -25.3466  -44.4077 C.2       2 UNK         0.4918 
     21 O          22.5732  -25.2007  -43.5638 O.2       2 UNK        -0.4875 
     22 CA         20.7967  -24.1448  -44.7726 C.3       2 UNK         0.0481 
     23 CB         21.1398  -23.5872  -46.1676 C.3       2 UNK        -0.1831 
     24 N          19.3566  -24.4100  -44.6125 N.am      2 UNK        -0.4498 
     25 C          18.5797  -25.2376  -45.3293 C.2       1 UNK         0.5027 
     26 O          18.9738  -25.8609  -46.3143 O.2       1 UNK        -0.4969 
     27 C          21.7726  -28.2988  -43.1952 C.2       3 UNK         0.5005 
     28 O          22.4817  -29.1841  -42.7091 O.2       3 UNK        -0.5279 
     29 N          20.8101  -27.6654  -42.5083 N.am      4 UNK        -0.4463 
     30 CA         20.5725  -27.7940  -41.0709 C.3       4 UNK         0.0283 
     31 CB         19.2472  -27.1106  -40.7021 C.3       4 UNK        -0.1875 
     32 C          21.7186  -27.2316  -40.2140 C.2       4 UNK         0.4949 
     33 O          21.9817  -27.7792  -39.1448 O.2       4 UNK        -0.5039 
     34 N          22.4024  -26.1813  -40.6969 N.am      5 UNK        -0.4663 
     35 CA         23.5712  -25.5941  -40.0300 C.3       5 UNK         0.0242 
     36 CB         23.8411  -24.1891  -40.5918 C.3       5 UNK        -0.1982 
     37 C          24.8195  -26.4822  -40.1612 C.2       5 UNK         0.5017 
     38 O          25.6434  -26.5109  -39.2471 O.2       5 UNK        -0.5012 
     39 N          24.9135  -27.2150  -41.2799 N.am      6 UNK        -0.4439 
     40 CA         25.9163  -28.2563  -41.5175 C.3       6 UNK         0.0297 
     41 CB         26.0225  -28.5137  -43.0302 C.3       6 UNK        -0.2006 
     42 C          25.6012  -29.5691  -40.7736 C.2       6 UNK         0.4892 
     43 O          26.4984  -30.3998  -40.6290 O.2       6 UNK        -0.5089 
     44 N          24.3406  -29.7335  -40.3400 N.am      7 UNK        -0.4243 
     45 CA         23.7498  -30.9133  -39.6997 C.3       7 UNK         0.0196 
     46 CB         24.3739  -31.1611  -38.3106 C.3       7 UNK        -0.2007 
     47 C          23.7876  -32.1537  -40.6119 C.2       7 UNK         0.5020 
     48 O          24.0149  -33.2670  -40.1348 O.2       7 UNK        -0.5147 
     49 N          23.5546  -31.9432  -41.9170 N.am      8 UNK        -0.4734 
     50 CA         23.6827  -32.9675  -42.9636 C.3       8 UNK         0.0238 
     51 CB         23.5603  -32.2976  -44.3399 C.3       8 UNK        -0.1912 
     52 C          22.6813  -34.1317  -42.8468 C.2       8 UNK         0.5038 
     53 O          22.9392  -35.2055  -43.3915 O.2       8 UNK        -0.5046 
     54 N          21.5689  -33.8959  -42.1428 N.am      9 UNK        -0.4200 
     55 CA         20.5447  -34.8897  -41.8060 C.3       9 UNK         0.0839 
     56 C          20.9291  -35.8413  -40.6337 C.2       9 UNK         0.5513 
     57 N          22.0378  -35.6295  -39.9317 N.am      9 UNK        -0.7519 
     58 O          20.2123  -36.8027  -40.3679 O.2       9 UNK        -0.4960 
     59 C59        19.1547  -34.2227  -41.6218 C.3       10 UNK        -0.0876 
     60 S60        18.9910  -33.1307  -40.1607 S.3       10 UNK        -0.2414 
     61 C61        19.6638  -31.5282  -40.7096 C.3       10 UNK         0.0169 
     62 H62        15.4474  -22.1060  -43.3642 H         1 UNK         0.0903 
     63 H63        16.2167  -21.0596  -44.5588 H         1 UNK         0.0903 
     64 H64        14.6120  -21.7264  -44.8712 H         1 UNK         0.0903 
     65 H65        16.2818  -24.1784  -43.3729 H         1 UNK         0.3096 
     66 H66        16.5697  -25.7663  -45.7220 H         1 UNK         0.1121 
     67 H67        17.9100  -27.2554  -43.8797 H         1 UNK         0.0849 
     68 H68        17.1661  -26.1523  -42.7626 H         1 UNK         0.0849 
     69 H69        15.8253  -28.4542  -41.6787 H         1 UNK         0.0865 
     70 H70        14.9770  -29.5737  -42.7152 H         1 UNK         0.0865 
     71 H71        17.3195  -30.1504  -40.7966 H         1 UNK         0.1346 
     72 H72        20.4780  -31.5791  -43.3142 H         1 UNK         0.1412 
     73 H73        17.1822  -29.4687  -45.0342 H         1 UNK         0.1426 
     74 H74        20.3404  -31.3722  -45.7045 H         1 UNK         0.0716 
     75 H75        18.7680  -31.0545  -46.3858 H         1 UNK         0.0716 
     76 H76        22.1412  -29.8812  -45.3639 H         1 UNK         0.0695 
     77 H77        22.4047  -28.6854  -46.5801 H         1 UNK         0.0695 
     78 H78        23.1215  -27.6209  -44.6542 H         1 UNK         0.0983 
     79 H79        20.6374  -26.5706  -45.6351 H         1 UNK         0.3095 
     80 H80        21.0250  -23.3585  -44.0513 H         1 UNK         0.0454 
     81 H81        20.9871  -24.3219  -46.9582 H         1 UNK         0.0851 
     82 H82        20.5345  -22.7120  -46.4033 H         1 UNK         0.0851 
     83 H83        22.1852  -23.2797  -46.2140 H         1 UNK         0.0851 
     84 H84        18.9212  -23.9423  -43.8292 H         1 UNK         0.2976 
     85 H85        20.2738  -26.9671  -42.9983 H         1 UNK         0.3116 
     86 H86        20.4904  -28.8551  -40.8403 H         1 UNK         0.0646 
     87 H87        19.0441  -27.2068  -39.6345 H         1 UNK         0.0847 
     88 H88        18.4081  -27.5636  -41.2268 H         1 UNK         0.0847 
     89 H89        19.2588  -26.0456  -40.9365 H         1 UNK         0.0847 
     90 H90        22.1592  -25.7979  -41.6034 H         1 UNK         0.3040 
     91 H91        23.3468  -25.4962  -38.9651 H         1 UNK         0.1015 
     92 H92        22.9656  -23.5469  -40.4955 H         1 UNK         0.0786 
     93 H93        24.1228  -24.2184  -41.6447 H         1 UNK         0.0786 
     94 H94        24.6574  -23.7067  -40.0524 H         1 UNK         0.0786 
     95 H95        24.1924  -27.1053  -41.9779 H         1 UNK         0.3172 
     96 H96        26.8845  -27.8969  -41.1624 H         1 UNK         0.0595 
     97 H97        26.8058  -29.2419  -43.2456 H         1 UNK         0.0839 
     98 H98        26.2721  -27.6022  -43.5737 H         1 UNK         0.0839 
     99 H99        25.0936  -28.9093  -43.4419 H         1 UNK         0.0839 
    100 H100       23.6873  -28.9903  -40.5455 H         1 UNK         0.2998 
    101 H101       22.6953  -30.6783  -39.5479 H         1 UNK         0.0822 
    102 H102       24.3222  -30.2669  -37.6892 H         1 UNK         0.0787 
    103 H103       23.8450  -31.9544  -37.7809 H         1 UNK         0.0787 
    104 H104       25.4198  -31.4607  -38.3828 H         1 UNK         0.0787 
    105 H105       23.3411  -30.9969  -42.2215 H         1 UNK         0.3055 
    106 H106       24.6835  -33.3968  -42.8785 H         1 UNK         0.1106 
    107 H107       23.7769  -33.0078  -45.1391 H         1 UNK         0.0828 
    108 H108       22.5525  -31.9216  -44.5074 H         1 UNK         0.0828 
    109 H109       24.2572  -31.4661  -44.4472 H         1 UNK         0.0828 
    110 H110       21.4740  -32.9977  -41.6975 H         1 UNK         0.2931 
    111 H111       20.4484  -35.5436  -42.6750 H         1 UNK         0.0412 
    112 H112       22.2707  -36.2611  -39.1819 H         1 UNK         0.3472 
    113 H113       22.6453  -34.8434  -40.1313 H         1 UNK         0.3472 
    114 H114       18.3928  -34.9989  -41.5298 H         1 UNK         0.0970 
    115 H115       18.8795  -33.6751  -42.5230 H         1 UNK         0.0970 
    116 H116       20.7326  -31.6169  -40.8966 H         1 UNK         0.0612 
    117 H117       19.5702  -30.8266  -39.8795 H         1 UNK         0.0612 
@<TRIPOS>BOND
     1    1    2 1    
     2    1   62 1    
     3    1   63 1    
     4    1   64 1    
     5    2    3 2    
     6    2    4 am   BACKBONE|DICT|INTERRES
     7    4    5 1    
     8    4   65 1    
     9    5    6 1    
    10    5   25 1    
    11    5   66 1    
    12    6    7 1    
    13    6   67 1    
    14    6   68 1    
    15    7    8 1    
    16    8    9 1    
    17    8   69 1    
    18    8   70 1    
    19    9   10 ar   
    20    9   14 ar   
    21   10   11 ar   
    22   10   71 1    
    23   11   12 ar   
    24   11   61 1    
    25   12   13 ar   
    26   12   72 1    
    27   13   14 ar   
    28   13   15 1    
    29   14   73 1    
    30   15   16 1    
    31   15   74 1    
    32   15   75 1    
    33   16   17 1    
    34   17   18 1    
    35   17   76 1    
    36   17   77 1    
    37   18   19 1    
    38   18   27 1    
    39   18   78 1    
    40   19   20 am   BACKBONE|DICT|INTERRES
    41   19   79 1    
    42   20   21 2    
    43   20   22 1    
    44   22   23 1    
    45   22   24 1    
    46   22   80 1    
    47   23   81 1    
    48   23   82 1    
    49   23   83 1    
    50   24   25 am   BACKBONE|DICT|INTERRES
    51   24   84 1    
    52   25   26 2    
    53   27   28 2    
    54   27   29 am   BACKBONE|DICT|INTERRES
    55   29   30 1    
    56   29   85 1    
    57   30   31 1    
    58   30   32 1    
    59   30   86 1    
    60   31   87 1    
    61   31   88 1    
    62   31   89 1    
    63   32   33 2    
    64   32   34 am   BACKBONE|DICT|INTERRES
    65   34   35 1    
    66   34   90 1    
    67   35   36 1    
    68   35   37 1    
    69   35   91 1    
    70   36   92 1    
    71   36   93 1    
    72   36   94 1    
    73   37   38 2    
    74   37   39 am   BACKBONE|DICT|INTERRES
    75   39   40 1    
    76   39   95 1    
    77   40   41 1    
    78   40   42 1    
    79   40   96 1    
    80   41   97 1    
    81   41   98 1    
    82   41   99 1    
    83   42   43 2    
    84   42   44 am   BACKBONE|DICT|INTERRES
    85   44   45 1    
    86   44  100 1    
    87   45   46 1    
    88   45   47 1    
    89   45  101 1    
    90   46  102 1    
    91   46  103 1    
    92   46  104 1    
    93   47   48 2    
    94   47   49 am   BACKBONE|DICT|INTERRES
    95   49   50 1    
    96   49  105 1    
    97   50   51 1    
    98   50   52 1    
    99   50  106 1    
   100   51  107 1    
   101   51  108 1    
   102   51  109 1    
   103   52   53 2    
   104   52   54 am   BACKBONE|DICT|INTERRES
   105   54   55 1    
   106   54  110 1    
   107   55   56 1    
   108   55   59 1    
   109   55  111 1    
   110   56   57 am   BACKBONE|DICT|INTERRES
   111   56   58 2    
   112   57  112 1    
   113   57  113 1    
   114   59   60 1    
   115   59  114 1    
   116   59  115 1    
   117   60   61 1    
   118   61  116 1    
   119   61  117 1    
@<TRIPOS>SUBSTRUCTURE
     1 UNK         1 GROUP             0       ****    0 ROOT    
