@<TRIPOS>MOLECULE
3R8
117   119    1
SMALL
USER_CHARGES


@<TRIPOS>ATOM
      1 CA         19.1074  -25.7644  -38.0010 C.3       0 UNK        -0.2013 
      2 C          18.6670  -25.5767  -39.4445 C.2       0 UNK         0.4866 
      3 O          18.3355  -24.4623  -39.8495 O.2       0 UNK        -0.5176 
      4 N          18.6620  -26.6636  -40.2207 N.am      1 UNK        -0.4884 
      5 CA         18.3717  -26.6838  -41.6517 C.3       1 UNK         0.0853 
      6 C6         17.7081  -28.0247  -42.0469 C.3       10 UNK        -0.0849 
      7 S7         16.7455  -27.8957  -43.5880 S.3       10 UNK        -0.2776 
      8 C8         16.0682  -29.5916  -43.7102 C.3       10 UNK         0.0316 
      9 C9         17.0600  -30.6907  -44.1060 C.ar      10 UNK        -0.0863 
     10 C10        16.6074  -32.0145  -44.1427 C.ar      10 UNK        -0.1009 
     11 C11        17.4535  -33.0586  -44.5331 C.ar      10 UNK        -0.0712 
     12 C12        18.7822  -32.7690  -44.8673 C.ar      10 UNK        -0.0894 
     13 C13        19.2565  -31.4570  -44.8226 C.ar      10 UNK        -0.0745 
     14 C14        18.3877  -30.4248  -44.4626 C.ar      10 UNK        -0.0972 
     15 C15        20.6940  -31.1385  -45.2031 C.3       10 UNK         0.0209 
     16 S16        21.5535  -30.2470  -43.8691 S.3       10 UNK        -0.2568 
     17 C17        22.9606  -29.5386  -44.7819 C.3       10 UNK        -0.0983 
     18 CA         22.5886  -28.2546  -45.5675 C.3       3 UNK         0.0876 
     19 N          21.9775  -27.2246  -44.7182 N.am      3 UNK        -0.4424 
     20 C          21.3110  -26.1576  -45.1741 C.2       2 UNK         0.4918 
     21 O          21.0346  -25.9806  -46.3619 O.2       2 UNK        -0.4875 
     22 CA         20.8836  -25.1160  -44.1238 C.3       2 UNK         0.0481 
     23 CB         20.6216  -23.7332  -44.7477 C.3       2 UNK        -0.1831 
     24 N          19.6928  -25.5366  -43.3835 N.am      2 UNK        -0.4498 
     25 C          19.6945  -26.4479  -42.4038 C.2       1 UNK         0.5027 
     26 O          20.7003  -27.0763  -42.0673 O.2       1 UNK        -0.4969 
     27 C          23.8243  -27.6958  -46.3012 C.2       3 UNK         0.5005 
     28 O          24.0066  -27.9520  -47.4922 O.2       3 UNK        -0.5279 
     29 N          24.6224  -26.9157  -45.5660 N.am      4 UNK        -0.4463 
     30 CA         25.7797  -26.1407  -46.0087 C.3       4 UNK         0.0283 
     31 CB         26.9524  -27.0417  -46.4470 C.3       4 UNK        -0.1875 
     32 C          26.1453  -25.2447  -44.8248 C.2       4 UNK         0.4949 
     33 O          26.0336  -24.0224  -44.9126 O.2       4 UNK        -0.5039 
     34 N          26.4427  -25.9020  -43.6979 N.am      5 UNK        -0.4663 
     35 CA         26.2338  -25.3702  -42.3535 C.3       5 UNK         0.0242 
     36 CB         27.2820  -25.9911  -41.4134 C.3       5 UNK        -0.1982 
     37 C          24.8049  -25.7285  -41.8992 C.2       5 UNK         0.5017 
     38 O          24.1071  -26.4759  -42.5954 O.2       5 UNK        -0.5012 
     39 N          24.3999  -25.2049  -40.7364 N.am      6 UNK        -0.4439 
     40 CA         23.1459  -25.5594  -40.0718 C.3       6 UNK         0.0297 
     41 CB         22.8386  -24.5265  -38.9753 C.3       6 UNK        -0.2006 
     42 C          23.2357  -26.9811  -39.4895 C.2       6 UNK         0.4892 
     43 O          24.0654  -27.2201  -38.6091 O.2       6 UNK        -0.5089 
     44 N          22.3978  -27.8886  -39.9957 N.am      7 UNK        -0.4243 
     45 CA         22.3190  -29.2941  -39.6058 C.3       7 UNK         0.0196 
     46 CB         23.4313  -30.1013  -40.3125 C.3       7 UNK        -0.2007 
     47 C          20.8926  -29.8000  -39.8814 C.2       7 UNK         0.5020 
     48 O          19.9426  -29.0471  -39.6663 O.2       7 UNK        -0.5147 
     49 N          20.7619  -31.0519  -40.3309 N.am      8 UNK        -0.4734 
     50 CA         19.5436  -31.7548  -40.7417 C.3       8 UNK         0.0238 
     51 CB         18.4583  -31.7221  -39.6393 C.3       8 UNK        -0.1912 
     52 C          19.9294  -33.2091  -41.0545 C.2       8 UNK         0.5038 
     53 O          21.0633  -33.6138  -40.7761 O.2       8 UNK        -0.5046 
     54 N          18.9728  -33.9806  -41.5844 N.am      9 UNK        -0.4200 
     55 CA         19.0423  -35.4472  -41.6672 C.3       9 UNK         0.0839 
     56 C          19.0887  -36.1022  -40.2578 C.2       9 UNK         0.5513 
     57 N          19.8587  -37.1690  -40.0943 N.am      9 UNK        -0.7519 
     58 O          18.3990  -35.6804  -39.3314 O.2       9 UNK        -0.4960 
     59 C59        17.8567  -36.0233  -42.4833 C.3       10 UNK        -0.0876 
     60 S60        18.0688  -35.8055  -44.2797 S.3       10 UNK        -0.2414 
     61 C61        16.8867  -34.4708  -44.6699 C.3       10 UNK         0.0169 
     62 H62        18.2383  -25.9145  -37.3613 H         1 UNK         0.0903 
     63 H63        19.7665  -26.6264  -37.8942 H         1 UNK         0.0903 
     64 H64        19.6408  -24.8833  -37.6461 H         1 UNK         0.0903 
     65 H65        19.0427  -27.5420  -39.8635 H         1 UNK         0.3096 
     66 H66        17.6792  -25.8693  -41.8767 H         1 UNK         0.1121 
     67 H67        18.4444  -28.8278  -42.1200 H         1 UNK         0.0849 
     68 H68        17.0128  -28.3357  -41.2651 H         1 UNK         0.0849 
     69 H69        15.6017  -29.8529  -42.7590 H         1 UNK         0.0865 
     70 H70        15.2657  -29.5769  -44.4490 H         1 UNK         0.0865 
     71 H71        15.5761  -32.2292  -43.8959 H         1 UNK         0.1346 
     72 H72        19.4458  -33.5614  -45.1839 H         1 UNK         0.1412 
     73 H73        18.7697  -29.4143  -44.4643 H         1 UNK         0.1426 
     74 H74        20.6822  -30.5346  -46.1105 H         1 UNK         0.0716 
     75 H75        21.2517  -32.0465  -45.4376 H         1 UNK         0.0716 
     76 H76        23.3622  -30.3006  -45.4528 H         1 UNK         0.0695 
     77 H77        23.7468  -29.3269  -44.0541 H         1 UNK         0.0695 
     78 H78        21.8602  -28.5224  -46.3352 H         1 UNK         0.0983 
     79 H79        22.1072  -27.3196  -43.7162 H         1 UNK         0.3095 
     80 H80        21.7108  -25.0007  -43.4194 H         1 UNK         0.0454 
     81 H81        21.4926  -23.3869  -45.3057 H         1 UNK         0.0851 
     82 H82        20.4121  -22.9860  -43.9822 H         1 UNK         0.0851 
     83 H83        19.7781  -23.7514  -45.4390 H         1 UNK         0.0851 
     84 H84        18.8233  -25.0890  -43.6358 H         1 UNK         0.2976 
     85 H85        24.3547  -26.7577  -44.5965 H         1 UNK         0.3116 
     86 H86        25.4799  -25.5060  -46.8450 H         1 UNK         0.0646 
     87 H87        27.8397  -26.4457  -46.6641 H         1 UNK         0.0847 
     88 H88        27.2243  -27.7678  -45.6807 H         1 UNK         0.0847 
     89 H89        26.7103  -27.5948  -47.3543 H         1 UNK         0.0847 
     90 H90        26.4863  -26.9098  -43.7526 H         1 UNK         0.3040 
     91 H91        26.3424  -24.2831  -42.3535 H         1 UNK         0.1015 
     92 H92        27.2049  -25.5811  -40.4058 H         1 UNK         0.0786 
     93 H93        28.2947  -25.7900  -41.7638 H         1 UNK         0.0786 
     94 H94        27.1646  -27.0729  -41.3343 H         1 UNK         0.0786 
     95 H95        25.0420  -24.6304  -40.2097 H         1 UNK         0.3172 
     96 H96        22.3398  -25.5152  -40.8057 H         1 UNK         0.0595 
     97 H97        22.7178  -23.5270  -39.3935 H         1 UNK         0.0839 
     98 H98        23.6274  -24.4844  -38.2231 H         1 UNK         0.0839 
     99 H99        21.9121  -24.7747  -38.4584 H         1 UNK         0.0839 
    100 H100       21.7343  -27.6052  -40.7188 H         1 UNK         0.2998 
    101 H101       22.4675  -29.3662  -38.5265 H         1 UNK         0.0822 
    102 H102       24.4162  -29.6846  -40.1012 H         1 UNK         0.0787 
    103 H103       23.4520  -31.1384  -39.9762 H         1 UNK         0.0787 
    104 H104       23.3014  -30.1000  -41.3952 H         1 UNK         0.0787 
    105 H105       21.5939  -31.6173  -40.4558 H         1 UNK         0.3055 
    106 H106       19.1663  -31.2923  -41.6560 H         1 UNK         0.1106 
    107 H107       18.0607  -30.7195  -39.4873 H         1 UNK         0.0828 
    108 H108       17.6042  -32.3499  -39.8949 H         1 UNK         0.0828 
    109 H109       18.8471  -32.0786  -38.6849 H         1 UNK         0.0828 
    110 H110       18.0779  -33.5692  -41.8009 H         1 UNK         0.2931 
    111 H111       19.9723  -35.7003  -42.1812 H         1 UNK         0.0412 
    112 H112       19.8897  -37.6187  -39.1923 H         1 UNK         0.3472 
    113 H113       20.4193  -37.5279  -40.8521 H         1 UNK         0.3472 
    114 H114       16.9076  -35.6004  -42.1496 H         1 UNK         0.0970 
    115 H115       17.7682  -37.1001  -42.3230 H         1 UNK         0.0970 
    116 H116       16.5678  -34.5993  -45.7049 H         1 UNK         0.0612 
    117 H117       15.9897  -34.5910  -44.0607 H         1 UNK         0.0612 
@<TRIPOS>BOND
     1    1    2 1    
     2    1   62 1    
     3    1   63 1    
     4    1   64 1    
     5    2    3 2    
     6    2    4 am   BACKBONE|DICT|INTERRES
     7    4    5 1    
     8    4   65 1    
     9    5    6 1    
    10    5   25 1    
    11    5   66 1    
    12    6    7 1    
    13    6   67 1    
    14    6   68 1    
    15    7    8 1    
    16    8    9 1    
    17    8   69 1    
    18    8   70 1    
    19    9   10 ar   
    20    9   14 ar   
    21   10   11 ar   
    22   10   71 1    
    23   11   12 ar   
    24   11   61 1    
    25   12   13 ar   
    26   12   72 1    
    27   13   14 ar   
    28   13   15 1    
    29   14   73 1    
    30   15   16 1    
    31   15   74 1    
    32   15   75 1    
    33   16   17 1    
    34   17   18 1    
    35   17   76 1    
    36   17   77 1    
    37   18   19 1    
    38   18   27 1    
    39   18   78 1    
    40   19   20 am   BACKBONE|DICT|INTERRES
    41   19   79 1    
    42   20   21 2    
    43   20   22 1    
    44   22   23 1    
    45   22   24 1    
    46   22   80 1    
    47   23   81 1    
    48   23   82 1    
    49   23   83 1    
    50   24   25 am   BACKBONE|DICT|INTERRES
    51   24   84 1    
    52   25   26 2    
    53   27   28 2    
    54   27   29 am   BACKBONE|DICT|INTERRES
    55   29   30 1    
    56   29   85 1    
    57   30   31 1    
    58   30   32 1    
    59   30   86 1    
    60   31   87 1    
    61   31   88 1    
    62   31   89 1    
    63   32   33 2    
    64   32   34 am   BACKBONE|DICT|INTERRES
    65   34   35 1    
    66   34   90 1    
    67   35   36 1    
    68   35   37 1    
    69   35   91 1    
    70   36   92 1    
    71   36   93 1    
    72   36   94 1    
    73   37   38 2    
    74   37   39 am   BACKBONE|DICT|INTERRES
    75   39   40 1    
    76   39   95 1    
    77   40   41 1    
    78   40   42 1    
    79   40   96 1    
    80   41   97 1    
    81   41   98 1    
    82   41   99 1    
    83   42   43 2    
    84   42   44 am   BACKBONE|DICT|INTERRES
    85   44   45 1    
    86   44  100 1    
    87   45   46 1    
    88   45   47 1    
    89   45  101 1    
    90   46  102 1    
    91   46  103 1    
    92   46  104 1    
    93   47   48 2    
    94   47   49 am   BACKBONE|DICT|INTERRES
    95   49   50 1    
    96   49  105 1    
    97   50   51 1    
    98   50   52 1    
    99   50  106 1    
   100   51  107 1    
   101   51  108 1    
   102   51  109 1    
   103   52   53 2    
   104   52   54 am   BACKBONE|DICT|INTERRES
   105   54   55 1    
   106   54  110 1    
   107   55   56 1    
   108   55   59 1    
   109   55  111 1    
   110   56   57 am   BACKBONE|DICT|INTERRES
   111   56   58 2    
   112   57  112 1    
   113   57  113 1    
   114   59   60 1    
   115   59  114 1    
   116   59  115 1    
   117   60   61 1    
   118   61  116 1    
   119   61  117 1    
@<TRIPOS>SUBSTRUCTURE
     1 UNK         1 GROUP             0       ****    0 ROOT    
