@<TRIPOS>MOLECULE
3R8
117   119    1
SMALL
USER_CHARGES


@<TRIPOS>ATOM
      1 CA         21.9196  -23.6813  -43.6386 C.3       0 UNK        -0.2013 
      2 C          20.4688  -23.3523  -43.9572 C.2       0 UNK         0.4866 
      3 O          20.1924  -22.3160  -44.5613 O.2       0 UNK        -0.5176 
      4 N          19.5390  -24.2288  -43.5580 N.am      1 UNK        -0.4884 
      5 CA         18.0989  -24.1211  -43.8339 C.3       1 UNK         0.0853 
      6 C6         17.2726  -25.0294  -42.8857 C.3       10 UNK        -0.0849 
      7 S7         17.8291  -26.7728  -42.8726 S.3       10 UNK        -0.2776 
      8 C8         16.3714  -27.6459  -43.5202 C.3       10 UNK         0.0316 
      9 C9         16.6861  -29.1227  -43.6974 C.ar      10 UNK        -0.0863 
     10 C10        16.7884  -29.9543  -42.5772 C.ar      10 UNK        -0.1009 
     11 C11        17.1420  -31.2987  -42.7213 C.ar      10 UNK        -0.0712 
     12 C12        17.3721  -31.8141  -43.9988 C.ar      10 UNK        -0.0894 
     13 C13        17.2927  -30.9903  -45.1239 C.ar      10 UNK        -0.0745 
     14 C14        16.9242  -29.6502  -44.9706 C.ar      10 UNK        -0.0972 
     15 C15        17.6680  -31.5482  -46.4905 C.3       10 UNK         0.0209 
     16 S16        19.0364  -30.6560  -47.3165 S.3       10 UNK        -0.2568 
     17 C17        20.1894  -30.1567  -45.9780 C.3       10 UNK        -0.0983 
     18 CA         20.7282  -28.7153  -46.1943 C.3       3 UNK         0.0876 
     19 N          19.6575  -27.7381  -46.4002 N.am      3 UNK        -0.4424 
     20 C          19.5624  -26.8946  -47.4366 C.2       2 UNK         0.4918 
     21 O          20.2831  -26.9300  -48.4341 O.2       2 UNK        -0.4875 
     22 CA         18.5155  -25.7822  -47.3013 C.3       2 UNK         0.0481 
     23 CB         17.1220  -26.3130  -47.6978 C.3       2 UNK        -0.1831 
     24 N          18.5653  -25.2837  -45.9263 N.am      2 UNK        -0.4498 
     25 C          17.7639  -24.4054  -45.3137 C.2       1 UNK         0.5027 
     26 O          16.8111  -23.8350  -45.8459 O.2       1 UNK        -0.4969 
     27 C          21.6052  -28.2155  -45.0238 C.2       3 UNK         0.5005 
     28 O          21.3740  -27.1158  -44.5048 O.2       3 UNK        -0.5279 
     29 N          22.6238  -29.0020  -44.6495 N.am      4 UNK        -0.4463 
     30 CA         23.6480  -28.6478  -43.6618 C.3       4 UNK         0.0283 
     31 CB         24.8706  -29.5604  -43.8601 C.3       4 UNK        -0.1875 
     32 C          23.1267  -28.6641  -42.2104 C.2       4 UNK         0.4949 
     33 O          23.4402  -29.5747  -41.4395 O.2       4 UNK        -0.5039 
     34 N          22.3368  -27.6412  -41.8628 N.am      5 UNK        -0.4663 
     35 CA         21.8429  -27.3619  -40.5116 C.3       5 UNK         0.0242 
     36 CB         20.9911  -26.0832  -40.5327 C.3       5 UNK        -0.1982 
     37 C          22.9910  -27.2187  -39.4963 C.2       5 UNK         0.5017 
     38 O          24.0138  -26.6093  -39.8164 O.2       5 UNK        -0.5012 
     39 N          22.7966  -27.8034  -38.3063 N.am      6 UNK        -0.4439 
     40 CA         23.7584  -27.9334  -37.2002 C.3       6 UNK         0.0297 
     41 CB         24.2526  -26.5577  -36.7036 C.3       6 UNK        -0.2006 
     42 C          24.9269  -28.9072  -37.4709 C.2       6 UNK         0.4892 
     43 O          25.7695  -29.0776  -36.5888 O.2       6 UNK        -0.5089 
     44 N          24.9403  -29.5675  -38.6373 N.am      7 UNK        -0.4243 
     45 CA         25.8768  -30.6300  -39.0086 C.3       7 UNK         0.0196 
     46 CB         26.7527  -30.1505  -40.1796 C.3       7 UNK        -0.2007 
     47 C          25.0936  -31.9138  -39.3335 C.2       7 UNK         0.5020 
     48 O          25.3935  -32.5954  -40.3153 O.2       7 UNK        -0.5147 
     49 N          24.0759  -32.2039  -38.5065 N.am      8 UNK        -0.4734 
     50 CA         23.1783  -33.3686  -38.5630 C.3       8 UNK         0.0238 
     51 CB         23.9510  -34.6569  -38.2056 C.3       8 UNK        -0.1912 
     52 C          22.3939  -33.5001  -39.8858 C.2       8 UNK         0.5038 
     53 O          22.0525  -34.6169  -40.2794 O.2       8 UNK        -0.5046 
     54 N          22.1330  -32.3621  -40.5451 N.am      9 UNK        -0.4200 
     55 CA         21.4994  -32.2454  -41.8691 C.3       9 UNK         0.0839 
     56 C          22.3837  -32.7596  -43.0465 C.2       9 UNK         0.5513 
     57 N          23.6675  -33.0397  -42.8495 N.am      9 UNK        -0.7519 
     58 O          21.9087  -32.8723  -44.1731 O.2       9 UNK        -0.4960 
     59 C59        20.0480  -32.8039  -41.9133 C.3       10 UNK        -0.0876 
     60 S60        18.9386  -31.9801  -40.7159 S.3       10 UNK        -0.2414 
     61 C61        17.3042  -32.1874  -41.4966 C.3       10 UNK         0.0169 
     62 H62        22.0322  -24.6920  -43.2480 H         1 UNK         0.0903 
     63 H63        22.5281  -23.6027  -44.5392 H         1 UNK         0.0903 
     64 H64        22.3106  -22.9826  -42.8995 H         1 UNK         0.0903 
     65 H65        19.8182  -25.0733  -43.0779 H         1 UNK         0.3096 
     66 H66        17.8009  -23.0872  -43.6443 H         1 UNK         0.1121 
     67 H67        16.2083  -24.9736  -43.1236 H         1 UNK         0.0849 
     68 H68        17.3591  -24.6527  -41.8653 H         1 UNK         0.0849 
     69 H69        15.5344  -27.5254  -42.8307 H         1 UNK         0.0865 
     70 H70        16.0650  -27.1984  -44.4671 H         1 UNK         0.0865 
     71 H71        16.6263  -29.5455  -41.5890 H         1 UNK         0.1346 
     72 H72        17.6527  -32.8521  -44.1132 H         1 UNK         0.1412 
     73 H73        16.8698  -29.0152  -45.8427 H         1 UNK         0.1426 
     74 H74        17.9539  -32.5980  -46.4094 H         1 UNK         0.0716 
     75 H75        16.7906  -31.5223  -47.1380 H         1 UNK         0.0716 
     76 H76        21.0100  -30.8754  -45.9742 H         1 UNK         0.0695 
     77 H77        19.7222  -30.2392  -44.9974 H         1 UNK         0.0695 
     78 H78        21.3774  -28.7344  -47.0723 H         1 UNK         0.0983 
     79 H79        19.0384  -27.6153  -45.6126 H         1 UNK         0.3095 
     80 H80        18.7933  -24.9661  -47.9706 H         1 UNK         0.0454 
     81 H81        16.4017  -25.5038  -47.8132 H         1 UNK         0.0851 
     82 H82        16.7256  -27.0085  -46.9599 H         1 UNK         0.0851 
     83 H83        17.1599  -26.8368  -48.6540 H         1 UNK         0.0851 
     84 H84        19.3502  -25.6243  -45.3843 H         1 UNK         0.2976 
     85 H85        22.7315  -29.9015  -45.0962 H         1 UNK         0.3116 
     86 H86        23.9762  -27.6273  -43.8719 H         1 UNK         0.0646 
     87 H87        24.6455  -30.6012  -43.6305 H         1 UNK         0.0847 
     88 H88        25.6906  -29.2522  -43.2121 H         1 UNK         0.0847 
     89 H89        25.2415  -29.5147  -44.8841 H         1 UNK         0.0847 
     90 H90        22.0631  -27.0038  -42.6021 H         1 UNK         0.3040 
     91 H91        21.2083  -28.2019  -40.2206 H         1 UNK         0.1015 
     92 H92        21.5752  -25.2132  -40.8349 H         1 UNK         0.0786 
     93 H93        20.5806  -25.8710  -39.5445 H         1 UNK         0.0786 
     94 H94        20.1484  -26.1802  -41.2143 H         1 UNK         0.0786 
     95 H95        21.9102  -28.2649  -38.1498 H         1 UNK         0.3172 
     96 H96        23.1927  -28.3817  -36.3821 H         1 UNK         0.0595 
     97 H97        24.9127  -26.0750  -37.4246 H         1 UNK         0.0839 
     98 H98        24.8149  -26.6584  -35.7744 H         1 UNK         0.0839 
     99 H99        23.4201  -25.8831  -36.5044 H         1 UNK         0.0839 
    100 H100       24.2265  -29.3613  -39.3263 H         1 UNK         0.2998 
    101 H101       26.5348  -30.8736  -38.1720 H         1 UNK         0.0822 
    102 H102       27.2921  -29.2385  -39.9237 H         1 UNK         0.0787 
    103 H103       27.4944  -30.9029  -40.4503 H         1 UNK         0.0787 
    104 H104       26.1522  -29.9481  -41.0651 H         1 UNK         0.0787 
    105 H105       23.9092  -31.5652  -37.7409 H         1 UNK         0.3055 
    106 H106       22.4236  -33.2138  -37.7901 H         1 UNK         0.1106 
    107 H107       23.2748  -35.5068  -38.1043 H         1 UNK         0.0828 
    108 H108       24.6829  -34.9140  -38.9721 H         1 UNK         0.0828 
    109 H109       24.4795  -34.5537  -37.2580 H         1 UNK         0.0828 
    110 H110       22.5046  -31.4992  -40.1755 H         1 UNK         0.2931 
    111 H111       21.4173  -31.1738  -42.0493 H         1 UNK         0.0412 
    112 H112       24.0953  -32.9134  -41.9393 H         1 UNK         0.3472 
    113 H113       24.2235  -33.3663  -43.6231 H         1 UNK         0.3472 
    114 H114       20.0313  -33.8792  -41.7324 H         1 UNK         0.0970 
    115 H115       19.6430  -32.6666  -42.9136 H         1 UNK         0.0970 
    116 H116       17.1560  -33.2367  -41.7566 H         1 UNK         0.0612 
    117 H117       16.5327  -31.9422  -40.7652 H         1 UNK         0.0612 
@<TRIPOS>BOND
     1    1    2 1    
     2    1   62 1    
     3    1   63 1    
     4    1   64 1    
     5    2    3 2    
     6    2    4 am   BACKBONE|DICT|INTERRES
     7    4    5 1    
     8    4   65 1    
     9    5    6 1    
    10    5   25 1    
    11    5   66 1    
    12    6    7 1    
    13    6   67 1    
    14    6   68 1    
    15    7    8 1    
    16    8    9 1    
    17    8   69 1    
    18    8   70 1    
    19    9   10 ar   
    20    9   14 ar   
    21   10   11 ar   
    22   10   71 1    
    23   11   12 ar   
    24   11   61 1    
    25   12   13 ar   
    26   12   72 1    
    27   13   14 ar   
    28   13   15 1    
    29   14   73 1    
    30   15   16 1    
    31   15   74 1    
    32   15   75 1    
    33   16   17 1    
    34   17   18 1    
    35   17   76 1    
    36   17   77 1    
    37   18   19 1    
    38   18   27 1    
    39   18   78 1    
    40   19   20 am   BACKBONE|DICT|INTERRES
    41   19   79 1    
    42   20   21 2    
    43   20   22 1    
    44   22   23 1    
    45   22   24 1    
    46   22   80 1    
    47   23   81 1    
    48   23   82 1    
    49   23   83 1    
    50   24   25 am   BACKBONE|DICT|INTERRES
    51   24   84 1    
    52   25   26 2    
    53   27   28 2    
    54   27   29 am   BACKBONE|DICT|INTERRES
    55   29   30 1    
    56   29   85 1    
    57   30   31 1    
    58   30   32 1    
    59   30   86 1    
    60   31   87 1    
    61   31   88 1    
    62   31   89 1    
    63   32   33 2    
    64   32   34 am   BACKBONE|DICT|INTERRES
    65   34   35 1    
    66   34   90 1    
    67   35   36 1    
    68   35   37 1    
    69   35   91 1    
    70   36   92 1    
    71   36   93 1    
    72   36   94 1    
    73   37   38 2    
    74   37   39 am   BACKBONE|DICT|INTERRES
    75   39   40 1    
    76   39   95 1    
    77   40   41 1    
    78   40   42 1    
    79   40   96 1    
    80   41   97 1    
    81   41   98 1    
    82   41   99 1    
    83   42   43 2    
    84   42   44 am   BACKBONE|DICT|INTERRES
    85   44   45 1    
    86   44  100 1    
    87   45   46 1    
    88   45   47 1    
    89   45  101 1    
    90   46  102 1    
    91   46  103 1    
    92   46  104 1    
    93   47   48 2    
    94   47   49 am   BACKBONE|DICT|INTERRES
    95   49   50 1    
    96   49  105 1    
    97   50   51 1    
    98   50   52 1    
    99   50  106 1    
   100   51  107 1    
   101   51  108 1    
   102   51  109 1    
   103   52   53 2    
   104   52   54 am   BACKBONE|DICT|INTERRES
   105   54   55 1    
   106   54  110 1    
   107   55   56 1    
   108   55   59 1    
   109   55  111 1    
   110   56   57 am   BACKBONE|DICT|INTERRES
   111   56   58 2    
   112   57  112 1    
   113   57  113 1    
   114   59   60 1    
   115   59  114 1    
   116   59  115 1    
   117   60   61 1    
   118   61  116 1    
   119   61  117 1    
@<TRIPOS>SUBSTRUCTURE
     1 UNK         1 GROUP             0       ****    0 ROOT    
