@<TRIPOS>MOLECULE
3R8
117   119    1
SMALL
USER_CHARGES


@<TRIPOS>ATOM
      1 CA         22.6508  -29.3670  -47.4770 C.3       0 UNK        -0.2013 
      2 C          21.7186  -28.6552  -46.5075 C.2       0 UNK         0.4866 
      3 O          21.8024  -27.4352  -46.3806 O.2       0 UNK        -0.5176 
      4 N          20.8357  -29.4211  -45.8507 N.am      1 UNK        -0.4884 
      5 CA         19.8123  -29.0057  -44.8808 C.3       1 UNK         0.0853 
      6 C6         18.8094  -27.9458  -45.4168 C.3       10 UNK        -0.0849 
      7 S7         17.7061  -28.6829  -46.6735 S.3       10 UNK        -0.2776 
      8 C8         16.1338  -28.8931  -45.7638 C.3       10 UNK         0.0316 
      9 C9         16.3250  -29.5245  -44.3893 C.ar      10 UNK        -0.0863 
     10 C10        16.7843  -30.8399  -44.2708 C.ar      10 UNK        -0.1009 
     11 C11        17.0185  -31.3940  -43.0104 C.ar      10 UNK        -0.0712 
     12 C12        16.7590  -30.6320  -41.8678 C.ar      10 UNK        -0.0894 
     13 C13        16.2912  -29.3170  -41.9632 C.ar      10 UNK        -0.0745 
     14 C14        16.0610  -28.7782  -43.2354 C.ar      10 UNK        -0.0972 
     15 C15        16.0433  -28.5485  -40.6597 C.3       10 UNK         0.0209 
     16 S16        15.5442  -26.7899  -40.7909 S.3       10 UNK        -0.2568 
     17 C17        16.9371  -25.8746  -41.5512 C.3       10 UNK        -0.0983 
     18 CA         18.3160  -25.9943  -40.8495 C.3       3 UNK         0.0876 
     19 N          18.9111  -27.3043  -41.0972 N.am      3 UNK        -0.4424 
     20 C          20.0045  -27.8085  -40.5136 C.2       2 UNK         0.4918 
     21 O          20.6128  -27.2642  -39.5931 O.2       2 UNK        -0.4875 
     22 CA         20.5038  -29.1536  -41.0761 C.3       2 UNK         0.0481 
     23 CB         20.0345  -30.3047  -40.1748 C.3       2 UNK        -0.1831 
     24 N          20.1160  -29.4041  -42.4756 N.am      2 UNK        -0.4498 
     25 C          20.4116  -28.6066  -43.5200 C.2       1 UNK         0.5027 
     26 O          21.0549  -27.5620  -43.4147 O.2       1 UNK        -0.4969 
     27 C          19.2350  -24.8416  -41.3216 C.2       3 UNK         0.5005 
     28 O          19.1828  -23.7607  -40.7323 O.2       3 UNK        -0.5279 
     29 N          20.0233  -25.0672  -42.3848 N.am      4 UNK        -0.4463 
     30 CA         20.8697  -24.0572  -43.0226 C.3       4 UNK         0.0283 
     31 CB         20.8641  -24.2725  -44.5449 C.3       4 UNK        -0.1875 
     32 C          22.3050  -24.0866  -42.4806 C.2       4 UNK         0.4949 
     33 O          22.8759  -23.0224  -42.2397 O.2       4 UNK        -0.5039 
     34 N          22.8619  -25.2877  -42.2901 N.am      5 UNK        -0.4663 
     35 CA         24.1933  -25.5135  -41.7312 C.3       5 UNK         0.0242 
     36 CB         25.2325  -25.5710  -42.8636 C.3       5 UNK        -0.1982 
     37 C          24.1598  -26.8192  -40.9351 C.2       5 UNK         0.5017 
     38 O          23.5051  -27.7618  -41.3766 O.2       5 UNK        -0.5012 
     39 N          24.8513  -26.8454  -39.7871 N.am      6 UNK        -0.4439 
     40 CA         24.8165  -27.9007  -38.7662 C.3       6 UNK         0.0297 
     41 CB         25.8939  -27.6129  -37.7062 C.3       6 UNK        -0.2006 
     42 C          24.9577  -29.3329  -39.3172 C.2       6 UNK         0.4892 
     43 O          26.0492  -29.7200  -39.7388 O.2       6 UNK        -0.5089 
     44 N          23.8369  -30.0706  -39.2953 N.am      7 UNK        -0.4243 
     45 CA         23.6659  -31.4649  -39.7258 C.3       7 UNK         0.0196 
     46 CB         24.4573  -32.4149  -38.8013 C.3       7 UNK        -0.2007 
     47 C          23.9610  -31.7219  -41.2192 C.2       7 UNK         0.5020 
     48 O          24.2557  -32.8604  -41.5859 O.2       7 UNK        -0.5147 
     49 N          23.8691  -30.6881  -42.0694 N.am      8 UNK        -0.4734 
     50 CA         24.2744  -30.7462  -43.4796 C.3       8 UNK         0.0238 
     51 CB         24.3537  -29.3226  -44.0481 C.3       8 UNK        -0.1912 
     52 C          23.4350  -31.6685  -44.3858 C.2       8 UNK         0.5038 
     53 O          23.9163  -32.0215  -45.4629 O.2       8 UNK        -0.5046 
     54 N          22.2271  -32.0617  -43.9538 N.am      9 UNK        -0.4200 
     55 CA         21.4405  -33.1341  -44.5935 C.3       9 UNK         0.0839 
     56 C          21.9102  -34.5773  -44.2370 C.2       9 UNK         0.5513 
     57 N          22.8484  -34.7769  -43.3181 N.am      9 UNK        -0.7519 
     58 O          21.4227  -35.5397  -44.8244 O.2       9 UNK        -0.4960 
     59 C59        19.9071  -32.9526  -44.4186 C.3       10 UNK        -0.0876 
     60 S60        19.3577  -32.8464  -42.6829 S.3       10 UNK        -0.2414 
     61 C61        17.5456  -32.8151  -42.8708 C.3       10 UNK         0.0169 
     62 H62        22.5853  -30.4513  -47.3891 H         1 UNK         0.0903 
     63 H63        22.4019  -29.0935  -48.5019 H         1 UNK         0.0903 
     64 H64        23.6840  -29.0761  -47.2915 H         1 UNK         0.0903 
     65 H65        20.8555  -30.4132  -46.0352 H         1 UNK         0.3096 
     66 H66        19.2327  -29.9040  -44.6911 H         1 UNK         0.1121 
     67 H67        18.2033  -27.5264  -44.6130 H         1 UNK         0.0849 
     68 H68        19.3265  -27.0920  -45.8552 H         1 UNK         0.0849 
     69 H69        15.6479  -27.9198  -45.6783 H         1 UNK         0.0865 
     70 H70        15.4616  -29.5159  -46.3556 H         1 UNK         0.0865 
     71 H71        16.9834  -31.4204  -45.1617 H         1 UNK         0.1346 
     72 H72        16.9196  -31.0725  -40.8934 H         1 UNK         0.1412 
     73 H73        15.6750  -27.7756  -43.3422 H         1 UNK         0.1426 
     74 H74        16.9134  -28.6254  -40.0080 H         1 UNK         0.0716 
     75 H75        15.2412  -29.0631  -40.1289 H         1 UNK         0.0716 
     76 H76        16.6126  -24.8315  -41.5534 H         1 UNK         0.0695 
     77 H77        17.0211  -26.1434  -42.6046 H         1 UNK         0.0695 
     78 H78        18.1783  -25.8799  -39.7721 H         1 UNK         0.0983 
     79 H79        18.4657  -27.8598  -41.8112 H         1 UNK         0.3095 
     80 H80        21.5880  -29.1540  -41.0408 H         1 UNK         0.0454 
     81 H81        20.3771  -30.1586  -39.1496 H         1 UNK         0.0851 
     82 H82        20.4284  -31.2634  -40.5071 H         1 UNK         0.0851 
     83 H83        18.9499  -30.3775  -40.1375 H         1 UNK         0.0851 
     84 H84        19.5577  -30.2326  -42.6339 H         1 UNK         0.2976 
     85 H85        20.0984  -26.0076  -42.7599 H         1 UNK         0.3116 
     86 H86        20.4602  -23.0630  -42.8304 H         1 UNK         0.0646 
     87 H87        19.8547  -24.2113  -44.9516 H         1 UNK         0.0847 
     88 H88        21.2768  -25.2438  -44.8200 H         1 UNK         0.0847 
     89 H89        21.4632  -23.5123  -45.0478 H         1 UNK         0.0847 
     90 H90        22.3352  -26.1327  -42.4977 H         1 UNK         0.3040 
     91 H91        24.4475  -24.6989  -41.0491 H         1 UNK         0.1015 
     92 H92        26.2234  -25.8133  -42.4776 H         1 UNK         0.0786 
     93 H93        25.3087  -24.6124  -43.3769 H         1 UNK         0.0786 
     94 H94        24.9738  -26.3254  -43.6070 H         1 UNK         0.0786 
     95 H95        25.3923  -26.0276  -39.5466 H         1 UNK         0.3172 
     96 H96        23.8455  -27.8209  -38.2729 H         1 UNK         0.0595 
     97 H97        25.8921  -28.3789  -36.9293 H         1 UNK         0.0839 
     98 H98        25.7248  -26.6554  -37.2131 H         1 UNK         0.0839 
     99 H99        26.8938  -27.5954  -38.1420 H         1 UNK         0.0839 
    100 H100       22.9986  -29.6199  -38.9559 H         1 UNK         0.2998 
    101 H101       22.6092  -31.6951  -39.5912 H         1 UNK         0.0822 
    102 H102       24.2204  -32.2373  -37.7523 H         1 UNK         0.0787 
    103 H103       24.2191  -33.4584  -39.0115 H         1 UNK         0.0787 
    104 H104       25.5340  -32.2965  -38.9272 H         1 UNK         0.0787 
    105 H105       23.6452  -29.7663  -41.7031 H         1 UNK         0.3055 
    106 H106       25.2864  -31.1573  -43.4991 H         1 UNK         0.1106 
    107 H107       25.0848  -28.7278  -43.5014 H         1 UNK         0.0828 
    108 H108       24.6661  -29.3295  -45.0923 H         1 UNK         0.0828 
    109 H109       23.3956  -28.8073  -43.9906 H         1 UNK         0.0828 
    110 H110       21.9188  -31.7611  -43.0416 H         1 UNK         0.2931 
    111 H111       21.6135  -33.0559  -45.6687 H         1 UNK         0.0412 
    112 H112       23.2756  -34.0059  -42.8143 H         1 UNK         0.3472 
    113 H113       23.1366  -35.7205  -43.1140 H         1 UNK         0.3472 
    114 H114       19.3736  -33.7739  -44.9015 H         1 UNK         0.0970 
    115 H115       19.5798  -32.0616  -44.9477 H         1 UNK         0.0970 
    116 H116       17.0985  -33.2833  -41.9926 H         1 UNK         0.0612 
    117 H117       17.2440  -33.4255  -43.7233 H         1 UNK         0.0612 
@<TRIPOS>BOND
     1    1    2 1    
     2    1   62 1    
     3    1   63 1    
     4    1   64 1    
     5    2    3 2    
     6    2    4 am   BACKBONE|DICT|INTERRES
     7    4    5 1    
     8    4   65 1    
     9    5    6 1    
    10    5   25 1    
    11    5   66 1    
    12    6    7 1    
    13    6   67 1    
    14    6   68 1    
    15    7    8 1    
    16    8    9 1    
    17    8   69 1    
    18    8   70 1    
    19    9   10 ar   
    20    9   14 ar   
    21   10   11 ar   
    22   10   71 1    
    23   11   12 ar   
    24   11   61 1    
    25   12   13 ar   
    26   12   72 1    
    27   13   14 ar   
    28   13   15 1    
    29   14   73 1    
    30   15   16 1    
    31   15   74 1    
    32   15   75 1    
    33   16   17 1    
    34   17   18 1    
    35   17   76 1    
    36   17   77 1    
    37   18   19 1    
    38   18   27 1    
    39   18   78 1    
    40   19   20 am   BACKBONE|DICT|INTERRES
    41   19   79 1    
    42   20   21 2    
    43   20   22 1    
    44   22   23 1    
    45   22   24 1    
    46   22   80 1    
    47   23   81 1    
    48   23   82 1    
    49   23   83 1    
    50   24   25 am   BACKBONE|DICT|INTERRES
    51   24   84 1    
    52   25   26 2    
    53   27   28 2    
    54   27   29 am   BACKBONE|DICT|INTERRES
    55   29   30 1    
    56   29   85 1    
    57   30   31 1    
    58   30   32 1    
    59   30   86 1    
    60   31   87 1    
    61   31   88 1    
    62   31   89 1    
    63   32   33 2    
    64   32   34 am   BACKBONE|DICT|INTERRES
    65   34   35 1    
    66   34   90 1    
    67   35   36 1    
    68   35   37 1    
    69   35   91 1    
    70   36   92 1    
    71   36   93 1    
    72   36   94 1    
    73   37   38 2    
    74   37   39 am   BACKBONE|DICT|INTERRES
    75   39   40 1    
    76   39   95 1    
    77   40   41 1    
    78   40   42 1    
    79   40   96 1    
    80   41   97 1    
    81   41   98 1    
    82   41   99 1    
    83   42   43 2    
    84   42   44 am   BACKBONE|DICT|INTERRES
    85   44   45 1    
    86   44  100 1    
    87   45   46 1    
    88   45   47 1    
    89   45  101 1    
    90   46  102 1    
    91   46  103 1    
    92   46  104 1    
    93   47   48 2    
    94   47   49 am   BACKBONE|DICT|INTERRES
    95   49   50 1    
    96   49  105 1    
    97   50   51 1    
    98   50   52 1    
    99   50  106 1    
   100   51  107 1    
   101   51  108 1    
   102   51  109 1    
   103   52   53 2    
   104   52   54 am   BACKBONE|DICT|INTERRES
   105   54   55 1    
   106   54  110 1    
   107   55   56 1    
   108   55   59 1    
   109   55  111 1    
   110   56   57 am   BACKBONE|DICT|INTERRES
   111   56   58 2    
   112   57  112 1    
   113   57  113 1    
   114   59   60 1    
   115   59  114 1    
   116   59  115 1    
   117   60   61 1    
   118   61  116 1    
   119   61  117 1    
@<TRIPOS>SUBSTRUCTURE
     1 UNK         1 GROUP             0       ****    0 ROOT    
