@<TRIPOS>MOLECULE
3R8
117   119    1
SMALL
USER_CHARGES


@<TRIPOS>ATOM
      1 CA         19.2957  -23.1923  -42.3787 C.3       0 UNK        -0.2013 
      2 C          18.3272  -24.1869  -41.7450 C.2       0 UNK         0.4866 
      3 O          18.3481  -24.3549  -40.5278 O.2       0 UNK        -0.5176 
      4 N          17.4540  -24.8567  -42.5098 N.am      1 UNK        -0.4884 
      5 CA         17.3492  -24.8546  -43.9721 C.3       1 UNK         0.0853 
      6 C6         15.9982  -25.4491  -44.4566 C.3       10 UNK        -0.0849 
      7 S7         15.4992  -27.0210  -43.6532 S.3       10 UNK        -0.2776 
      8 C8         15.6237  -28.2501  -44.9988 C.3       10 UNK         0.0316 
      9 C9         16.7187  -29.2812  -44.7479 C.ar      10 UNK        -0.0863 
     10 C10        16.6296  -30.1439  -43.6498 C.ar      10 UNK        -0.1009 
     11 C11        17.6083  -31.1168  -43.4324 C.ar      10 UNK        -0.0712 
     12 C12        18.6702  -31.2344  -44.3304 C.ar      10 UNK        -0.0894 
     13 C13        18.7895  -30.3697  -45.4247 C.ar      10 UNK        -0.0745 
     14 C14        17.8004  -29.4006  -45.6296 C.ar      10 UNK        -0.0972 
     15 C15        19.9500  -30.5008  -46.4126 C.3       10 UNK         0.0209 
     16 S16        21.5128  -31.0313  -45.6279 S.3       10 UNK        -0.2568 
     17 C17        22.6700  -29.6538  -45.9470 C.3       10 UNK        -0.0983 
     18 CA         22.5001  -28.3598  -45.1030 C.3       3 UNK         0.0876 
     19 N          21.5601  -27.4363  -45.7404 N.am      3 UNK        -0.4424 
     20 C          21.4396  -26.1285  -45.4788 C.2       2 UNK         0.4918 
     21 O          22.0801  -25.5434  -44.6048 O.2       2 UNK        -0.4875 
     22 CA         20.4001  -25.3439  -46.3098 C.3       2 UNK         0.0481 
     23 CB         19.8762  -26.1103  -47.5454 C.3       2 UNK        -0.1831 
     24 N          19.2630  -24.8661  -45.5126 N.am      2 UNK        -0.4498 
     25 C          18.5509  -25.5705  -44.6188 C.2       1 UNK         0.5027 
     26 O          18.8073  -26.7307  -44.2999 O.2       1 UNK        -0.4969 
     27 C          22.2369  -28.5989  -43.5960 C.2       3 UNK         0.5005 
     28 O          23.1530  -29.0287  -42.8898 O.2       3 UNK        -0.5279 
     29 N          21.0355  -28.2629  -43.0967 N.am      4 UNK        -0.4463 
     30 CA         20.7043  -28.3061  -41.6690 C.3       4 UNK         0.0283 
     31 CB         19.1989  -28.0919  -41.4669 C.3       4 UNK        -0.1875 
     32 C          21.5072  -27.2952  -40.8310 C.2       4 UNK         0.4949 
     33 O          21.7055  -27.5388  -39.6417 O.2       4 UNK        -0.5039 
     34 N          22.0198  -26.2229  -41.4584 N.am      5 UNK        -0.4663 
     35 CA         22.9491  -25.2710  -40.8360 C.3       5 UNK         0.0242 
     36 CB         23.1390  -24.0541  -41.7547 C.3       5 UNK        -0.1982 
     37 C          24.3162  -25.8934  -40.4933 C.2       5 UNK         0.5017 
     38 O          24.9746  -25.4229  -39.5657 O.2       5 UNK        -0.5012 
     39 N          24.7034  -26.9471  -41.2262 N.am      6 UNK        -0.4439 
     40 CA         25.8919  -27.7626  -40.9688 C.3       6 UNK         0.0297 
     41 CB         26.5012  -28.1836  -42.3182 C.3       6 UNK        -0.2006 
     42 C          25.5724  -28.9994  -40.1054 C.2       6 UNK         0.4892 
     43 O          26.4823  -29.7858  -39.8402 O.2       6 UNK        -0.5089 
     44 N          24.3000  -29.1632  -39.7033 N.am      7 UNK        -0.4243 
     45 CA         23.7262  -30.3020  -38.9771 C.3       7 UNK         0.0196 
     46 CB         24.2888  -30.3795  -37.5418 C.3       7 UNK        -0.2007 
     47 C          23.8520  -31.6308  -39.7486 C.2       7 UNK         0.5020 
     48 O          24.0409  -32.6822  -39.1359 O.2       7 UNK        -0.5147 
     49 N          23.7428  -31.5673  -41.0836 N.am      8 UNK        -0.4734 
     50 CA         23.9182  -32.7121  -41.9843 C.3       8 UNK         0.0238 
     51 CB         24.4053  -32.1944  -43.3469 C.3       8 UNK        -0.1912 
     52 C          22.6684  -33.6053  -42.1287 C.2       8 UNK         0.5038 
     53 O          22.7141  -34.5665  -42.8983 O.2       8 UNK        -0.5046 
     54 N          21.5855  -33.2860  -41.4062 N.am      9 UNK        -0.4200 
     55 CA         20.3359  -34.0605  -41.3368 C.3       9 UNK         0.0839 
     56 C          20.5488  -35.5184  -40.8435 C.2       9 UNK         0.5513 
     57 N          19.8368  -36.4783  -41.4179 N.am      9 UNK        -0.7519 
     58 O          21.3121  -35.7764  -39.9151 O.2       9 UNK        -0.4960 
     59 C59        19.2729  -33.3556  -40.4525 C.3       10 UNK        -0.0876 
     60 S60        18.8620  -31.6822  -41.0434 S.3       10 UNK        -0.2414 
     61 C61        17.5350  -32.0505  -42.2354 C.3       10 UNK         0.0169 
     62 H62        19.8109  -22.6220  -41.6059 H         1 UNK         0.0903 
     63 H63        20.0524  -23.7089  -42.9674 H         1 UNK         0.0903 
     64 H64        18.7743  -22.4790  -43.0155 H         1 UNK         0.0903 
     65 H65        16.8432  -25.5276  -42.0644 H         1 UNK         0.3096 
     66 H66        17.3618  -23.8140  -44.3014 H         1 UNK         0.1121 
     67 H67        15.2075  -24.7297  -44.2379 H         1 UNK         0.0849 
     68 H68        15.9861  -25.5514  -45.5430 H         1 UNK         0.0849 
     69 H69        14.6687  -28.7714  -45.0782 H         1 UNK         0.0865 
     70 H70        15.7720  -27.7564  -45.9595 H         1 UNK         0.0865 
     71 H71        15.7991  -30.0517  -42.9633 H         1 UNK         0.1346 
     72 H72        19.4129  -32.0006  -44.1577 H         1 UNK         0.1412 
     73 H73        17.8678  -28.7384  -46.4808 H         1 UNK         0.1426 
     74 H74        19.6761  -31.2415  -47.1648 H         1 UNK         0.0716 
     75 H75        20.1037  -29.5651  -46.9496 H         1 UNK         0.0716 
     76 H76        23.6685  -30.0528  -45.7611 H         1 UNK         0.0695 
     77 H77        22.6591  -29.4242  -47.0139 H         1 UNK         0.0695 
     78 H78        23.4658  -27.8496  -45.1343 H         1 UNK         0.0983 
     79 H79        20.9559  -27.8348  -46.4412 H         1 UNK         0.3095 
     80 H80        20.9182  -24.4548  -46.6721 H         1 UNK         0.0454 
     81 H81        19.2779  -26.9783  -47.2695 H         1 UNK         0.0851 
     82 H82        19.2474  -25.4676  -48.1616 H         1 UNK         0.0851 
     83 H83        20.6945  -26.4501  -48.1819 H         1 UNK         0.0851 
     84 H84        18.9997  -23.9058  -45.6851 H         1 UNK         0.2976 
     85 H85        20.3184  -27.8927  -43.7161 H         1 UNK         0.3116 
     86 H86        20.9518  -29.3067  -41.3083 H         1 UNK         0.0646 
     87 H87        18.9116  -28.2984  -40.4355 H         1 UNK         0.0847 
     88 H88        18.6118  -28.7484  -42.1076 H         1 UNK         0.0847 
     89 H89        18.9063  -27.0675  -41.6857 H         1 UNK         0.0847 
     90 H90        21.8310  -26.0974  -42.4464 H         1 UNK         0.3040 
     91 H91        22.5024  -24.9288  -39.8997 H         1 UNK         0.1015 
     92 H92        22.1945  -23.5504  -41.9516 H         1 UNK         0.0786 
     93 H93        23.5781  -24.3347  -42.7127 H         1 UNK         0.0786 
     94 H94        23.8033  -23.3201  -41.2963 H         1 UNK         0.0786 
     95 H95        24.0796  -27.2937  -41.9458 H         1 UNK         0.3172 
     96 H96        26.6368  -27.1727  -40.4308 H         1 UNK         0.0595 
     97 H97        27.4309  -28.7353  -42.1725 H         1 UNK         0.0839 
     98 H98        26.7354  -27.3170  -42.9364 H         1 UNK         0.0839 
     99 H99        25.8281  -28.8286  -42.8842 H         1 UNK         0.0839 
    100 H100       23.6340  -28.4404  -39.9472 H         1 UNK         0.2998 
    101 H101       22.6565  -30.1022  -38.8984 H         1 UNK         0.0822 
    102 H102       24.1728  -29.4299  -37.0194 H         1 UNK         0.0787 
    103 H103       23.7646  -31.1358  -36.9564 H         1 UNK         0.0787 
    104 H104       25.3476  -30.6400  -37.5346 H         1 UNK         0.0787 
    105 H105       23.5800  -30.6678  -41.5254 H         1 UNK         0.3055 
    106 H106       24.7037  -33.3538  -41.5784 H         1 UNK         0.1106 
    107 H107       24.5851  -33.0134  -44.0443 H         1 UNK         0.0828 
    108 H108       23.6716  -31.5328  -43.8015 H         1 UNK         0.0828 
    109 H109       25.3391  -31.6401  -43.2504 H         1 UNK         0.0828 
    110 H110       21.6407  -32.4793  -40.8047 H         1 UNK         0.2931 
    111 H111       19.9488  -34.1072  -42.3568 H         1 UNK         0.0412 
    112 H112       19.9477  -37.4285  -41.0991 H         1 UNK         0.3472 
    113 H113       19.2009  -36.2759  -42.1739 H         1 UNK         0.3472 
    114 H114       19.6300  -33.2729  -39.4241 H         1 UNK         0.0970 
    115 H115       18.3545  -33.9443  -40.4022 H         1 UNK         0.0970 
    116 H116       16.5702  -31.9728  -41.7321 H         1 UNK         0.0612 
    117 H117       17.6198  -33.0786  -42.5900 H         1 UNK         0.0612 
@<TRIPOS>BOND
     1    1    2 1    
     2    1   62 1    
     3    1   63 1    
     4    1   64 1    
     5    2    3 2    
     6    2    4 am   BACKBONE|DICT|INTERRES
     7    4    5 1    
     8    4   65 1    
     9    5    6 1    
    10    5   25 1    
    11    5   66 1    
    12    6    7 1    
    13    6   67 1    
    14    6   68 1    
    15    7    8 1    
    16    8    9 1    
    17    8   69 1    
    18    8   70 1    
    19    9   10 ar   
    20    9   14 ar   
    21   10   11 ar   
    22   10   71 1    
    23   11   12 ar   
    24   11   61 1    
    25   12   13 ar   
    26   12   72 1    
    27   13   14 ar   
    28   13   15 1    
    29   14   73 1    
    30   15   16 1    
    31   15   74 1    
    32   15   75 1    
    33   16   17 1    
    34   17   18 1    
    35   17   76 1    
    36   17   77 1    
    37   18   19 1    
    38   18   27 1    
    39   18   78 1    
    40   19   20 am   BACKBONE|DICT|INTERRES
    41   19   79 1    
    42   20   21 2    
    43   20   22 1    
    44   22   23 1    
    45   22   24 1    
    46   22   80 1    
    47   23   81 1    
    48   23   82 1    
    49   23   83 1    
    50   24   25 am   BACKBONE|DICT|INTERRES
    51   24   84 1    
    52   25   26 2    
    53   27   28 2    
    54   27   29 am   BACKBONE|DICT|INTERRES
    55   29   30 1    
    56   29   85 1    
    57   30   31 1    
    58   30   32 1    
    59   30   86 1    
    60   31   87 1    
    61   31   88 1    
    62   31   89 1    
    63   32   33 2    
    64   32   34 am   BACKBONE|DICT|INTERRES
    65   34   35 1    
    66   34   90 1    
    67   35   36 1    
    68   35   37 1    
    69   35   91 1    
    70   36   92 1    
    71   36   93 1    
    72   36   94 1    
    73   37   38 2    
    74   37   39 am   BACKBONE|DICT|INTERRES
    75   39   40 1    
    76   39   95 1    
    77   40   41 1    
    78   40   42 1    
    79   40   96 1    
    80   41   97 1    
    81   41   98 1    
    82   41   99 1    
    83   42   43 2    
    84   42   44 am   BACKBONE|DICT|INTERRES
    85   44   45 1    
    86   44  100 1    
    87   45   46 1    
    88   45   47 1    
    89   45  101 1    
    90   46  102 1    
    91   46  103 1    
    92   46  104 1    
    93   47   48 2    
    94   47   49 am   BACKBONE|DICT|INTERRES
    95   49   50 1    
    96   49  105 1    
    97   50   51 1    
    98   50   52 1    
    99   50  106 1    
   100   51  107 1    
   101   51  108 1    
   102   51  109 1    
   103   52   53 2    
   104   52   54 am   BACKBONE|DICT|INTERRES
   105   54   55 1    
   106   54  110 1    
   107   55   56 1    
   108   55   59 1    
   109   55  111 1    
   110   56   57 am   BACKBONE|DICT|INTERRES
   111   56   58 2    
   112   57  112 1    
   113   57  113 1    
   114   59   60 1    
   115   59  114 1    
   116   59  115 1    
   117   60   61 1    
   118   61  116 1    
   119   61  117 1    
@<TRIPOS>SUBSTRUCTURE
     1 UNK         1 GROUP             0       ****    0 ROOT    
