@<TRIPOS>MOLECULE
3R8
117   119    1
SMALL
USER_CHARGES


@<TRIPOS>ATOM
      1 CA         14.6258  -22.5889  -43.2319 C.3       0 UNK        -0.2013 
      2 C          15.4476  -23.3618  -44.2527 C.2       0 UNK         0.4866 
      3 O          15.6414  -22.8823  -45.3699 O.2       0 UNK        -0.5176 
      4 N          15.9261  -24.5563  -43.8786 N.am      1 UNK        -0.4884 
      5 CA         16.7449  -25.4375  -44.7212 C.3       1 UNK         0.0853 
      6 C6         16.9038  -26.8460  -44.0863 C.3       10 UNK        -0.0849 
      7 S7         15.5657  -27.9767  -44.5906 S.3       10 UNK        -0.2776 
      8 C8         16.1408  -29.5861  -43.9261 C.3       10 UNK         0.0316 
      9 C9         17.4678  -30.1237  -44.4769 C.ar      10 UNK        -0.0863 
     10 C10        18.1014  -31.1697  -43.7949 C.ar      10 UNK        -0.1009 
     11 C11        19.3178  -31.6919  -44.2484 C.ar      10 UNK        -0.0712 
     12 C12        19.9218  -31.1399  -45.3821 C.ar      10 UNK        -0.0894 
     13 C13        19.2962  -30.1090  -46.0874 C.ar      10 UNK        -0.0745 
     14 C14        18.0611  -29.6268  -45.6447 C.ar      10 UNK        -0.0972 
     15 C15        19.9190  -29.5518  -47.3606 C.3       10 UNK         0.0209 
     16 S16        20.1413  -27.7429  -47.2963 S.3       10 UNK        -0.2568 
     17 C17        21.8480  -27.5441  -46.6765 C.3       10 UNK        -0.0983 
     18 CA         21.9721  -26.8972  -45.2720 C.3       3 UNK         0.0876 
     19 N          21.1287  -25.7033  -45.1049 N.am      3 UNK        -0.4424 
     20 C          21.2343  -24.8064  -44.1139 C.2       2 UNK         0.4918 
     21 O          22.1013  -24.8667  -43.2422 O.2       2 UNK        -0.4875 
     22 CA         20.1558  -23.7085  -44.0246 C.3       2 UNK         0.0481 
     23 CB         20.3744  -22.6117  -45.0848 C.3       2 UNK        -0.1831 
     24 N          18.7790  -24.2323  -44.0357 N.am      2 UNK        -0.4498 
     25 C          18.1279  -24.8355  -45.0429 C.2       1 UNK         0.5027 
     26 O          18.5912  -24.9663  -46.1754 O.2       1 UNK        -0.4969 
     27 C          21.8203  -27.9272  -44.1312 C.2       3 UNK         0.5005 
     28 O          22.7174  -28.7488  -43.9445 O.2       3 UNK        -0.5279 
     29 N          20.7541  -27.8103  -43.3251 N.am      4 UNK        -0.4463 
     30 CA         20.5568  -28.5508  -42.0763 C.3       4 UNK         0.0283 
     31 CB         19.1628  -28.2431  -41.5099 C.3       4 UNK        -0.1875 
     32 C          21.6367  -28.2899  -41.0066 C.2       4 UNK         0.4949 
     33 O          21.7835  -29.1057  -40.0996 O.2       4 UNK        -0.5039 
     34 N          22.3705  -27.1730  -41.1177 N.am      5 UNK        -0.4663 
     35 CA         23.5009  -26.8424  -40.2479 C.3       5 UNK         0.0242 
     36 CB         23.6211  -25.3116  -40.1563 C.3       5 UNK        -0.1982 
     37 C          24.8324  -27.4569  -40.7227 C.2       5 UNK         0.5017 
     38 O          25.8014  -27.4181  -39.9636 O.2       5 UNK        -0.5012 
     39 N          24.8864  -27.9833  -41.9567 N.am      6 UNK        -0.4439 
     40 CA         26.1103  -28.5067  -42.5761 C.3       6 UNK         0.0297 
     41 CB         26.0126  -28.3481  -44.1032 C.3       6 UNK        -0.2006 
     42 C          26.4165  -29.9699  -42.2051 C.2       6 UNK         0.4892 
     43 O          27.5079  -30.4469  -42.5202 O.2       6 UNK        -0.5089 
     44 N          25.4694  -30.6597  -41.5614 N.am      7 UNK        -0.4243 
     45 CA         25.5691  -32.0504  -41.1279 C.3       7 UNK         0.0196 
     46 CB         25.1733  -32.9815  -42.2905 C.3       7 UNK        -0.2007 
     47 C          24.6672  -32.2515  -39.9041 C.2       7 UNK         0.5020 
     48 O          23.9479  -31.3308  -39.5115 O.2       7 UNK        -0.5147 
     49 N          24.6934  -33.4576  -39.3244 N.am      8 UNK        -0.4734 
     50 CA         23.8650  -33.8621  -38.1808 C.3       8 UNK         0.0238 
     51 CB         24.5559  -35.0330  -37.4560 C.3       8 UNK        -0.1912 
     52 C          22.4128  -34.1908  -38.5927 C.2       8 UNK         0.5038 
     53 O          21.9230  -35.2868  -38.3112 O.2       8 UNK        -0.5046 
     54 N          21.7634  -33.2450  -39.2787 N.am      9 UNK        -0.4200 
     55 CA         20.3766  -33.3247  -39.7534 C.3       9 UNK         0.0839 
     56 C          19.3504  -33.2693  -38.5902 C.2       9 UNK         0.5513 
     57 N          18.2168  -33.9399  -38.7349 N.am      9 UNK        -0.7519 
     58 O          19.5513  -32.5959  -37.5823 O.2       9 UNK        -0.4960 
     59 C59        20.0832  -32.2223  -40.8025 C.3       10 UNK        -0.0876 
     60 S60        21.1525  -32.3816  -42.2751 S.3       10 UNK        -0.2414 
     61 C61        19.9617  -32.8849  -43.5532 C.3       10 UNK         0.0169 
     62 H62        15.0916  -21.6252  -43.0277 H         1 UNK         0.0903 
     63 H63        13.6230  -22.4075  -43.6178 H         1 UNK         0.0903 
     64 H64        14.5335  -23.1272  -42.2887 H         1 UNK         0.0903 
     65 H65        15.7051  -24.9072  -42.9572 H         1 UNK         0.3096 
     66 H66        16.2370  -25.5375  -45.6838 H         1 UNK         0.1121 
     67 H67        17.8496  -27.3059  -44.3739 H         1 UNK         0.0849 
     68 H68        16.9278  -26.7856  -42.9972 H         1 UNK         0.0849 
     69 H69        16.2060  -29.5011  -42.8404 H         1 UNK         0.0865 
     70 H70        15.3667  -30.3284  -44.1250 H         1 UNK         0.0865 
     71 H71        17.6362  -31.5898  -42.9140 H         1 UNK         0.1346 
     72 H72        20.8664  -31.5352  -45.7299 H         1 UNK         0.1412 
     73 H73        17.5767  -28.8478  -46.2160 H         1 UNK         0.1426 
     74 H74        20.8685  -30.0390  -47.5874 H         1 UNK         0.0716 
     75 H75        19.2545  -29.7849  -48.1938 H         1 UNK         0.0716 
     76 H76        22.3790  -28.4975  -46.7174 H         1 UNK         0.0695 
     77 H77        22.3621  -26.9056  -47.3969 H         1 UNK         0.0695 
     78 H78        23.0040  -26.5482  -45.1873 H         1 UNK         0.0983 
     79 H79        20.3633  -25.5963  -45.7666 H         1 UNK         0.3095 
     80 H80        20.2744  -23.2352  -43.0485 H         1 UNK         0.0454 
     81 H81        20.3168  -22.9992  -46.1021 H         1 UNK         0.0851 
     82 H82        19.6361  -21.8157  -44.9883 H         1 UNK         0.0851 
     83 H83        21.3587  -22.1556  -44.9714 H         1 UNK         0.0851 
     84 H84        18.2945  -24.1742  -43.1504 H         1 UNK         0.2976 
     85 H85        20.0735  -27.1024  -43.5497 H         1 UNK         0.3116 
     86 H86        20.5958  -29.6102  -42.3253 H         1 UNK         0.0646 
     87 H87        18.9971  -28.7726  -40.5704 H         1 UNK         0.0847 
     88 H88        18.3823  -28.5663  -42.1948 H         1 UNK         0.0847 
     89 H89        19.0291  -27.1790  -41.3123 H         1 UNK         0.0847 
     90 H90        22.1805  -26.5273  -41.8761 H         1 UNK         0.3040 
     91 H91        23.3081  -27.2269  -39.2435 H         1 UNK         0.1015 
     92 H92        22.6967  -24.8612  -39.7937 H         1 UNK         0.0786 
     93 H93        23.8545  -24.8662  -41.1243 H         1 UNK         0.0786 
     94 H94        24.4141  -25.0218  -39.4654 H         1 UNK         0.0786 
     95 H95        24.0369  -28.0494  -42.5085 H         1 UNK         0.3172 
     96 H96        26.9570  -27.9055  -42.2381 H         1 UNK         0.0595 
     97 H97        26.9582  -28.6074  -44.5814 H         1 UNK         0.0839 
     98 H98        25.7789  -27.3215  -44.3857 H         1 UNK         0.0839 
     99 H99        25.2495  -28.9991  -44.5301 H         1 UNK         0.0839 
    100 H100       24.6240  -30.1876  -41.2641 H         1 UNK         0.2998 
    101 H101       26.5954  -32.2620  -40.8204 H         1 UNK         0.0822 
    102 H102       25.8221  -32.8341  -43.1540 H         1 UNK         0.0787 
    103 H103       25.2515  -34.0317  -42.0087 H         1 UNK         0.0787 
    104 H104       24.1470  -32.8041  -42.6132 H         1 UNK         0.0787 
    105 H105       25.2860  -34.1727  -39.7222 H         1 UNK         0.3055 
    106 H106       23.8082  -33.0280  -37.4773 H         1 UNK         0.1106 
    107 H107       23.9944  -35.3304  -36.5692 H         1 UNK         0.0828 
    108 H108       24.6421  -35.9112  -38.0969 H         1 UNK         0.0828 
    109 H109       25.5574  -34.7592  -37.1237 H         1 UNK         0.0828 
    110 H110       22.2524  -32.3745  -39.4612 H         1 UNK         0.2931 
    111 H111       20.2630  -34.2929  -40.2458 H         1 UNK         0.0412 
    112 H112       17.5295  -33.9064  -37.9978 H         1 UNK         0.3472 
    113 H113       18.0400  -34.4930  -39.5584 H         1 UNK         0.3472 
    114 H114       19.0367  -32.2518  -41.1080 H         1 UNK         0.0970 
    115 H115       20.2371  -31.2346  -40.3665 H         1 UNK         0.0970 
    116 H116       19.2007  -33.5370  -43.1219 H         1 UNK         0.0612 
    117 H117       20.4891  -33.4923  -44.2902 H         1 UNK         0.0612 
@<TRIPOS>BOND
     1    1    2 1    
     2    1   62 1    
     3    1   63 1    
     4    1   64 1    
     5    2    3 2    
     6    2    4 am   BACKBONE|DICT|INTERRES
     7    4    5 1    
     8    4   65 1    
     9    5    6 1    
    10    5   25 1    
    11    5   66 1    
    12    6    7 1    
    13    6   67 1    
    14    6   68 1    
    15    7    8 1    
    16    8    9 1    
    17    8   69 1    
    18    8   70 1    
    19    9   10 ar   
    20    9   14 ar   
    21   10   11 ar   
    22   10   71 1    
    23   11   12 ar   
    24   11   61 1    
    25   12   13 ar   
    26   12   72 1    
    27   13   14 ar   
    28   13   15 1    
    29   14   73 1    
    30   15   16 1    
    31   15   74 1    
    32   15   75 1    
    33   16   17 1    
    34   17   18 1    
    35   17   76 1    
    36   17   77 1    
    37   18   19 1    
    38   18   27 1    
    39   18   78 1    
    40   19   20 am   BACKBONE|DICT|INTERRES
    41   19   79 1    
    42   20   21 2    
    43   20   22 1    
    44   22   23 1    
    45   22   24 1    
    46   22   80 1    
    47   23   81 1    
    48   23   82 1    
    49   23   83 1    
    50   24   25 am   BACKBONE|DICT|INTERRES
    51   24   84 1    
    52   25   26 2    
    53   27   28 2    
    54   27   29 am   BACKBONE|DICT|INTERRES
    55   29   30 1    
    56   29   85 1    
    57   30   31 1    
    58   30   32 1    
    59   30   86 1    
    60   31   87 1    
    61   31   88 1    
    62   31   89 1    
    63   32   33 2    
    64   32   34 am   BACKBONE|DICT|INTERRES
    65   34   35 1    
    66   34   90 1    
    67   35   36 1    
    68   35   37 1    
    69   35   91 1    
    70   36   92 1    
    71   36   93 1    
    72   36   94 1    
    73   37   38 2    
    74   37   39 am   BACKBONE|DICT|INTERRES
    75   39   40 1    
    76   39   95 1    
    77   40   41 1    
    78   40   42 1    
    79   40   96 1    
    80   41   97 1    
    81   41   98 1    
    82   41   99 1    
    83   42   43 2    
    84   42   44 am   BACKBONE|DICT|INTERRES
    85   44   45 1    
    86   44  100 1    
    87   45   46 1    
    88   45   47 1    
    89   45  101 1    
    90   46  102 1    
    91   46  103 1    
    92   46  104 1    
    93   47   48 2    
    94   47   49 am   BACKBONE|DICT|INTERRES
    95   49   50 1    
    96   49  105 1    
    97   50   51 1    
    98   50   52 1    
    99   50  106 1    
   100   51  107 1    
   101   51  108 1    
   102   51  109 1    
   103   52   53 2    
   104   52   54 am   BACKBONE|DICT|INTERRES
   105   54   55 1    
   106   54  110 1    
   107   55   56 1    
   108   55   59 1    
   109   55  111 1    
   110   56   57 am   BACKBONE|DICT|INTERRES
   111   56   58 2    
   112   57  112 1    
   113   57  113 1    
   114   59   60 1    
   115   59  114 1    
   116   59  115 1    
   117   60   61 1    
   118   61  116 1    
   119   61  117 1    
@<TRIPOS>SUBSTRUCTURE
     1 UNK         1 GROUP             0       ****    0 ROOT    
