@<TRIPOS>MOLECULE
3R8
117   119    1
SMALL
USER_CHARGES


@<TRIPOS>ATOM
      1 CA         13.8502  -24.2184  -41.5254 C.3       0 UNK        -0.2013 
      2 C          14.7351  -24.5607  -42.7146 C.2       0 UNK         0.4866 
      3 O          15.5003  -23.7118  -43.1721 O.2       0 UNK        -0.5176 
      4 N          14.6352  -25.7976  -43.2205 N.am      1 UNK        -0.4884 
      5 CA         15.4260  -26.3049  -44.3509 C.3       1 UNK         0.0853 
      6 C6         14.7912  -27.5936  -44.9365 C.3       10 UNK        -0.0849 
      7 S7         15.2726  -27.9018  -46.6703 S.3       10 UNK        -0.2776 
      8 C8         15.9186  -29.6059  -46.6000 C.3       10 UNK         0.0316 
      9 C9         17.2964  -29.6968  -45.9544 C.ar      10 UNK        -0.0863 
     10 C10        17.4546  -30.2915  -44.6993 C.ar      10 UNK        -0.1009 
     11 C11        18.7259  -30.4330  -44.1330 C.ar      10 UNK        -0.0712 
     12 C12        19.8469  -29.9640  -44.8266 C.ar      10 UNK        -0.0894 
     13 C13        19.7002  -29.3551  -46.0772 C.ar      10 UNK        -0.0745 
     14 C14        18.4239  -29.2286  -46.6357 C.ar      10 UNK        -0.0972 
     15 C15        20.9149  -28.8622  -46.8511 C.3       10 UNK         0.0209 
     16 S16        21.2414  -27.0919  -46.5649 S.3       10 UNK        -0.2568 
     17 C17        22.3172  -27.1246  -45.0925 C.3       10 UNK        -0.0983 
     18 CA         21.7218  -26.3587  -43.8851 C.3       3 UNK         0.0876 
     19 N          20.4565  -26.9405  -43.4409 N.am      3 UNK        -0.4424 
     20 C          19.6458  -26.4258  -42.5088 C.2       2 UNK         0.4918 
     21 O          19.8180  -25.3358  -41.9594 O.2       2 UNK        -0.4875 
     22 CA         18.4366  -27.2956  -42.1254 C.3       2 UNK         0.0481 
     23 CB         18.2866  -27.3931  -40.5977 C.3       2 UNK        -0.1831 
     24 N          17.1608  -26.8721  -42.7093 N.am      2 UNK        -0.4498 
     25 C          16.9096  -26.5266  -43.9836 C.2       1 UNK         0.5027 
     26 O          17.7672  -26.3878  -44.8546 O.2       1 UNK        -0.4969 
     27 C          22.7322  -26.3612  -42.7240 C.2       3 UNK         0.5005 
     28 O          22.9765  -27.4254  -42.1499 O.2       3 UNK        -0.5279 
     29 N          23.3344  -25.2020  -42.4241 N.am      4 UNK        -0.4463 
     30 CA         24.3077  -25.0251  -41.3369 C.3       4 UNK         0.0283 
     31 CB         24.6542  -23.5341  -41.1986 C.3       4 UNK        -0.1875 
     32 C          25.5907  -25.8617  -41.4978 C.2       4 UNK         0.4949 
     33 O          26.2026  -26.2282  -40.4951 O.2       4 UNK        -0.5039 
     34 N          25.9583  -26.1674  -42.7501 N.am      5 UNK        -0.4663 
     35 CA         27.0704  -27.0544  -43.0984 C.3       5 UNK         0.0242 
     36 CB         27.4218  -26.8593  -44.5824 C.3       5 UNK        -0.1982 
     37 C          26.7795  -28.5386  -42.8068 C.2       5 UNK         0.5017 
     38 O          27.7253  -29.2991  -42.5979 O.2       5 UNK        -0.5012 
     39 N          25.4953  -28.9248  -42.8051 N.am      6 UNK        -0.4439 
     40 CA         25.0380  -30.2749  -42.4764 C.3       6 UNK         0.0297 
     41 CB         23.8013  -30.6318  -43.3202 C.3       6 UNK        -0.2006 
     42 C          24.7206  -30.3897  -40.9804 C.2       6 UNK         0.4892 
     43 O          25.1556  -31.3510  -40.3457 O.2       6 UNK        -0.5089 
     44 N          23.9582  -29.4162  -40.4567 N.am      7 UNK        -0.4243 
     45 CA         23.4346  -29.2726  -39.0908 C.3       7 UNK         0.0196 
     46 CB         24.5700  -29.1601  -38.0552 C.3       7 UNK        -0.2007 
     47 C          22.4117  -30.3538  -38.6964 C.2       7 UNK         0.5020 
     48 O          21.3140  -30.0163  -38.2537 O.2       7 UNK        -0.5147 
     49 N          22.7775  -31.6238  -38.8827 N.am      8 UNK        -0.4734 
     50 CA         21.9472  -32.8039  -38.6823 C.3       8 UNK         0.0238 
     51 CB         22.3811  -33.5206  -37.3902 C.3       8 UNK        -0.1912 
     52 C          22.1113  -33.6818  -39.9280 C.2       8 UNK         0.5038 
     53 O          23.0044  -34.5299  -39.9685 O.2       8 UNK        -0.5046 
     54 N          21.2789  -33.4201  -40.9422 N.am      9 UNK        -0.4200 
     55 CA         21.2629  -34.1322  -42.2314 C.3       9 UNK         0.0839 
     56 C          20.7721  -35.6106  -42.1766 C.2       9 UNK         0.5513 
     57 N          20.1725  -36.0766  -41.0873 N.am      9 UNK        -0.7519 
     58 O          20.9510  -36.3506  -43.1407 O.2       9 UNK        -0.4960 
     59 C59        20.5204  -33.3156  -43.3240 C.3       10 UNK        -0.0876 
     60 S60        18.8013  -32.8930  -42.8661 S.3       10 UNK        -0.2414 
     61 C61        18.8725  -31.0788  -42.7627 C.3       10 UNK         0.0169 
     62 H62        13.2014  -23.3778  -41.7705 H         1 UNK         0.0903 
     63 H63        13.2203  -25.0570  -41.2292 H         1 UNK         0.0903 
     64 H64        14.4639  -23.9368  -40.6701 H         1 UNK         0.0903 
     65 H65        13.9763  -26.4469  -42.8129 H         1 UNK         0.3096 
     66 H66        15.4047  -25.5334  -45.1248 H         1 UNK         0.1121 
     67 H67        13.7035  -27.5042  -44.9353 H         1 UNK         0.0849 
     68 H68        15.0145  -28.4625  -44.3143 H         1 UNK         0.0849 
     69 H69        15.2013  -30.2455  -46.0831 H         1 UNK         0.0865 
     70 H70        15.9829  -29.9937  -47.6178 H         1 UNK         0.0865 
     71 H71        16.5901  -30.6621  -44.1655 H         1 UNK         0.1346 
     72 H72        20.8324  -30.0767  -44.3974 H         1 UNK         0.1412 
     73 H73        18.3063  -28.7658  -47.6062 H         1 UNK         0.1426 
     74 H74        21.7973  -29.4563  -46.6085 H         1 UNK         0.0716 
     75 H75        20.7452  -29.0101  -47.9187 H         1 UNK         0.0716 
     76 H76        23.2720  -26.6842  -45.3865 H         1 UNK         0.0695 
     77 H77        22.5368  -28.1587  -44.8218 H         1 UNK         0.0695 
     78 H78        21.5253  -25.3272  -44.1853 H         1 UNK         0.0983 
     79 H79        20.1844  -27.7990  -43.8968 H         1 UNK         0.3095 
     80 H80        18.6249  -28.3023  -42.4904 H         1 UNK         0.0454 
     81 H81        18.0146  -26.4332  -40.1569 H         1 UNK         0.0851 
     82 H82        17.5254  -28.1209  -40.3166 H         1 UNK         0.0851 
     83 H83        19.2214  -27.7113  -40.1332 H         1 UNK         0.0851 
     84 H84        16.3662  -26.9009  -42.0881 H         1 UNK         0.2976 
     85 H85        23.0820  -24.3716  -42.9419 H         1 UNK         0.3116 
     86 H86        23.8264  -25.3499  -40.4118 H         1 UNK         0.0646 
     87 H87        23.7677  -22.9373  -40.9835 H         1 UNK         0.0847 
     88 H88        25.3565  -23.3714  -40.3795 H         1 UNK         0.0847 
     89 H89        25.1153  -23.1394  -42.1048 H         1 UNK         0.0847 
     90 H90        25.4111  -25.7959  -43.5128 H         1 UNK         0.3040 
     91 H91        27.9382  -26.7687  -42.4991 H         1 UNK         0.1015 
     92 H92        26.5872  -27.1210  -45.2343 H         1 UNK         0.0786 
     93 H93        28.2673  -27.4866  -44.8685 H         1 UNK         0.0786 
     94 H94        27.7024  -25.8268  -44.7918 H         1 UNK         0.0786 
     95 H95        24.7792  -28.2164  -42.9068 H         1 UNK         0.3172 
     96 H96        25.8214  -30.9978  -42.7145 H         1 UNK         0.0595 
     97 H97        22.9569  -29.9758  -43.1083 H         1 UNK         0.0839 
     98 H98        23.4783  -31.6533  -43.1156 H         1 UNK         0.0839 
     99 H99        24.0169  -30.5680  -44.3868 H         1 UNK         0.0839 
    100 H100       23.6270  -28.6951  -41.0980 H         1 UNK         0.2998 
    101 H101       22.8986  -28.3217  -39.0886 H         1 UNK         0.0822 
    102 H102       24.1696  -28.9563  -37.0613 H         1 UNK         0.0787 
    103 H103       25.1563  -30.0766  -37.9860 H         1 UNK         0.0787 
    104 H104       25.2504  -28.3456  -38.3052 H         1 UNK         0.0787 
    105 H105       23.6914  -31.7849  -39.3049 H         1 UNK         0.3055 
    106 H106       20.8943  -32.5275  -38.5885 H         1 UNK         0.1106 
    107 H107       22.2177  -32.8896  -36.5165 H         1 UNK         0.0828 
    108 H108       21.8086  -34.4370  -37.2414 H         1 UNK         0.0828 
    109 H109       23.4371  -33.7933  -37.4105 H         1 UNK         0.0828 
    110 H110       20.5689  -32.7124  -40.8276 H         1 UNK         0.2931 
    111 H111       22.3041  -34.1960  -42.5541 H         1 UNK         0.0412 
    112 H112       19.8650  -37.0364  -41.0649 H         1 UNK         0.3472 
    113 H113       20.0136  -35.4770  -40.2942 H         1 UNK         0.3472 
    114 H114       20.5034  -33.8584  -44.2710 H         1 UNK         0.0970 
    115 H115       21.0773  -32.4021  -43.5320 H         1 UNK         0.0970 
    116 H116       18.0621  -30.7383  -42.1162 H         1 UNK         0.0612 
    117 H117       19.7981  -30.7648  -42.2772 H         1 UNK         0.0612 
@<TRIPOS>BOND
     1    1    2 1    
     2    1   62 1    
     3    1   63 1    
     4    1   64 1    
     5    2    3 2    
     6    2    4 am   BACKBONE|DICT|INTERRES
     7    4    5 1    
     8    4   65 1    
     9    5    6 1    
    10    5   25 1    
    11    5   66 1    
    12    6    7 1    
    13    6   67 1    
    14    6   68 1    
    15    7    8 1    
    16    8    9 1    
    17    8   69 1    
    18    8   70 1    
    19    9   10 ar   
    20    9   14 ar   
    21   10   11 ar   
    22   10   71 1    
    23   11   12 ar   
    24   11   61 1    
    25   12   13 ar   
    26   12   72 1    
    27   13   14 ar   
    28   13   15 1    
    29   14   73 1    
    30   15   16 1    
    31   15   74 1    
    32   15   75 1    
    33   16   17 1    
    34   17   18 1    
    35   17   76 1    
    36   17   77 1    
    37   18   19 1    
    38   18   27 1    
    39   18   78 1    
    40   19   20 am   BACKBONE|DICT|INTERRES
    41   19   79 1    
    42   20   21 2    
    43   20   22 1    
    44   22   23 1    
    45   22   24 1    
    46   22   80 1    
    47   23   81 1    
    48   23   82 1    
    49   23   83 1    
    50   24   25 am   BACKBONE|DICT|INTERRES
    51   24   84 1    
    52   25   26 2    
    53   27   28 2    
    54   27   29 am   BACKBONE|DICT|INTERRES
    55   29   30 1    
    56   29   85 1    
    57   30   31 1    
    58   30   32 1    
    59   30   86 1    
    60   31   87 1    
    61   31   88 1    
    62   31   89 1    
    63   32   33 2    
    64   32   34 am   BACKBONE|DICT|INTERRES
    65   34   35 1    
    66   34   90 1    
    67   35   36 1    
    68   35   37 1    
    69   35   91 1    
    70   36   92 1    
    71   36   93 1    
    72   36   94 1    
    73   37   38 2    
    74   37   39 am   BACKBONE|DICT|INTERRES
    75   39   40 1    
    76   39   95 1    
    77   40   41 1    
    78   40   42 1    
    79   40   96 1    
    80   41   97 1    
    81   41   98 1    
    82   41   99 1    
    83   42   43 2    
    84   42   44 am   BACKBONE|DICT|INTERRES
    85   44   45 1    
    86   44  100 1    
    87   45   46 1    
    88   45   47 1    
    89   45  101 1    
    90   46  102 1    
    91   46  103 1    
    92   46  104 1    
    93   47   48 2    
    94   47   49 am   BACKBONE|DICT|INTERRES
    95   49   50 1    
    96   49  105 1    
    97   50   51 1    
    98   50   52 1    
    99   50  106 1    
   100   51  107 1    
   101   51  108 1    
   102   51  109 1    
   103   52   53 2    
   104   52   54 am   BACKBONE|DICT|INTERRES
   105   54   55 1    
   106   54  110 1    
   107   55   56 1    
   108   55   59 1    
   109   55  111 1    
   110   56   57 am   BACKBONE|DICT|INTERRES
   111   56   58 2    
   112   57  112 1    
   113   57  113 1    
   114   59   60 1    
   115   59  114 1    
   116   59  115 1    
   117   60   61 1    
   118   61  116 1    
   119   61  117 1    
@<TRIPOS>SUBSTRUCTURE
     1 UNK         1 GROUP             0       ****    0 ROOT    
