@<TRIPOS>MOLECULE
3R8
117   119    1
SMALL
USER_CHARGES


@<TRIPOS>ATOM
      1 CA         14.7040  -22.4609  -46.0071 C.3       0 UNK        -0.2013 
      2 C          16.1619  -22.8817  -45.8944 C.2       0 UNK         0.4866 
      3 O          17.0073  -22.0664  -45.5232 O.2       0 UNK        -0.5176 
      4 N          16.4643  -24.1451  -46.2194 N.am      1 UNK        -0.4884 
      5 CA         17.8001  -24.7387  -46.0991 C.3       1 UNK         0.0853 
      6 C6         17.9356  -25.9884  -47.0042 C.3       10 UNK        -0.0849 
      7 S7         19.6707  -26.3295  -47.4575 S.3       10 UNK        -0.2776 
      8 C8         19.5778  -28.0696  -47.9806 C.3       10 UNK         0.0316 
      9 C9         19.4723  -29.0239  -46.7990 C.ar      10 UNK        -0.0863 
     10 C10        20.6218  -29.4059  -46.0995 C.ar      10 UNK        -0.1009 
     11 C11        20.5511  -30.3293  -45.0509 C.ar      10 UNK        -0.0712 
     12 C12        19.3037  -30.8686  -44.7136 C.ar      10 UNK        -0.0894 
     13 C13        18.1381  -30.4547  -45.3637 C.ar      10 UNK        -0.0745 
     14 C14        18.2320  -29.5449  -46.4196 C.ar      10 UNK        -0.0972 
     15 C15        16.7764  -30.9885  -44.9293 C.3       10 UNK         0.0209 
     16 S16        16.5018  -30.8847  -43.1246 S.3       10 UNK        -0.2568 
     17 C17        16.6949  -29.0977  -42.7966 C.3       10 UNK        -0.0983 
     18 CA         18.0685  -28.7553  -42.1543 C.3       3 UNK         0.0876 
     19 N          18.5199  -27.4141  -42.5512 N.am      3 UNK        -0.4424 
     20 C          19.7838  -26.9739  -42.5855 C.2       2 UNK         0.4918 
     21 O          20.7432  -27.6669  -42.2388 O.2       2 UNK        -0.4875 
     22 CA         20.0009  -25.5091  -43.0174 C.3       2 UNK         0.0481 
     23 CB         21.4902  -25.1197  -43.0237 C.3       2 UNK        -0.1831 
     24 N          19.4335  -25.2066  -44.3334 N.am      2 UNK        -0.4498 
     25 C          18.1351  -25.0597  -44.6256 C.2       1 UNK         0.5027 
     26 O          17.2310  -25.1996  -43.7955 O.2       1 UNK        -0.4969 
     27 C          18.1364  -28.9863  -40.6216 C.2       3 UNK         0.5005 
     28 O          17.2179  -29.5499  -40.0243 O.2       3 UNK        -0.5279 
     29 N          19.2354  -28.5265  -40.0168 N.am      4 UNK        -0.4463 
     30 CA         19.5971  -28.6249  -38.6049 C.3       4 UNK         0.0283 
     31 CB         18.7492  -27.6430  -37.7710 C.3       4 UNK        -0.1875 
     32 C          21.1055  -28.3832  -38.3887 C.2       4 UNK         0.4949 
     33 O          21.5384  -28.3388  -37.2367 O.2       4 UNK        -0.5039 
     34 N          21.8853  -28.2155  -39.4679 N.am      5 UNK        -0.4663 
     35 CA         23.3187  -27.9363  -39.4438 C.3       5 UNK         0.0242 
     36 CB         23.5669  -26.4436  -39.1277 C.3       5 UNK        -0.1982 
     37 C          23.9172  -28.4115  -40.7774 C.2       5 UNK         0.5017 
     38 O          23.5374  -29.4872  -41.2446 O.2       5 UNK        -0.5012 
     39 N          24.8295  -27.6195  -41.3624 N.am      6 UNK        -0.4439 
     40 CA         25.5194  -27.8463  -42.6386 C.3       6 UNK         0.0297 
     41 CB         24.5573  -27.6122  -43.8247 C.3       6 UNK        -0.2006 
     42 C          26.2435  -29.2053  -42.6646 C.2       6 UNK         0.4892 
     43 O          27.1978  -29.3843  -41.9064 O.2       6 UNK        -0.5089 
     44 N          25.7669  -30.1491  -43.4870 N.am      7 UNK        -0.4243 
     45 CA         26.2786  -31.5179  -43.6199 C.3       7 UNK         0.0196 
     46 CB         25.8596  -32.0659  -44.9976 C.3       7 UNK        -0.2007 
     47 C          25.8481  -32.4463  -42.4608 C.2       7 UNK         0.5020 
     48 O          25.4960  -33.6017  -42.7027 O.2       7 UNK        -0.5147 
     49 N          25.8890  -31.9257  -41.2255 N.am      8 UNK        -0.4734 
     50 CA         25.5068  -32.5654  -39.9600 C.3       8 UNK         0.0238 
     51 CB         26.5105  -33.6799  -39.5936 C.3       8 UNK        -0.1912 
     52 C          24.0408  -33.0453  -39.9362 C.2       8 UNK         0.5038 
     53 O          23.7568  -34.1249  -39.4128 O.2       8 UNK        -0.5046 
     54 N          23.1367  -32.2346  -40.5007 N.am      9 UNK        -0.4200 
     55 CA         21.6964  -32.5208  -40.5953 C.3       9 UNK         0.0839 
     56 C          20.9002  -32.2838  -39.2786 C.2       9 UNK         0.5513 
     57 N          21.5111  -31.8075  -38.2007 N.am      9 UNK        -0.7519 
     58 O          19.7034  -32.5524  -39.2298 O.2       9 UNK        -0.4960 
     59 C59        21.0428  -31.7910  -41.7977 C.3       10 UNK        -0.0876 
     60 S60        21.8078  -32.2693  -43.3896 S.3       10 UNK        -0.2414 
     61 C61        21.8349  -30.6843  -44.2967 C.3       10 UNK         0.0169 
     62 H62        14.0704  -23.2740  -46.3610 H         1 UNK         0.0903 
     63 H63        14.3309  -22.1390  -45.0352 H         1 UNK         0.0903 
     64 H64        14.6064  -21.6279  -46.7028 H         1 UNK         0.0903 
     65 H65        15.7225  -24.7791  -46.4811 H         1 UNK         0.3096 
     66 H66        18.5147  -23.9858  -46.4417 H         1 UNK         0.1121 
     67 H67        17.4809  -26.8611  -46.5336 H         1 UNK         0.0849 
     68 H68        17.3939  -25.8365  -47.9395 H         1 UNK         0.0849 
     69 H69        18.7368  -28.2028  -48.6632 H         1 UNK         0.0865 
     70 H70        20.4722  -28.3091  -48.5579 H         1 UNK         0.0865 
     71 H71        21.5780  -28.9841  -46.3785 H         1 UNK         0.1346 
     72 H72        19.2149  -31.5881  -43.9155 H         1 UNK         0.1412 
     73 H73        17.3385  -29.2438  -46.9492 H         1 UNK         0.1426 
     74 H74        16.6937  -32.0312  -45.2381 H         1 UNK         0.0716 
     75 H75        15.9711  -30.4521  -45.4336 H         1 UNK         0.0716 
     76 H76        15.8669  -28.7528  -42.1748 H         1 UNK         0.0695 
     77 H77        16.5796  -28.5724  -43.7464 H         1 UNK         0.0695 
     78 H78        18.8053  -29.4450  -42.5643 H         1 UNK         0.0983 
     79 H79        17.7978  -26.7570  -42.8333 H         1 UNK         0.3095 
     80 H80        19.4995  -24.8831  -42.2767 H         1 UNK         0.0454 
     81 H81        22.0472  -25.6945  -43.7635 H         1 UNK         0.0851 
     82 H82        21.9513  -25.3026  -42.0525 H         1 UNK         0.0851 
     83 H83        21.6246  -24.0617  -43.2486 H         1 UNK         0.0851 
     84 H84        20.0941  -25.1536  -45.0970 H         1 UNK         0.2976 
     85 H85        19.9058  -28.0615  -40.6199 H         1 UNK         0.3116 
     86 H86        19.3877  -29.6424  -38.2697 H         1 UNK         0.0646 
     87 H87        18.9162  -26.6101  -38.0781 H         1 UNK         0.0847 
     88 H88        18.9941  -27.7126  -36.7105 H         1 UNK         0.0847 
     89 H89        17.6837  -27.8524  -37.8645 H         1 UNK         0.0847 
     90 H90        21.5191  -28.3446  -40.4037 H         1 UNK         0.3040 
     91 H91        23.7824  -28.5433  -38.6631 H         1 UNK         0.1015 
     92 H92        23.1003  -26.1571  -38.1850 H         1 UNK         0.0786 
     93 H93        23.1624  -25.7924  -39.9034 H         1 UNK         0.0786 
     94 H94        24.6306  -26.2270  -39.0238 H         1 UNK         0.0786 
     95 H95        25.0932  -26.7759  -40.8732 H         1 UNK         0.3172 
     96 H96        26.3044  -27.0915  -42.7055 H         1 UNK         0.0595 
     97 H97        23.6626  -28.2302  -43.7635 H         1 UNK         0.0839 
     98 H98        25.0429  -27.8121  -44.7809 H         1 UNK         0.0839 
     99 H99        24.2331  -26.5728  -43.8516 H         1 UNK         0.0839 
    100 H100       24.9382  -29.9300  -44.0190 H         1 UNK         0.2998 
    101 H101       27.3697  -31.4779  -43.5980 H         1 UNK         0.0822 
    102 H102       26.1889  -31.4109  -45.8045 H         1 UNK         0.0787 
    103 H103       26.3016  -33.0462  -45.1809 H         1 UNK         0.0787 
    104 H104       24.7772  -32.1774  -45.0732 H         1 UNK         0.0787 
    105 H105       26.2195  -30.9682  -41.1565 H         1 UNK         0.3055 
    106 H106       25.5794  -31.7934  -39.1923 H         1 UNK         0.1106 
    107 H107       26.3095  -34.0768  -38.5977 H         1 UNK         0.0828 
    108 H108       26.4597  -34.5155  -40.2924 H         1 UNK         0.0828 
    109 H109       27.5346  -33.3069  -39.5905 H         1 UNK         0.0828 
    110 H110       23.4350  -31.3450  -40.8926 H         1 UNK         0.2931 
    111 H111       21.5966  -33.5901  -40.7922 H         1 UNK         0.0412 
    112 H112       22.4944  -31.5946  -38.2238 H         1 UNK         0.3472 
    113 H113       20.9861  -31.6789  -37.3505 H         1 UNK         0.3472 
    114 H114       19.9797  -32.0305  -41.8497 H         1 UNK         0.0970 
    115 H115       21.1058  -30.7100  -41.6615 H         1 UNK         0.0970 
    116 H116       22.6618  -30.7300  -45.0065 H         1 UNK         0.0612 
    117 H117       22.0683  -29.8771  -43.6029 H         1 UNK         0.0612 
@<TRIPOS>BOND
     1    1    2 1    
     2    1   62 1    
     3    1   63 1    
     4    1   64 1    
     5    2    3 2    
     6    2    4 am   BACKBONE|DICT|INTERRES
     7    4    5 1    
     8    4   65 1    
     9    5    6 1    
    10    5   25 1    
    11    5   66 1    
    12    6    7 1    
    13    6   67 1    
    14    6   68 1    
    15    7    8 1    
    16    8    9 1    
    17    8   69 1    
    18    8   70 1    
    19    9   10 ar   
    20    9   14 ar   
    21   10   11 ar   
    22   10   71 1    
    23   11   12 ar   
    24   11   61 1    
    25   12   13 ar   
    26   12   72 1    
    27   13   14 ar   
    28   13   15 1    
    29   14   73 1    
    30   15   16 1    
    31   15   74 1    
    32   15   75 1    
    33   16   17 1    
    34   17   18 1    
    35   17   76 1    
    36   17   77 1    
    37   18   19 1    
    38   18   27 1    
    39   18   78 1    
    40   19   20 am   BACKBONE|DICT|INTERRES
    41   19   79 1    
    42   20   21 2    
    43   20   22 1    
    44   22   23 1    
    45   22   24 1    
    46   22   80 1    
    47   23   81 1    
    48   23   82 1    
    49   23   83 1    
    50   24   25 am   BACKBONE|DICT|INTERRES
    51   24   84 1    
    52   25   26 2    
    53   27   28 2    
    54   27   29 am   BACKBONE|DICT|INTERRES
    55   29   30 1    
    56   29   85 1    
    57   30   31 1    
    58   30   32 1    
    59   30   86 1    
    60   31   87 1    
    61   31   88 1    
    62   31   89 1    
    63   32   33 2    
    64   32   34 am   BACKBONE|DICT|INTERRES
    65   34   35 1    
    66   34   90 1    
    67   35   36 1    
    68   35   37 1    
    69   35   91 1    
    70   36   92 1    
    71   36   93 1    
    72   36   94 1    
    73   37   38 2    
    74   37   39 am   BACKBONE|DICT|INTERRES
    75   39   40 1    
    76   39   95 1    
    77   40   41 1    
    78   40   42 1    
    79   40   96 1    
    80   41   97 1    
    81   41   98 1    
    82   41   99 1    
    83   42   43 2    
    84   42   44 am   BACKBONE|DICT|INTERRES
    85   44   45 1    
    86   44  100 1    
    87   45   46 1    
    88   45   47 1    
    89   45  101 1    
    90   46  102 1    
    91   46  103 1    
    92   46  104 1    
    93   47   48 2    
    94   47   49 am   BACKBONE|DICT|INTERRES
    95   49   50 1    
    96   49  105 1    
    97   50   51 1    
    98   50   52 1    
    99   50  106 1    
   100   51  107 1    
   101   51  108 1    
   102   51  109 1    
   103   52   53 2    
   104   52   54 am   BACKBONE|DICT|INTERRES
   105   54   55 1    
   106   54  110 1    
   107   55   56 1    
   108   55   59 1    
   109   55  111 1    
   110   56   57 am   BACKBONE|DICT|INTERRES
   111   56   58 2    
   112   57  112 1    
   113   57  113 1    
   114   59   60 1    
   115   59  114 1    
   116   59  115 1    
   117   60   61 1    
   118   61  116 1    
   119   61  117 1    
@<TRIPOS>SUBSTRUCTURE
     1 UNK         1 GROUP             0       ****    0 ROOT    
