@<TRIPOS>MOLECULE
3R8
117   119    1
SMALL
USER_CHARGES


@<TRIPOS>ATOM
      1 CA         19.7736  -23.8716  -39.3539 C.3       0 UNK        -0.2013 
      2 C          19.0291  -24.0395  -40.6701 C.2       0 UNK         0.4866 
      3 O          18.2935  -23.1410  -41.0803 O.2       0 UNK        -0.5176 
      4 N          19.2129  -25.1869  -41.3309 N.am      1 UNK        -0.4884 
      5 CA         18.6491  -25.5085  -42.6439 C.3       1 UNK         0.0853 
      6 C6         18.7319  -27.0273  -42.9398 C.3       10 UNK        -0.0849 
      7 S7         17.9169  -28.0593  -41.6734 S.3       10 UNK        -0.2776 
      8 C8         16.9404  -29.2144  -42.6893 C.3       10 UNK         0.0316 
      9 C9         17.8227  -30.1531  -43.5025 C.ar      10 UNK        -0.0863 
     10 C10        18.4454  -31.2435  -42.8862 C.ar      10 UNK        -0.1009 
     11 C11        19.2354  -32.1257  -43.6301 C.ar      10 UNK        -0.0712 
     12 C12        19.4097  -31.8988  -45.0001 C.ar      10 UNK        -0.0894 
     13 C13        18.8051  -30.8050  -45.6289 C.ar      10 UNK        -0.0745 
     14 C14        17.9987  -29.9458  -44.8745 C.ar      10 UNK        -0.0972 
     15 C15        19.0050  -30.5837  -47.1275 C.3       10 UNK         0.0209 
     16 S16        19.4133  -28.8609  -47.5789 S.3       10 UNK        -0.2568 
     17 C17        20.9826  -28.6126  -46.6827 C.3       10 UNK        -0.0983 
     18 CA         21.5284  -27.1597  -46.7743 C.3       3 UNK         0.0876 
     19 N          20.5052  -26.1803  -46.3878 N.am      3 UNK        -0.4424 
     20 C          20.4616  -24.8827  -46.7183 C.2       2 UNK         0.4918 
     21 O          21.3189  -24.3275  -47.4054 O.2       2 UNK        -0.4875 
     22 CA         19.2911  -24.0534  -46.1528 C.3       2 UNK         0.0481 
     23 CB         18.1846  -23.9063  -47.2088 C.3       2 UNK        -0.1831 
     24 N          18.7169  -24.6096  -44.9210 N.am      2 UNK        -0.4498 
     25 C          19.3787  -24.7339  -43.7609 C.2       1 UNK         0.5027 
     26 O          20.5376  -24.3407  -43.5937 O.2       1 UNK        -0.4969 
     27 C          22.8432  -26.9833  -45.9686 C.2       3 UNK         0.5005 
     28 O          23.4091  -27.9729  -45.5016 O.2       3 UNK        -0.5279 
     29 N          23.3021  -25.7311  -45.8113 N.am      4 UNK        -0.4463 
     30 CA         24.4782  -25.2883  -45.0506 C.3       4 UNK         0.0283 
     31 CB         25.7802  -25.7805  -45.7181 C.3       4 UNK        -0.1875 
     32 C          24.3887  -25.6649  -43.5586 C.2       4 UNK         0.4949 
     33 O          25.2455  -26.3886  -43.0470 O.2       4 UNK        -0.5039 
     34 N          23.3243  -25.1889  -42.8956 N.am      5 UNK        -0.4663 
     35 CA         22.9363  -25.4137  -41.4940 C.3       5 UNK         0.0242 
     36 CB         24.0392  -25.0095  -40.4963 C.3       5 UNK        -0.1982 
     37 C          22.4173  -26.8353  -41.2290 C.2       5 UNK         0.5017 
     38 O          21.3294  -26.9722  -40.6690 O.2       5 UNK        -0.5012 
     39 N          23.1739  -27.8475  -41.6729 N.am      6 UNK        -0.4439 
     40 CA         22.8636  -29.2808  -41.7733 C.3       6 UNK         0.0297 
     41 CB         21.6703  -29.4940  -42.7188 C.3       6 UNK        -0.2006 
     42 C          22.6297  -30.0256  -40.4456 C.2       6 UNK         0.4892 
     43 O          23.1909  -31.1069  -40.2569 O.2       6 UNK        -0.5089 
     44 N          21.7967  -29.4541  -39.5663 N.am      7 UNK        -0.4243 
     45 CA         21.2755  -30.0291  -38.3248 C.3       7 UNK         0.0196 
     46 CB         22.3945  -30.1416  -37.2631 C.3       7 UNK        -0.2007 
     47 C          20.5189  -31.3426  -38.6077 C.2       7 UNK         0.5020 
     48 O          19.5963  -31.3415  -39.4232 O.2       7 UNK        -0.5147 
     49 N          20.9142  -32.4356  -37.9454 N.am      8 UNK        -0.4734 
     50 CA         20.3495  -33.7729  -38.1436 C.3       8 UNK         0.0238 
     51 CB         20.4984  -34.5669  -36.8338 C.3       8 UNK        -0.1912 
     52 C          20.9880  -34.5425  -39.3165 C.2       8 UNK         0.5038 
     53 O          20.5024  -35.6282  -39.6367 O.2       8 UNK        -0.5046 
     54 N          22.0667  -34.0059  -39.9090 N.am      9 UNK        -0.4200 
     55 CA         22.9014  -34.6528  -40.9397 C.3       9 UNK         0.0839 
     56 C          23.6596  -35.9260  -40.4484 C.2       9 UNK         0.5513 
     57 N          23.8623  -36.1124  -39.1492 N.am      9 UNK        -0.7519 
     58 O          24.1022  -36.7442  -41.2511 O.2       9 UNK        -0.4960 
     59 C59        22.1548  -34.8733  -42.2883 C.3       10 UNK        -0.0876 
     60 S60        21.6911  -33.3012  -43.0837 S.3       10 UNK        -0.2414 
     61 C61        19.8763  -33.3372  -42.9618 C.3       10 UNK         0.0169 
     62 H62        19.0701  -23.6659  -38.5476 H         1 UNK         0.0903 
     63 H63        20.3388  -24.7656  -39.0897 H         1 UNK         0.0903 
     64 H64        20.4705  -23.0367  -39.4211 H         1 UNK         0.0903 
     65 H65        19.8505  -25.8880  -40.9593 H         1 UNK         0.3096 
     66 H66        17.5998  -25.2046  -42.6454 H         1 UNK         0.1121 
     67 H67        18.2815  -27.2444  -43.9090 H         1 UNK         0.0849 
     68 H68        19.7726  -27.3440  -43.0151 H         1 UNK         0.0849 
     69 H69        16.3001  -29.8038  -42.0312 H         1 UNK         0.0865 
     70 H70        16.2677  -28.6509  -43.3379 H         1 UNK         0.0865 
     71 H71        18.3100  -31.4048  -41.8250 H         1 UNK         0.1346 
     72 H72        20.0210  -32.5808  -45.5753 H         1 UNK         0.1412 
     73 H73        17.5106  -29.1119  -45.3597 H         1 UNK         0.1426 
     74 H74        18.0896  -30.8718  -47.6456 H         1 UNK         0.0716 
     75 H75        19.7928  -31.2341  -47.5107 H         1 UNK         0.0716 
     76 H76        21.7124  -29.3220  -47.0774 H         1 UNK         0.0695 
     77 H77        20.8171  -28.8881  -45.6415 H         1 UNK         0.0695 
     78 H78        21.7864  -26.9740  -47.8193 H         1 UNK         0.0983 
     79 H79        19.7506  -26.5466  -45.8299 H         1 UNK         0.3095 
     80 H80        19.6766  -23.0584  -45.9212 H         1 UNK         0.0454 
     81 H81        18.5776  -23.4661  -48.1265 H         1 UNK         0.0851 
     82 H82        17.3837  -23.2550  -46.8585 H         1 UNK         0.0851 
     83 H83        17.7455  -24.8693  -47.4730 H         1 UNK         0.0851 
     84 H84        17.7669  -24.9483  -44.9829 H         1 UNK         0.2976 
     85 H85        22.7610  -24.9960  -46.2577 H         1 UNK         0.3116 
     86 H86        24.4816  -24.1981  -45.0937 H         1 UNK         0.0646 
     87 H87        25.8632  -26.8676  -45.6986 H         1 UNK         0.0847 
     88 H88        25.8399  -25.4584  -46.7575 H         1 UNK         0.0847 
     89 H89        26.6554  -25.3808  -45.2044 H         1 UNK         0.0847 
     90 H90        22.6294  -24.6756  -43.4292 H         1 UNK         0.3040 
     91 H91        22.0952  -24.7405  -41.3233 H         1 UNK         0.1015 
     92 H92        23.6704  -25.0663  -39.4713 H         1 UNK         0.0786 
     93 H93        24.3690  -23.9844  -40.6650 H         1 UNK         0.0786 
     94 H94        24.9134  -25.6578  -40.5581 H         1 UNK         0.0786 
     95 H95        24.0518  -27.5694  -42.1063 H         1 UNK         0.3172 
     96 H96        23.7396  -29.7290  -42.2449 H         1 UNK         0.0595 
     97 H97        20.7174  -29.3024  -42.2252 H         1 UNK         0.0839 
     98 H98        21.6405  -30.5174  -43.0827 H         1 UNK         0.0839 
     99 H99        21.7355  -28.8470  -43.5902 H         1 UNK         0.0839 
    100 H100       21.3944  -28.5618  -39.8486 H         1 UNK         0.2998 
    101 H101       20.5311  -29.3251  -37.9501 H         1 UNK         0.0822 
    102 H102       21.9978  -30.4741  -36.3030 H         1 UNK         0.0787 
    103 H103       22.8633  -29.1725  -37.0913 H         1 UNK         0.0787 
    104 H104       23.1817  -30.8354  -37.5603 H         1 UNK         0.0787 
    105 H105       21.6834  -32.3530  -37.2956 H         1 UNK         0.3055 
    106 H106       19.2835  -33.6832  -38.3658 H         1 UNK         0.1106 
    107 H107       19.9963  -34.0650  -36.0065 H         1 UNK         0.0828 
    108 H108       20.0532  -35.5589  -36.9234 H         1 UNK         0.0828 
    109 H109       21.5448  -34.7041  -36.5588 H         1 UNK         0.0828 
    110 H110       22.3733  -33.0838  -39.6247 H         1 UNK         0.2931 
    111 H111       23.7013  -33.9380  -41.1366 H         1 UNK         0.0412 
    112 H112       24.3623  -36.9315  -38.8403 H         1 UNK         0.3472 
    113 H113       23.5263  -35.4420  -38.4771 H         1 UNK         0.3472 
    114 H114       22.7937  -35.3969  -43.0013 H         1 UNK         0.0970 
    115 H115       21.2789  -35.5094  -42.1553 H         1 UNK         0.0970 
    116 H116       19.4998  -34.2449  -43.4352 H         1 UNK         0.0612 
    117 H117       19.5965  -33.3912  -41.9084 H         1 UNK         0.0612 
@<TRIPOS>BOND
     1    1    2 1    
     2    1   62 1    
     3    1   63 1    
     4    1   64 1    
     5    2    3 2    
     6    2    4 am   BACKBONE|DICT|INTERRES
     7    4    5 1    
     8    4   65 1    
     9    5    6 1    
    10    5   25 1    
    11    5   66 1    
    12    6    7 1    
    13    6   67 1    
    14    6   68 1    
    15    7    8 1    
    16    8    9 1    
    17    8   69 1    
    18    8   70 1    
    19    9   10 ar   
    20    9   14 ar   
    21   10   11 ar   
    22   10   71 1    
    23   11   12 ar   
    24   11   61 1    
    25   12   13 ar   
    26   12   72 1    
    27   13   14 ar   
    28   13   15 1    
    29   14   73 1    
    30   15   16 1    
    31   15   74 1    
    32   15   75 1    
    33   16   17 1    
    34   17   18 1    
    35   17   76 1    
    36   17   77 1    
    37   18   19 1    
    38   18   27 1    
    39   18   78 1    
    40   19   20 am   BACKBONE|DICT|INTERRES
    41   19   79 1    
    42   20   21 2    
    43   20   22 1    
    44   22   23 1    
    45   22   24 1    
    46   22   80 1    
    47   23   81 1    
    48   23   82 1    
    49   23   83 1    
    50   24   25 am   BACKBONE|DICT|INTERRES
    51   24   84 1    
    52   25   26 2    
    53   27   28 2    
    54   27   29 am   BACKBONE|DICT|INTERRES
    55   29   30 1    
    56   29   85 1    
    57   30   31 1    
    58   30   32 1    
    59   30   86 1    
    60   31   87 1    
    61   31   88 1    
    62   31   89 1    
    63   32   33 2    
    64   32   34 am   BACKBONE|DICT|INTERRES
    65   34   35 1    
    66   34   90 1    
    67   35   36 1    
    68   35   37 1    
    69   35   91 1    
    70   36   92 1    
    71   36   93 1    
    72   36   94 1    
    73   37   38 2    
    74   37   39 am   BACKBONE|DICT|INTERRES
    75   39   40 1    
    76   39   95 1    
    77   40   41 1    
    78   40   42 1    
    79   40   96 1    
    80   41   97 1    
    81   41   98 1    
    82   41   99 1    
    83   42   43 2    
    84   42   44 am   BACKBONE|DICT|INTERRES
    85   44   45 1    
    86   44  100 1    
    87   45   46 1    
    88   45   47 1    
    89   45  101 1    
    90   46  102 1    
    91   46  103 1    
    92   46  104 1    
    93   47   48 2    
    94   47   49 am   BACKBONE|DICT|INTERRES
    95   49   50 1    
    96   49  105 1    
    97   50   51 1    
    98   50   52 1    
    99   50  106 1    
   100   51  107 1    
   101   51  108 1    
   102   51  109 1    
   103   52   53 2    
   104   52   54 am   BACKBONE|DICT|INTERRES
   105   54   55 1    
   106   54  110 1    
   107   55   56 1    
   108   55   59 1    
   109   55  111 1    
   110   56   57 am   BACKBONE|DICT|INTERRES
   111   56   58 2    
   112   57  112 1    
   113   57  113 1    
   114   59   60 1    
   115   59  114 1    
   116   59  115 1    
   117   60   61 1    
   118   61  116 1    
   119   61  117 1    
@<TRIPOS>SUBSTRUCTURE
     1 UNK         1 GROUP             0       ****    0 ROOT    
