@<TRIPOS>MOLECULE
3R8
117   119    1
SMALL
USER_CHARGES


@<TRIPOS>ATOM
      1 CA         11.4129  -26.8579  -41.9286 C.3       0 UNK        -0.2013 
      2 C          12.5391  -26.4556  -42.8692 C.2       0 UNK         0.4866 
      3 O          12.3850  -25.5081  -43.6401 O.2       0 UNK        -0.5176 
      4 N          13.6694  -27.1658  -42.8116 N.am      1 UNK        -0.4884 
      5 CA         14.8745  -26.9170  -43.6005 C.3       1 UNK         0.0853 
      6 C6         14.7581  -27.5009  -45.0311 C.3       10 UNK        -0.0849 
      7 S7         15.8344  -26.6392  -46.2239 S.3       10 UNK        -0.2776 
      8 C8         16.3470  -28.0114  -47.3032 C.3       10 UNK         0.0316 
      9 C9         17.5697  -28.7360  -46.7603 C.ar      10 UNK        -0.0863 
     10 C10        17.4312  -29.8695  -45.9546 C.ar      10 UNK        -0.1009 
     11 C11        18.5589  -30.5555  -45.4926 C.ar      10 UNK        -0.0712 
     12 C12        19.8354  -30.1000  -45.8391 C.ar      10 UNK        -0.0894 
     13 C13        19.9840  -28.9729  -46.6544 C.ar      10 UNK        -0.0745 
     14 C14        18.8489  -28.2929  -47.1041 C.ar      10 UNK        -0.0972 
     15 C15        21.3610  -28.5087  -47.1026 C.3       10 UNK         0.0209 
     16 S16        21.8803  -26.9916  -46.2461 S.3       10 UNK        -0.2568 
     17 C17        22.5858  -27.6664  -44.7121 C.3       10 UNK        -0.0983 
     18 CA         22.1611  -26.8665  -43.4521 C.3       3 UNK         0.0876 
     19 N          20.8853  -27.3107  -42.8959 N.am      3 UNK        -0.4424 
     20 C          19.6984  -26.7586  -43.1680 C.2       2 UNK         0.4918 
     21 O          19.5262  -25.8326  -43.9650 O.2       2 UNK        -0.4875 
     22 CA         18.5048  -27.2872  -42.3650 C.3       2 UNK         0.0481 
     23 CB         18.4906  -26.6644  -40.9536 C.3       2 UNK        -0.1831 
     24 N          17.2664  -26.9544  -43.0633 N.am      2 UNK        -0.4498 
     25 C          16.0673  -27.4892  -42.8140 C.2       1 UNK         0.5027 
     26 O          15.8715  -28.3830  -41.9841 O.2       1 UNK        -0.4969 
     27 C          23.2178  -27.0278  -42.3534 C.2       3 UNK         0.5005 
     28 O          23.4245  -28.1458  -41.8778 O.2       3 UNK        -0.5279 
     29 N          23.9364  -25.9440  -42.0282 N.am      4 UNK        -0.4463 
     30 CA         25.0751  -25.9560  -41.0993 C.3       4 UNK         0.0283 
     31 CB         25.5300  -24.5137  -40.8254 C.3       4 UNK        -0.1875 
     32 C          26.2588  -26.8099  -41.5942 C.2       4 UNK         0.4949 
     33 O          27.0027  -27.3447  -40.7733 O.2       4 UNK        -0.5039 
     34 N          26.3905  -26.9461  -42.9222 N.am      5 UNK        -0.4663 
     35 CA         27.3534  -27.8320  -43.5809 C.3       5 UNK         0.0242 
     36 CB         27.4533  -27.4522  -45.0673 C.3       5 UNK        -0.1982 
     37 C          27.0025  -29.3239  -43.4303 C.2       5 UNK         0.5017 
     38 O          27.9130  -30.1529  -43.4258 O.2       5 UNK        -0.5012 
     39 N          25.7039  -29.6391  -43.3083 N.am      6 UNK        -0.4439 
     40 CA         25.2069  -30.9865  -43.0223 C.3       6 UNK         0.0297 
     41 CB         23.7725  -31.1474  -43.5556 C.3       6 UNK        -0.2006 
     42 C          25.2614  -31.2806  -41.5166 C.2       6 UNK         0.4892 
     43 O          25.6030  -32.3999  -41.1342 O.2       6 UNK        -0.5089 
     44 N          24.9140  -30.2742  -40.6987 N.am      7 UNK        -0.4243 
     45 CA         24.9115  -30.2201  -39.2297 C.3       7 UNK         0.0196 
     46 CB         26.3149  -30.4791  -38.6490 C.3       7 UNK        -0.2007 
     47 C          23.8541  -31.1157  -38.5628 C.2       7 UNK         0.5020 
     48 O          23.1917  -30.6688  -37.6267 O.2       7 UNK        -0.5147 
     49 N          23.6920  -32.3475  -39.0605 N.am      8 UNK        -0.4734 
     50 CA         22.6468  -33.2903  -38.6558 C.3       8 UNK         0.0238 
     51 CB         22.9817  -34.6866  -39.2040 C.3       8 UNK        -0.1912 
     52 C          21.2461  -32.8494  -39.1142 C.2       8 UNK         0.5038 
     53 O          20.2700  -33.1385  -38.4210 O.2       8 UNK        -0.5046 
     54 N          21.1794  -32.1531  -40.2573 N.am      9 UNK        -0.4200 
     55 CA         19.9750  -31.4873  -40.7579 C.3       9 UNK         0.0839 
     56 C          19.9276  -30.0474  -40.1935 C.2       9 UNK         0.5513 
     57 N          19.0361  -29.7695  -39.2531 N.am      9 UNK        -0.7519 
     58 O          20.6880  -29.1815  -40.6197 O.2       9 UNK        -0.4960 
     59 C59        19.9089  -31.5172  -42.3088 C.3       10 UNK        -0.0876 
     60 S60        18.1856  -31.4252  -42.8943 S.3       10 UNK        -0.2414 
     61 C61        18.3832  -31.8140  -44.6577 C.3       10 UNK         0.0169 
     62 H62        11.6849  -27.7120  -41.3087 H         1 UNK         0.0903 
     63 H63        11.1595  -26.0277  -41.2698 H         1 UNK         0.0903 
     64 H64        10.5239  -27.1235  -42.4999 H         1 UNK         0.0903 
     65 H65        13.7846  -27.9096  -42.1320 H         1 UNK         0.3096 
     66 H66        15.0096  -25.8340  -43.6584 H         1 UNK         0.1121 
     67 H67        14.9487  -28.5747  -45.0318 H         1 UNK         0.0849 
     68 H68        13.7388  -27.3866  -45.4033 H         1 UNK         0.0849 
     69 H69        15.5181  -28.7065  -47.4472 H         1 UNK         0.0865 
     70 H70        16.5711  -27.6093  -48.2925 H         1 UNK         0.0865 
     71 H71        16.4459  -30.2318  -45.6968 H         1 UNK         0.1346 
     72 H72        20.7091  -30.6360  -45.4950 H         1 UNK         0.1412 
     73 H73        18.9641  -27.4221  -47.7356 H         1 UNK         0.1426 
     74 H74        22.1076  -29.2917  -46.9605 H         1 UNK         0.0716 
     75 H75        21.3361  -28.3094  -48.1750 H         1 UNK         0.0716 
     76 H76        22.3145  -28.7173  -44.6031 H         1 UNK         0.0695 
     77 H77        23.6686  -27.6496  -44.8532 H         1 UNK         0.0695 
     78 H78        22.0992  -25.8046  -43.7015 H         1 UNK         0.0983 
     79 H79        20.9540  -28.0160  -42.1636 H         1 UNK         0.3095 
     80 H80        18.5902  -28.3729  -42.2973 H         1 UNK         0.0454 
     81 H81        18.3173  -25.5885  -40.9926 H         1 UNK         0.0851 
     82 H82        17.7139  -27.1066  -40.3301 H         1 UNK         0.0851 
     83 H83        19.4395  -26.8189  -40.4395 H         1 UNK         0.0851 
     84 H84        17.3778  -26.2731  -43.8057 H         1 UNK         0.2976 
     85 H85        23.7163  -25.0580  -42.4621 H         1 UNK         0.3116 
     86 H86        24.7317  -26.3907  -40.1579 H         1 UNK         0.0646 
     87 H87        26.3593  -24.4953  -40.1167 H         1 UNK         0.0847 
     88 H88        24.7259  -23.9178  -40.3935 H         1 UNK         0.0847 
     89 H89        25.8688  -24.0154  -41.7346 H         1 UNK         0.0847 
     90 H90        25.7582  -26.4338  -43.5194 H         1 UNK         0.3040 
     91 H91        28.3316  -27.6777  -43.1193 H         1 UNK         0.1015 
     92 H92        27.7735  -26.4176  -45.1921 H         1 UNK         0.0786 
     93 H93        26.4996  -27.5744  -45.5826 H         1 UNK         0.0786 
     94 H94        28.1835  -28.0791  -45.5812 H         1 UNK         0.0786 
     95 H95        25.0306  -28.8879  -43.2552 H         1 UNK         0.3172 
     96 H96        25.8381  -31.7164  -43.5342 H         1 UNK         0.0595 
     97 H97        23.4173  -32.1680  -43.4075 H         1 UNK         0.0839 
     98 H98        23.7214  -30.9409  -44.6248 H         1 UNK         0.0839 
     99 H99        23.0695  -30.4848  -43.0507 H         1 UNK         0.0839 
    100 H100       24.5333  -29.4390  -41.1402 H         1 UNK         0.2998 
    101 H101       24.6434  -29.1908  -38.9848 H         1 UNK         0.0822 
    102 H102       27.0492  -29.7951  -39.0754 H         1 UNK         0.0787 
    103 H103       26.3210  -30.3302  -37.5686 H         1 UNK         0.0787 
    104 H104       26.6554  -31.4976  -38.8372 H         1 UNK         0.0787 
    105 H105       24.3201  -32.6292  -39.8105 H         1 UNK         0.3055 
    106 H106       22.6349  -33.3400  -37.5645 H         1 UNK         0.1106 
    107 H107       22.2272  -35.4151  -38.9037 H         1 UNK         0.0828 
    108 H108       23.0275  -34.6937  -40.2938 H         1 UNK         0.0828 
    109 H109       23.9409  -35.0411  -38.8261 H         1 UNK         0.0828 
    110 H110       22.0443  -31.9175  -40.7190 H         1 UNK         0.2931 
    111 H111       19.1089  -32.0370  -40.3820 H         1 UNK         0.0412 
    112 H112       18.9967  -28.8382  -38.8725 H         1 UNK         0.3472 
    113 H113       18.4162  -30.4829  -38.9019 H         1 UNK         0.3472 
    114 H114       20.3280  -32.4551  -42.6767 H         1 UNK         0.0970 
    115 H115       20.4997  -30.7216  -42.7668 H         1 UNK         0.0970 
    116 H116       17.4956  -32.3521  -44.9938 H         1 UNK         0.0612 
    117 H117       19.2211  -32.4968  -44.8062 H         1 UNK         0.0612 
@<TRIPOS>BOND
     1    1    2 1    
     2    1   62 1    
     3    1   63 1    
     4    1   64 1    
     5    2    3 2    
     6    2    4 am   BACKBONE|DICT|INTERRES
     7    4    5 1    
     8    4   65 1    
     9    5    6 1    
    10    5   25 1    
    11    5   66 1    
    12    6    7 1    
    13    6   67 1    
    14    6   68 1    
    15    7    8 1    
    16    8    9 1    
    17    8   69 1    
    18    8   70 1    
    19    9   10 ar   
    20    9   14 ar   
    21   10   11 ar   
    22   10   71 1    
    23   11   12 ar   
    24   11   61 1    
    25   12   13 ar   
    26   12   72 1    
    27   13   14 ar   
    28   13   15 1    
    29   14   73 1    
    30   15   16 1    
    31   15   74 1    
    32   15   75 1    
    33   16   17 1    
    34   17   18 1    
    35   17   76 1    
    36   17   77 1    
    37   18   19 1    
    38   18   27 1    
    39   18   78 1    
    40   19   20 am   BACKBONE|DICT|INTERRES
    41   19   79 1    
    42   20   21 2    
    43   20   22 1    
    44   22   23 1    
    45   22   24 1    
    46   22   80 1    
    47   23   81 1    
    48   23   82 1    
    49   23   83 1    
    50   24   25 am   BACKBONE|DICT|INTERRES
    51   24   84 1    
    52   25   26 2    
    53   27   28 2    
    54   27   29 am   BACKBONE|DICT|INTERRES
    55   29   30 1    
    56   29   85 1    
    57   30   31 1    
    58   30   32 1    
    59   30   86 1    
    60   31   87 1    
    61   31   88 1    
    62   31   89 1    
    63   32   33 2    
    64   32   34 am   BACKBONE|DICT|INTERRES
    65   34   35 1    
    66   34   90 1    
    67   35   36 1    
    68   35   37 1    
    69   35   91 1    
    70   36   92 1    
    71   36   93 1    
    72   36   94 1    
    73   37   38 2    
    74   37   39 am   BACKBONE|DICT|INTERRES
    75   39   40 1    
    76   39   95 1    
    77   40   41 1    
    78   40   42 1    
    79   40   96 1    
    80   41   97 1    
    81   41   98 1    
    82   41   99 1    
    83   42   43 2    
    84   42   44 am   BACKBONE|DICT|INTERRES
    85   44   45 1    
    86   44  100 1    
    87   45   46 1    
    88   45   47 1    
    89   45  101 1    
    90   46  102 1    
    91   46  103 1    
    92   46  104 1    
    93   47   48 2    
    94   47   49 am   BACKBONE|DICT|INTERRES
    95   49   50 1    
    96   49  105 1    
    97   50   51 1    
    98   50   52 1    
    99   50  106 1    
   100   51  107 1    
   101   51  108 1    
   102   51  109 1    
   103   52   53 2    
   104   52   54 am   BACKBONE|DICT|INTERRES
   105   54   55 1    
   106   54  110 1    
   107   55   56 1    
   108   55   59 1    
   109   55  111 1    
   110   56   57 am   BACKBONE|DICT|INTERRES
   111   56   58 2    
   112   57  112 1    
   113   57  113 1    
   114   59   60 1    
   115   59  114 1    
   116   59  115 1    
   117   60   61 1    
   118   61  116 1    
   119   61  117 1    
@<TRIPOS>SUBSTRUCTURE
     1 UNK         1 GROUP             0       ****    0 ROOT    
