@<TRIPOS>MOLECULE
3R8
117   119    1
SMALL
USER_CHARGES


@<TRIPOS>ATOM
      1 CA         15.3264  -22.4718  -43.6229 C.3       0 UNK        -0.2013 
      2 C          16.2764  -22.9506  -44.7106 C.2       0 UNK         0.4866 
      3 O          16.9147  -22.1289  -45.3682 O.2       0 UNK        -0.5176 
      4 N          16.3648  -24.2725  -44.9084 N.am      1 UNK        -0.4884 
      5 CA         17.2601  -24.9266  -45.8687 C.3       1 UNK         0.0853 
      6 C6         16.8092  -26.3857  -46.1243 C.3       10 UNK        -0.0849 
      7 S7         17.6790  -27.2077  -47.5020 S.3       10 UNK        -0.2776 
      8 C8         16.9054  -28.8597  -47.4748 C.3       10 UNK         0.0316 
      9 C9         17.3825  -29.6929  -46.2925 C.ar      10 UNK        -0.0863 
     10 C10        18.4959  -30.5299  -46.4193 C.ar      10 UNK        -0.1009 
     11 C11        18.9347  -31.2920  -45.3319 C.ar      10 UNK        -0.0712 
     12 C12        18.2662  -31.1983  -44.1073 C.ar      10 UNK        -0.0894 
     13 C13        17.1767  -30.3380  -43.9594 C.ar      10 UNK        -0.0745 
     14 C14        16.7145  -29.6221  -45.0665 C.ar      10 UNK        -0.0972 
     15 C15        16.5112  -30.1482  -42.6050 C.3       10 UNK         0.0209 
     16 S16        16.8702  -28.4898  -41.9358 S.3       10 UNK        -0.2568 
     17 C17        18.3569  -28.7589  -40.9079 C.3       10 UNK        -0.0983 
     18 CA         19.6956  -28.8391  -41.7001 C.3       3 UNK         0.0876 
     19 N          19.8861  -27.7366  -42.6498 N.am      3 UNK        -0.4424 
     20 C          20.1777  -26.4590  -42.3647 C.2       2 UNK         0.4918 
     21 O          20.3294  -26.0135  -41.2271 O.2       2 UNK        -0.4875 
     22 CA         20.3040  -25.5191  -43.5663 C.3       2 UNK         0.0481 
     23 CB         21.4848  -25.9481  -44.4645 C.3       2 UNK        -0.1831 
     24 N          19.0246  -25.5047  -44.2751 N.am      2 UNK        -0.4498 
     25 C          18.7239  -24.8239  -45.3898 C.2       1 UNK         0.5027 
     26 O          19.5195  -24.1159  -46.0091 O.2       1 UNK        -0.4969 
     27 C          20.9402  -29.0065  -40.7988 C.2       3 UNK         0.5005 
     28 O          21.9615  -29.5170  -41.2643 O.2       3 UNK        -0.5279 
     29 N          20.8642  -28.5305  -39.5467 N.am      4 UNK        -0.4463 
     30 CA         21.9659  -28.4805  -38.5800 C.3       4 UNK         0.0283 
     31 CB         21.4461  -27.9352  -37.2413 C.3       4 UNK        -0.1875 
     32 C          23.1749  -27.6572  -39.0600 C.2       4 UNK         0.4949 
     33 O          24.3072  -28.0116  -38.7337 O.2       4 UNK        -0.5039 
     34 N          22.9287  -26.6122  -39.8655 N.am      5 UNK        -0.4663 
     35 CA         23.9708  -25.7857  -40.4867 C.3       5 UNK         0.0242 
     36 CB         23.3508  -24.4789  -41.0065 C.3       5 UNK        -0.1982 
     37 C          24.7419  -26.5087  -41.6081 C.2       5 UNK         0.5017 
     38 O          25.8327  -26.0630  -41.9630 O.2       5 UNK        -0.5012 
     39 N          24.1885  -27.6173  -42.1199 N.am      6 UNK        -0.4439 
     40 CA         24.8247  -28.5288  -43.0724 C.3       6 UNK         0.0297 
     41 CB         23.8504  -28.8024  -44.2318 C.3       6 UNK        -0.2006 
     42 C          25.2942  -29.8150  -42.3629 C.2       6 UNK         0.4892 
     43 O          25.2731  -30.8911  -42.9611 O.2       6 UNK        -0.5089 
     44 N          25.7145  -29.6725  -41.0955 N.am      7 UNK        -0.4243 
     45 CA         26.2421  -30.7086  -40.2000 C.3       7 UNK         0.0196 
     46 CB         27.5730  -31.2779  -40.7381 C.3       7 UNK        -0.2007 
     47 C          25.2177  -31.8036  -39.8443 C.2       7 UNK         0.5020 
     48 O          25.6092  -32.9496  -39.6182 O.2       7 UNK        -0.5147 
     49 N          23.9323  -31.4230  -39.7761 N.am      8 UNK        -0.4734 
     50 CA         22.7737  -32.2641  -39.4494 C.3       8 UNK         0.0238 
     51 CB         22.8443  -32.7682  -37.9917 C.3       8 UNK        -0.1912 
     52 C          22.5746  -33.3894  -40.4786 C.2       8 UNK         0.5038 
     53 O          22.5302  -34.5665  -40.1159 O.2       8 UNK        -0.5046 
     54 N          22.4684  -32.9905  -41.7519 N.am      9 UNK        -0.4200 
     55 CA         22.2516  -33.8761  -42.9073 C.3       9 UNK         0.0839 
     56 C          20.8982  -34.6486  -42.9268 C.2       9 UNK         0.5513 
     57 N          19.9092  -34.2893  -42.1166 N.am      9 UNK        -0.7519 
     58 O          20.7475  -35.5955  -43.6945 O.2       9 UNK        -0.4960 
     59 C59        22.5132  -33.1350  -44.2471 C.3       10 UNK        -0.0876 
     60 S60        21.5183  -31.6165  -44.4451 S.3       10 UNK        -0.2414 
     61 C61        20.1352  -32.2136  -45.4632 C.3       10 UNK         0.0169 
     62 H62        14.5641  -21.8211  -44.0506 H         1 UNK         0.0903 
     63 H63        14.8235  -23.3004  -43.1244 H         1 UNK         0.0903 
     64 H64        15.8739  -21.9057  -42.8697 H         1 UNK         0.0903 
     65 H65        15.8060  -24.8891  -44.3352 H         1 UNK         0.3096 
     66 H66        17.1882  -24.3836  -46.8143 H         1 UNK         0.1121 
     67 H67        15.7431  -26.4027  -46.3577 H         1 UNK         0.0849 
     68 H68        16.9278  -26.9754  -45.2167 H         1 UNK         0.0849 
     69 H69        15.8190  -28.7585  -47.4561 H         1 UNK         0.0865 
     70 H70        17.1427  -29.3734  -48.4077 H         1 UNK         0.0865 
     71 H71        19.0193  -30.5875  -47.3640 H         1 UNK         0.1346 
     72 H72        18.6189  -31.7752  -43.2633 H         1 UNK         0.1412 
     73 H73        15.8536  -28.9770  -44.9574 H         1 UNK         0.1426 
     74 H74        16.8214  -30.9177  -41.8965 H         1 UNK         0.0716 
     75 H75        15.4317  -30.2549  -42.7209 H         1 UNK         0.0716 
     76 H76        18.2105  -29.6616  -40.3119 H         1 UNK         0.0695 
     77 H77        18.3778  -27.9275  -40.2017 H         1 UNK         0.0695 
     78 H78        19.6644  -29.7449  -42.3034 H         1 UNK         0.0983 
     79 H79        19.8018  -27.9975  -43.6217 H         1 UNK         0.3095 
     80 H80        20.4940  -24.5120  -43.1906 H         1 UNK         0.0454 
     81 H81        21.7254  -25.1881  -45.2068 H         1 UNK         0.0851 
     82 H82        21.2805  -26.8779  -44.9962 H         1 UNK         0.0851 
     83 H83        22.3885  -26.0975  -43.8736 H         1 UNK         0.0851 
     84 H84        18.2840  -26.0203  -43.8188 H         1 UNK         0.2976 
     85 H85        20.0026  -28.0853  -39.2645 H         1 UNK         0.3116 
     86 H86        22.3097  -29.5017  -38.4131 H         1 UNK         0.0646 
     87 H87        20.6497  -28.5613  -36.8385 H         1 UNK         0.0847 
     88 H88        22.2421  -27.9093  -36.4955 H         1 UNK         0.0847 
     89 H89        21.0599  -26.9198  -37.3400 H         1 UNK         0.0847 
     90 H90        21.9668  -26.3974  -40.1132 H         1 UNK         0.3040 
     91 H91        24.6991  -25.5280  -39.7142 H         1 UNK         0.1015 
     92 H92        22.6466  -24.6572  -41.8177 H         1 UNK         0.0786 
     93 H93        24.1214  -23.8085  -41.3897 H         1 UNK         0.0786 
     94 H94        22.8236  -23.9459  -40.2151 H         1 UNK         0.0786 
     95 H95        23.3141  -27.9484  -41.7266 H         1 UNK         0.3172 
     96 H96        25.7207  -28.0723  -43.4973 H         1 UNK         0.0595 
     97 H97        22.8826  -29.1431  -43.8658 H         1 UNK         0.0839 
     98 H98        24.2336  -29.5638  -44.9122 H         1 UNK         0.0839 
     99 H99        23.6871  -27.9045  -44.8260 H         1 UNK         0.0839 
    100 H100       25.6507  -28.7494  -40.6873 H         1 UNK         0.2998 
    101 H101       26.4631  -30.2007  -39.2598 H         1 UNK         0.0822 
    102 H102       28.0455  -31.9308  -40.0033 H         1 UNK         0.0787 
    103 H103       27.4248  -31.8650  -41.6450 H         1 UNK         0.0787 
    104 H104       28.2827  -30.4824  -40.9649 H         1 UNK         0.0787 
    105 H105       23.7134  -30.4737  -40.0512 H         1 UNK         0.3055 
    106 H106       21.8898  -31.6303  -39.5257 H         1 UNK         0.1106 
    107 H107       21.9346  -33.3064  -37.7226 H         1 UNK         0.0828 
    108 H108       23.6803  -33.4501  -37.8340 H         1 UNK         0.0828 
    109 H109       22.9498  -31.9406  -37.2905 H         1 UNK         0.0828 
    110 H110       22.5248  -32.0028  -41.9622 H         1 UNK         0.2931 
    111 H111       23.0158  -34.6520  -42.8314 H         1 UNK         0.0412 
    112 H112       19.0441  -34.8057  -42.1365 H         1 UNK         0.3472 
    113 H113       20.0287  -33.5263  -41.4720 H         1 UNK         0.3472 
    114 H114       22.3622  -33.7963  -45.1026 H         1 UNK         0.0970 
    115 H115       23.5633  -32.8411  -44.2921 H         1 UNK         0.0970 
    116 H116       19.8400  -33.2162  -45.1549 H         1 UNK         0.0612 
    117 H117       20.4631  -32.2909  -46.5009 H         1 UNK         0.0612 
@<TRIPOS>BOND
     1    1    2 1    
     2    1   62 1    
     3    1   63 1    
     4    1   64 1    
     5    2    3 2    
     6    2    4 am   BACKBONE|DICT|INTERRES
     7    4    5 1    
     8    4   65 1    
     9    5    6 1    
    10    5   25 1    
    11    5   66 1    
    12    6    7 1    
    13    6   67 1    
    14    6   68 1    
    15    7    8 1    
    16    8    9 1    
    17    8   69 1    
    18    8   70 1    
    19    9   10 ar   
    20    9   14 ar   
    21   10   11 ar   
    22   10   71 1    
    23   11   12 ar   
    24   11   61 1    
    25   12   13 ar   
    26   12   72 1    
    27   13   14 ar   
    28   13   15 1    
    29   14   73 1    
    30   15   16 1    
    31   15   74 1    
    32   15   75 1    
    33   16   17 1    
    34   17   18 1    
    35   17   76 1    
    36   17   77 1    
    37   18   19 1    
    38   18   27 1    
    39   18   78 1    
    40   19   20 am   BACKBONE|DICT|INTERRES
    41   19   79 1    
    42   20   21 2    
    43   20   22 1    
    44   22   23 1    
    45   22   24 1    
    46   22   80 1    
    47   23   81 1    
    48   23   82 1    
    49   23   83 1    
    50   24   25 am   BACKBONE|DICT|INTERRES
    51   24   84 1    
    52   25   26 2    
    53   27   28 2    
    54   27   29 am   BACKBONE|DICT|INTERRES
    55   29   30 1    
    56   29   85 1    
    57   30   31 1    
    58   30   32 1    
    59   30   86 1    
    60   31   87 1    
    61   31   88 1    
    62   31   89 1    
    63   32   33 2    
    64   32   34 am   BACKBONE|DICT|INTERRES
    65   34   35 1    
    66   34   90 1    
    67   35   36 1    
    68   35   37 1    
    69   35   91 1    
    70   36   92 1    
    71   36   93 1    
    72   36   94 1    
    73   37   38 2    
    74   37   39 am   BACKBONE|DICT|INTERRES
    75   39   40 1    
    76   39   95 1    
    77   40   41 1    
    78   40   42 1    
    79   40   96 1    
    80   41   97 1    
    81   41   98 1    
    82   41   99 1    
    83   42   43 2    
    84   42   44 am   BACKBONE|DICT|INTERRES
    85   44   45 1    
    86   44  100 1    
    87   45   46 1    
    88   45   47 1    
    89   45  101 1    
    90   46  102 1    
    91   46  103 1    
    92   46  104 1    
    93   47   48 2    
    94   47   49 am   BACKBONE|DICT|INTERRES
    95   49   50 1    
    96   49  105 1    
    97   50   51 1    
    98   50   52 1    
    99   50  106 1    
   100   51  107 1    
   101   51  108 1    
   102   51  109 1    
   103   52   53 2    
   104   52   54 am   BACKBONE|DICT|INTERRES
   105   54   55 1    
   106   54  110 1    
   107   55   56 1    
   108   55   59 1    
   109   55  111 1    
   110   56   57 am   BACKBONE|DICT|INTERRES
   111   56   58 2    
   112   57  112 1    
   113   57  113 1    
   114   59   60 1    
   115   59  114 1    
   116   59  115 1    
   117   60   61 1    
   118   61  116 1    
   119   61  117 1    
@<TRIPOS>SUBSTRUCTURE
     1 UNK         1 GROUP             0       ****    0 ROOT    
