@<TRIPOS>MOLECULE
3R8
117   119    1
SMALL
USER_CHARGES


@<TRIPOS>ATOM
      1 CA         17.5132  -23.5328  -39.7423 C.3       0 UNK        -0.2013 
      2 C          17.3062  -23.8107  -41.2237 C.2       0 UNK         0.4866 
      3 O          16.7975  -22.9502  -41.9432 O.2       0 UNK        -0.5176 
      4 N          17.6872  -25.0089  -41.6830 N.am      1 UNK        -0.4884 
      5 CA         17.6092  -25.4343  -43.0842 C.3       1 UNK         0.0853 
      6 C6         17.8483  -26.9562  -43.2343 C.3       10 UNK        -0.0849 
      7 S7         16.5883  -27.9593  -42.3742 S.3       10 UNK        -0.2776 
      8 C8         15.8626  -28.9258  -43.7413 C.3       10 UNK         0.0316 
      9 C9         16.8936  -29.8212  -44.4166 C.ar      10 UNK        -0.0863 
     10 C10        17.4349  -30.9124  -43.7307 C.ar      10 UNK        -0.1009 
     11 C11        18.4126  -31.7160  -44.3270 C.ar      10 UNK        -0.0712 
     12 C12        18.8362  -31.4238  -45.6282 C.ar      10 UNK        -0.0894 
     13 C13        18.2859  -30.3502  -46.3363 C.ar      10 UNK        -0.0745 
     14 C14        17.3088  -29.5577  -45.7255 C.ar      10 UNK        -0.0972 
     15 C15        18.7324  -30.0710  -47.7691 C.3       10 UNK         0.0209 
     16 S16        19.2280  -28.3382  -48.0532 S.3       10 UNK        -0.2568 
     17 C17        20.6259  -28.1777  -46.8950 C.3       10 UNK        -0.0983 
     18 CA         21.2005  -26.7394  -46.8246 C.3       3 UNK         0.0876 
     19 N          20.1527  -25.7564  -46.5347 N.am      3 UNK        -0.4424 
     20 C          20.2700  -24.4265  -46.6373 C.2       2 UNK         0.4918 
     21 O          21.2749  -23.8563  -47.0615 O.2       2 UNK        -0.4875 
     22 CA         19.0683  -23.5902  -46.1538 C.3       2 UNK         0.0481 
     23 CB         18.2023  -23.1613  -47.3489 C.3       2 UNK        -0.1831 
     24 N          18.2235  -24.2724  -45.1619 N.am      2 UNK        -0.4498 
     25 C          18.6313  -24.6673  -43.9459 C.2       1 UNK         0.5027 
     26 O          19.7826  -24.5149  -43.5291 O.2       1 UNK        -0.4969 
     27 C          22.3505  -26.7130  -45.7937 C.2       3 UNK         0.5005 
     28 O          23.4193  -27.2554  -46.0817 O.2       3 UNK        -0.5279 
     29 N          22.1002  -26.1536  -44.5970 N.am      4 UNK        -0.4463 
     30 CA         22.9179  -26.1828  -43.3771 C.3       4 UNK         0.0283 
     31 CB         24.3051  -25.5424  -43.5809 C.3       4 UNK        -0.1875 
     32 C          23.0202  -27.5893  -42.7632 C.2       4 UNK         0.4949 
     33 O          22.6676  -27.7610  -41.5969 O.2       4 UNK        -0.5039 
     34 N          23.4860  -28.5643  -43.5590 N.am      5 UNK        -0.4663 
     35 CA         23.5564  -30.0069  -43.2793 C.3       5 UNK         0.0242 
     36 CB         22.1400  -30.6104  -43.3492 C.3       5 UNK        -0.1982 
     37 C          24.2859  -30.3524  -41.9645 C.2       5 UNK         0.5017 
     38 O          23.8624  -31.2533  -41.2349 O.2       5 UNK        -0.5012 
     39 N          25.3327  -29.5706  -41.6540 N.am      6 UNK        -0.4439 
     40 CA         26.1259  -29.5802  -40.4151 C.3       6 UNK         0.0297 
     41 CB         26.9550  -30.8790  -40.3229 C.3       6 UNK        -0.2006 
     42 C          25.3046  -29.3312  -39.1287 C.2       6 UNK         0.4892 
     43 O          25.7921  -29.6364  -38.0393 O.2       6 UNK        -0.5089 
     44 N          24.0728  -28.8130  -39.2755 N.am      7 UNK        -0.4243 
     45 CA         23.0254  -28.6845  -38.2565 C.3       7 UNK         0.0196 
     46 CB         23.4109  -27.6197  -37.2075 C.3       7 UNK        -0.2007 
     47 C          22.6216  -30.0345  -37.6233 C.2       7 UNK         0.5020 
     48 O          22.1932  -30.0540  -36.4678 O.2       7 UNK        -0.5147 
     49 N          22.7759  -31.1386  -38.3705 N.am      8 UNK        -0.4734 
     50 CA         22.5970  -32.5003  -37.8594 C.3       8 UNK         0.0238 
     51 CB         23.9549  -33.0446  -37.3804 C.3       8 UNK        -0.1912 
     52 C          21.9568  -33.4647  -38.8667 C.2       8 UNK         0.5038 
     53 O          21.2697  -34.3881  -38.4277 O.2       8 UNK        -0.5046 
     54 N          22.1956  -33.2697  -40.1729 N.am      9 UNK        -0.4200 
     55 CA         21.7520  -34.1605  -41.2637 C.3       9 UNK         0.0839 
     56 C          22.4054  -35.5781  -41.2422 C.2       9 UNK         0.5513 
     57 N          23.5430  -35.7688  -40.5839 N.am      9 UNK        -0.7519 
     58 O          21.8986  -36.5141  -41.8558 O.2       9 UNK        -0.4960 
     59 C59        20.2034  -34.2043  -41.4291 C.3       10 UNK        -0.0876 
     60 S60        19.5055  -32.5817  -41.8894 S.3       10 UNK        -0.2414 
     61 C61        18.9789  -32.9313  -43.6000 C.3       10 UNK         0.0169 
     62 H62        16.5590  -23.3106  -39.2652 H         1 UNK         0.0903 
     63 H63        17.9603  -24.3823  -39.2263 H         1 UNK         0.0903 
     64 H64        18.1690  -22.6727  -39.6104 H         1 UNK         0.0903 
     65 H65        18.1023  -25.6771  -41.0497 H         1 UNK         0.3096 
     66 H66        16.6056  -25.2016  -43.4479 H         1 UNK         0.1121 
     67 H67        17.8636  -27.2298  -44.2898 H         1 UNK         0.0849 
     68 H68        18.8285  -27.2358  -42.8417 H         1 UNK         0.0849 
     69 H69        15.0536  -29.5434  -43.3486 H         1 UNK         0.0865 
     70 H70        15.4045  -28.2441  -44.4597 H         1 UNK         0.0865 
     71 H71        17.1014  -31.1284  -42.7248 H         1 UNK         0.1346 
     72 H72        19.5841  -32.0472  -46.0991 H         1 UNK         0.1412 
     73 H73        16.8813  -28.7267  -46.2701 H         1 UNK         0.1426 
     74 H74        17.9112  -30.3148  -48.4442 H         1 UNK         0.0716 
     75 H75        19.5639  -30.7193  -48.0501 H         1 UNK         0.0716 
     76 H76        21.3992  -28.8849  -47.2022 H         1 UNK         0.0695 
     77 H77        20.2919  -28.4992  -45.9061 H         1 UNK         0.0695 
     78 H78        21.6331  -26.4906  -47.7961 H         1 UNK         0.0983 
     79 H79        19.2687  -26.1346  -46.2312 H         1 UNK         0.3095 
     80 H80        19.4679  -22.6900  -45.6822 H         1 UNK         0.0454 
     81 H81        18.7975  -22.6251  -48.0896 H         1 UNK         0.0851 
     82 H82        17.3989  -22.4928  -47.0391 H         1 UNK         0.0851 
     83 H83        17.7533  -24.0185  -47.8522 H         1 UNK         0.0851 
     84 H84        17.2639  -24.4377  -45.4321 H         1 UNK         0.2976 
     85 H85        21.1943  -25.7154  -44.4675 H         1 UNK         0.3116 
     86 H86        22.3811  -25.5646  -42.6553 H         1 UNK         0.0646 
     87 H87        24.9293  -26.1095  -44.2715 H         1 UNK         0.0847 
     88 H88        24.2170  -24.5273  -43.9679 H         1 UNK         0.0847 
     89 H89        24.8450  -25.4820  -42.6352 H         1 UNK         0.0847 
     90 H90        23.7265  -28.2841  -44.5078 H         1 UNK         0.3040 
     91 H91        24.1477  -30.4523  -44.0808 H         1 UNK         0.1015 
     92 H92        22.1756  -31.6980  -43.3051 H         1 UNK         0.0786 
     93 H93        21.6369  -30.3457  -44.2794 H         1 UNK         0.0786 
     94 H94        21.5145  -30.2678  -42.5238 H         1 UNK         0.0786 
     95 H95        25.5692  -28.8438  -42.3157 H         1 UNK         0.3172 
     96 H96        26.8229  -28.7448  -40.4938 H         1 UNK         0.0595 
     97 H97        26.3213  -31.7533  -40.1700 H         1 UNK         0.0839 
     98 H98        27.6578  -30.8393  -39.4898 H         1 UNK         0.0839 
     99 H99        27.5399  -31.0428  -41.2279 H         1 UNK         0.0839 
    100 H100       23.7665  -28.5723  -40.2149 H         1 UNK         0.2998 
    101 H101       22.1395  -28.3245  -38.7819 H         1 UNK         0.0822 
    102 H102       22.5781  -27.4128  -36.5344 H         1 UNK         0.0787 
    103 H103       23.6833  -26.6769  -37.6818 H         1 UNK         0.0787 
    104 H104       24.2522  -27.9426  -36.5935 H         1 UNK         0.0787 
    105 H105       23.1252  -31.0402  -39.3179 H         1 UNK         0.3055 
    106 H106       21.9197  -32.4799  -37.0022 H         1 UNK         0.1106 
    107 H107       24.3590  -32.4388  -36.5690 H         1 UNK         0.0828 
    108 H108       23.8610  -34.0651  -37.0062 H         1 UNK         0.0828 
    109 H109       24.6908  -33.0545  -38.1854 H         1 UNK         0.0828 
    110 H110       22.7969  -32.5057  -40.4703 H         1 UNK         0.2931 
    111 H111       22.1536  -33.7139  -42.1726 H         1 UNK         0.0412 
    112 H112       23.9842  -35.0075  -40.0942 H         1 UNK         0.3472 
    113 H113       23.9656  -36.6841  -40.5832 H         1 UNK         0.3472 
    114 H114       19.9166  -34.9306  -42.1912 H         1 UNK         0.0970 
    115 H115       19.7215  -34.5453  -40.5125 H         1 UNK         0.0970 
    116 H116       19.8337  -33.3344  -44.1457 H         1 UNK         0.0612 
    117 H117       18.2184  -33.7131  -43.5859 H         1 UNK         0.0612 
@<TRIPOS>BOND
     1    1    2 1    
     2    1   62 1    
     3    1   63 1    
     4    1   64 1    
     5    2    3 2    
     6    2    4 am   BACKBONE|DICT|INTERRES
     7    4    5 1    
     8    4   65 1    
     9    5    6 1    
    10    5   25 1    
    11    5   66 1    
    12    6    7 1    
    13    6   67 1    
    14    6   68 1    
    15    7    8 1    
    16    8    9 1    
    17    8   69 1    
    18    8   70 1    
    19    9   10 ar   
    20    9   14 ar   
    21   10   11 ar   
    22   10   71 1    
    23   11   12 ar   
    24   11   61 1    
    25   12   13 ar   
    26   12   72 1    
    27   13   14 ar   
    28   13   15 1    
    29   14   73 1    
    30   15   16 1    
    31   15   74 1    
    32   15   75 1    
    33   16   17 1    
    34   17   18 1    
    35   17   76 1    
    36   17   77 1    
    37   18   19 1    
    38   18   27 1    
    39   18   78 1    
    40   19   20 am   BACKBONE|DICT|INTERRES
    41   19   79 1    
    42   20   21 2    
    43   20   22 1    
    44   22   23 1    
    45   22   24 1    
    46   22   80 1    
    47   23   81 1    
    48   23   82 1    
    49   23   83 1    
    50   24   25 am   BACKBONE|DICT|INTERRES
    51   24   84 1    
    52   25   26 2    
    53   27   28 2    
    54   27   29 am   BACKBONE|DICT|INTERRES
    55   29   30 1    
    56   29   85 1    
    57   30   31 1    
    58   30   32 1    
    59   30   86 1    
    60   31   87 1    
    61   31   88 1    
    62   31   89 1    
    63   32   33 2    
    64   32   34 am   BACKBONE|DICT|INTERRES
    65   34   35 1    
    66   34   90 1    
    67   35   36 1    
    68   35   37 1    
    69   35   91 1    
    70   36   92 1    
    71   36   93 1    
    72   36   94 1    
    73   37   38 2    
    74   37   39 am   BACKBONE|DICT|INTERRES
    75   39   40 1    
    76   39   95 1    
    77   40   41 1    
    78   40   42 1    
    79   40   96 1    
    80   41   97 1    
    81   41   98 1    
    82   41   99 1    
    83   42   43 2    
    84   42   44 am   BACKBONE|DICT|INTERRES
    85   44   45 1    
    86   44  100 1    
    87   45   46 1    
    88   45   47 1    
    89   45  101 1    
    90   46  102 1    
    91   46  103 1    
    92   46  104 1    
    93   47   48 2    
    94   47   49 am   BACKBONE|DICT|INTERRES
    95   49   50 1    
    96   49  105 1    
    97   50   51 1    
    98   50   52 1    
    99   50  106 1    
   100   51  107 1    
   101   51  108 1    
   102   51  109 1    
   103   52   53 2    
   104   52   54 am   BACKBONE|DICT|INTERRES
   105   54   55 1    
   106   54  110 1    
   107   55   56 1    
   108   55   59 1    
   109   55  111 1    
   110   56   57 am   BACKBONE|DICT|INTERRES
   111   56   58 2    
   112   57  112 1    
   113   57  113 1    
   114   59   60 1    
   115   59  114 1    
   116   59  115 1    
   117   60   61 1    
   118   61  116 1    
   119   61  117 1    
@<TRIPOS>SUBSTRUCTURE
     1 UNK         1 GROUP             0       ****    0 ROOT    
