@<TRIPOS>MOLECULE
3R8
117   119    1
SMALL
USER_CHARGES


@<TRIPOS>ATOM
      1 CA         18.0968  -26.8543  -40.8482 C.3       0 UNK        -0.2013 
      2 C          18.1612  -26.4749  -42.3198 C.2       0 UNK         0.4866 
      3 O          19.1879  -26.7031  -42.9621 O.2       0 UNK        -0.5176 
      4 N          17.0764  -25.8884  -42.8451 N.am      1 UNK        -0.4884 
      5 CA         16.8838  -25.4968  -44.2506 C.3       1 UNK         0.0853 
      6 C6         16.7846  -26.7235  -45.2060 C.3       10 UNK        -0.0849 
      7 S7         15.5278  -27.9409  -44.6823 S.3       10 UNK        -0.2776 
      8 C8         16.0450  -29.4266  -45.6033 C.3       10 UNK         0.0316 
      9 C9         17.3858  -29.9685  -45.1250 C.ar      10 UNK        -0.0863 
     10 C10        17.4692  -30.6878  -43.9289 C.ar      10 UNK        -0.1009 
     11 C11        18.6957  -31.1964  -43.4919 C.ar      10 UNK        -0.0712 
     12 C12        19.8482  -30.9619  -44.2497 C.ar      10 UNK        -0.0894 
     13 C13        19.7772  -30.2578  -45.4562 C.ar      10 UNK        -0.0745 
     14 C14        18.5394  -29.7724  -45.8911 C.ar      10 UNK        -0.0972 
     15 C15        21.0270  -30.0795  -46.3137 C.3       10 UNK         0.0209 
     16 S16        21.3103  -28.3564  -46.8386 S.3       10 UNK        -0.2568 
     17 C17        21.8517  -27.6029  -45.2728 C.3       10 UNK        -0.0983 
     18 CA         22.0524  -26.0700  -45.3884 C.3       3 UNK         0.0876 
     19 N          20.8205  -25.3956  -45.8061 N.am      3 UNK        -0.4424 
     20 C          20.7288  -24.1313  -46.2410 C.2       2 UNK         0.4918 
     21 O          21.6954  -23.3795  -46.3660 O.2       2 UNK        -0.4875 
     22 CA         19.3204  -23.6140  -46.5983 C.3       2 UNK         0.0481 
     23 CB         19.1407  -23.5661  -48.1241 C.3       2 UNK        -0.1831 
     24 N          18.2424  -24.4197  -46.0131 N.am      2 UNK        -0.4498 
     25 C          17.9352  -24.4523  -44.7074 C.2       1 UNK         0.5027 
     26 O          18.4643  -23.7066  -43.8782 O.2       1 UNK        -0.4969 
     27 C          22.6043  -25.5272  -44.0552 C.2       3 UNK         0.5005 
     28 O          23.8005  -25.6774  -43.8032 O.2       3 UNK        -0.5279 
     29 N          21.7219  -24.9603  -43.2136 N.am      4 UNK        -0.4463 
     30 CA         21.9378  -24.6446  -41.7953 C.3       4 UNK         0.0283 
     31 CB         22.9899  -23.5306  -41.6126 C.3       4 UNK        -0.1875 
     32 C          22.2536  -25.9239  -40.9956 C.2       4 UNK         0.4949 
     33 O          23.1917  -25.9538  -40.1977 O.2       4 UNK        -0.5039 
     34 N          21.4847  -26.9814  -41.2904 N.am      5 UNK        -0.4663 
     35 CA         21.5573  -28.3668  -40.8165 C.3       5 UNK         0.0242 
     36 CB         21.3652  -28.4611  -39.2910 C.3       5 UNK        -0.1982 
     37 C          22.8010  -29.1465  -41.2690 C.2       5 UNK         0.5017 
     38 O          22.6771  -30.3301  -41.5856 O.2       5 UNK        -0.5012 
     39 N          23.9729  -28.4945  -41.2635 N.am      6 UNK        -0.4439 
     40 CA         25.2910  -28.9990  -41.6796 C.3       6 UNK         0.0297 
     41 CB         25.3197  -29.1882  -43.2111 C.3       6 UNK        -0.2006 
     42 C          25.7537  -30.2680  -40.9288 C.2       6 UNK         0.4892 
     43 O          26.5761  -31.0196  -41.4541 O.2       6 UNK        -0.5089 
     44 N          25.1879  -30.4960  -39.7320 N.am      7 UNK        -0.4243 
     45 CA         25.2813  -31.7053  -38.9023 C.3       7 UNK         0.0196 
     46 CB         26.7237  -31.9172  -38.3946 C.3       7 UNK        -0.2007 
     47 C          24.6983  -32.9747  -39.5659 C.2       7 UNK         0.5020 
     48 O          24.9669  -34.0779  -39.0880 O.2       7 UNK        -0.5147 
     49 N          23.9100  -32.8158  -40.6392 N.am      8 UNK        -0.4734 
     50 CA         23.2979  -33.9150  -41.3883 C.3       8 UNK         0.0238 
     51 CB         23.2018  -33.5195  -42.8710 C.3       8 UNK        -0.1912 
     52 C          21.9125  -34.2938  -40.8444 C.2       8 UNK         0.5038 
     53 O          21.5124  -35.4501  -40.9866 O.2       8 UNK        -0.5046 
     54 N          21.2014  -33.3241  -40.2536 N.am      9 UNK        -0.4200 
     55 CA         19.8712  -33.5104  -39.6560 C.3       9 UNK         0.0839 
     56 C          19.9220  -34.3872  -38.3750 C.2       9 UNK         0.5513 
     57 N          18.9105  -35.2138  -38.1478 N.am      9 UNK        -0.7519 
     58 O          20.8430  -34.2896  -37.5665 O.2       9 UNK        -0.4960 
     59 C59        19.1778  -32.1543  -39.3557 C.3       10 UNK        -0.0876 
     60 S60        19.0022  -30.9860  -40.7541 S.3       10 UNK        -0.2414 
     61 C61        18.7720  -32.0326  -42.2235 C.3       10 UNK         0.0169 
     62 H62        18.3318  -27.9113  -40.7259 H         1 UNK         0.0903 
     63 H63        17.1084  -26.6789  -40.4242 H         1 UNK         0.0903 
     64 H64        18.8200  -26.2738  -40.2764 H         1 UNK         0.0903 
     65 H65        16.2858  -25.7028  -42.2442 H         1 UNK         0.3096 
     66 H66        15.9267  -24.9738  -44.2871 H         1 UNK         0.1121 
     67 H67        17.7549  -27.2168  -45.2708 H         1 UNK         0.0849 
     68 H68        16.5194  -26.4169  -46.2189 H         1 UNK         0.0849 
     69 H69        15.2825  -30.1977  -45.4840 H         1 UNK         0.0865 
     70 H70        16.0771  -29.1969  -46.6696 H         1 UNK         0.0865 
     71 H71        16.5774  -30.8563  -43.3406 H         1 UNK         0.1346 
     72 H72        20.7976  -31.3499  -43.9083 H         1 UNK         0.1412 
     73 H73        18.4777  -29.2367  -46.8286 H         1 UNK         0.1426 
     74 H74        21.9147  -30.4391  -45.7905 H         1 UNK         0.0716 
     75 H75        20.9241  -30.7003  -47.2045 H         1 UNK         0.0716 
     76 H76        22.7806  -28.0917  -44.9719 H         1 UNK         0.0695 
     77 H77        21.1167  -27.8397  -44.5006 H         1 UNK         0.0695 
     78 H78        22.8123  -25.8783  -46.1493 H         1 UNK         0.0983 
     79 H79        19.9794  -25.9491  -45.7464 H         1 UNK         0.3095 
     80 H80        19.2362  -22.5955  -46.2134 H         1 UNK         0.0454 
     81 H81        18.1751  -23.1408  -48.3981 H         1 UNK         0.0851 
     82 H82        19.2122  -24.5580  -48.5722 H         1 UNK         0.0851 
     83 H83        19.9081  -22.9446  -48.5878 H         1 UNK         0.0851 
     84 H84        17.7501  -25.0344  -46.6452 H         1 UNK         0.2976 
     85 H85        20.7582  -24.9126  -43.5223 H         1 UNK         0.3116 
     86 H86        20.9865  -24.2688  -41.4155 H         1 UNK         0.0646 
     87 H87        22.7385  -22.6477  -42.2000 H         1 UNK         0.0847 
     88 H88        23.0481  -23.2206  -40.5686 H         1 UNK         0.0847 
     89 H89        23.9876  -23.8569  -41.9069 H         1 UNK         0.0847 
     90 H90        20.7571  -26.8315  -41.9887 H         1 UNK         0.3040 
     91 H91        20.7115  -28.8581  -41.2955 H         1 UNK         0.1015 
     92 H92        20.4262  -28.0024  -38.9821 H         1 UNK         0.0786 
     93 H93        22.1728  -27.9737  -38.7444 H         1 UNK         0.0786 
     94 H94        21.3360  -29.5023  -38.9674 H         1 UNK         0.0786 
     95 H95        23.9457  -27.5311  -40.9351 H         1 UNK         0.3172 
     96 H96        26.0092  -28.2181  -41.4266 H         1 UNK         0.0595 
     97 H97        25.0231  -28.2750  -43.7272 H         1 UNK         0.0839 
     98 H98        24.6507  -29.9878  -43.5316 H         1 UNK         0.0839 
     99 H99        26.3215  -29.4419  -43.5596 H         1 UNK         0.0839 
    100 H100       24.5339  -29.7991  -39.4043 H         1 UNK         0.2998 
    101 H101       24.6532  -31.5166  -38.0304 H         1 UNK         0.0822 
    102 H102       27.1149  -31.0163  -37.9220 H         1 UNK         0.0787 
    103 H103       26.7646  -32.7141  -37.6510 H         1 UNK         0.0787 
    104 H104       27.4016  -32.1946  -39.2023 H         1 UNK         0.0787 
    105 H105       23.7042  -31.8764  -40.9690 H         1 UNK         0.3055 
    106 H106       23.9320  -34.8019  -41.3169 H         1 UNK         0.1106 
    107 H107       24.1857  -33.3011  -43.2865 H         1 UNK         0.0828 
    108 H108       22.7702  -34.3267  -43.4644 H         1 UNK         0.0828 
    109 H109       22.5765  -32.6384  -43.0142 H         1 UNK         0.0828 
    110 H110       21.6024  -32.4007  -40.1866 H         1 UNK         0.2931 
    111 H111       19.2612  -34.0459  -40.3858 H         1 UNK         0.0412 
    112 H112       18.1450  -35.2945  -38.7994 H         1 UNK         0.3472 
    113 H113       18.9173  -35.7788  -37.3125 H         1 UNK         0.3472 
    114 H114       18.1747  -32.3332  -38.9640 H         1 UNK         0.0970 
    115 H115       19.7128  -31.6293  -38.5619 H         1 UNK         0.0970 
    116 H116       17.8629  -32.6242  -42.1066 H         1 UNK         0.0612 
    117 H117       19.5946  -32.7403  -42.3196 H         1 UNK         0.0612 
@<TRIPOS>BOND
     1    1    2 1    
     2    1   62 1    
     3    1   63 1    
     4    1   64 1    
     5    2    3 2    
     6    2    4 am   BACKBONE|DICT|INTERRES
     7    4    5 1    
     8    4   65 1    
     9    5    6 1    
    10    5   25 1    
    11    5   66 1    
    12    6    7 1    
    13    6   67 1    
    14    6   68 1    
    15    7    8 1    
    16    8    9 1    
    17    8   69 1    
    18    8   70 1    
    19    9   10 ar   
    20    9   14 ar   
    21   10   11 ar   
    22   10   71 1    
    23   11   12 ar   
    24   11   61 1    
    25   12   13 ar   
    26   12   72 1    
    27   13   14 ar   
    28   13   15 1    
    29   14   73 1    
    30   15   16 1    
    31   15   74 1    
    32   15   75 1    
    33   16   17 1    
    34   17   18 1    
    35   17   76 1    
    36   17   77 1    
    37   18   19 1    
    38   18   27 1    
    39   18   78 1    
    40   19   20 am   BACKBONE|DICT|INTERRES
    41   19   79 1    
    42   20   21 2    
    43   20   22 1    
    44   22   23 1    
    45   22   24 1    
    46   22   80 1    
    47   23   81 1    
    48   23   82 1    
    49   23   83 1    
    50   24   25 am   BACKBONE|DICT|INTERRES
    51   24   84 1    
    52   25   26 2    
    53   27   28 2    
    54   27   29 am   BACKBONE|DICT|INTERRES
    55   29   30 1    
    56   29   85 1    
    57   30   31 1    
    58   30   32 1    
    59   30   86 1    
    60   31   87 1    
    61   31   88 1    
    62   31   89 1    
    63   32   33 2    
    64   32   34 am   BACKBONE|DICT|INTERRES
    65   34   35 1    
    66   34   90 1    
    67   35   36 1    
    68   35   37 1    
    69   35   91 1    
    70   36   92 1    
    71   36   93 1    
    72   36   94 1    
    73   37   38 2    
    74   37   39 am   BACKBONE|DICT|INTERRES
    75   39   40 1    
    76   39   95 1    
    77   40   41 1    
    78   40   42 1    
    79   40   96 1    
    80   41   97 1    
    81   41   98 1    
    82   41   99 1    
    83   42   43 2    
    84   42   44 am   BACKBONE|DICT|INTERRES
    85   44   45 1    
    86   44  100 1    
    87   45   46 1    
    88   45   47 1    
    89   45  101 1    
    90   46  102 1    
    91   46  103 1    
    92   46  104 1    
    93   47   48 2    
    94   47   49 am   BACKBONE|DICT|INTERRES
    95   49   50 1    
    96   49  105 1    
    97   50   51 1    
    98   50   52 1    
    99   50  106 1    
   100   51  107 1    
   101   51  108 1    
   102   51  109 1    
   103   52   53 2    
   104   52   54 am   BACKBONE|DICT|INTERRES
   105   54   55 1    
   106   54  110 1    
   107   55   56 1    
   108   55   59 1    
   109   55  111 1    
   110   56   57 am   BACKBONE|DICT|INTERRES
   111   56   58 2    
   112   57  112 1    
   113   57  113 1    
   114   59   60 1    
   115   59  114 1    
   116   59  115 1    
   117   60   61 1    
   118   61  116 1    
   119   61  117 1    
@<TRIPOS>SUBSTRUCTURE
     1 UNK         1 GROUP             0       ****    0 ROOT    
