@<TRIPOS>MOLECULE
3R8
117   119    1
SMALL
USER_CHARGES


@<TRIPOS>ATOM
      1 CA         16.3714  -21.9913  -43.9135 C.3       0 UNK        -0.2013 
      2 C          16.7906  -23.4481  -43.7821 C.2       0 UNK         0.4866 
      3 O          16.9850  -23.9219  -42.6624 O.2       0 UNK        -0.5176 
      4 N          16.9187  -24.1511  -44.9187 N.am      1 UNK        -0.4884 
      5 CA         17.3779  -25.5421  -45.0739 C.3       1 UNK         0.0853 
      6 C6         16.5353  -26.5737  -44.2603 C.3       10 UNK        -0.0849 
      7 S7         15.3690  -27.5329  -45.2840 S.3       10 UNK        -0.2776 
      8 C8         16.4143  -28.8459  -46.0180 C.3       10 UNK         0.0316 
      9 C9         17.1591  -29.7669  -45.0455 C.ar      10 UNK        -0.0863 
     10 C10        18.2029  -30.5528  -45.5478 C.ar      10 UNK        -0.1009 
     11 C11        18.9209  -31.4147  -44.7127 C.ar      10 UNK        -0.0712 
     12 C12        18.5904  -31.4887  -43.3588 C.ar      10 UNK        -0.0894 
     13 C13        17.5573  -30.7079  -42.8371 C.ar      10 UNK        -0.0745 
     14 C14        16.8284  -29.8720  -43.6872 C.ar      10 UNK        -0.0972 
     15 C15        17.2295  -30.7749  -41.3539 C.3       10 UNK         0.0209 
     16 S16        18.6240  -30.2203  -40.3216 S.3       10 UNK        -0.2568 
     17 C17        18.7079  -28.4347  -40.6790 C.3       10 UNK        -0.0983 
     18 CA         20.0996  -28.0070  -41.2331 C.3       3 UNK         0.0876 
     19 N          20.0917  -27.8711  -42.6976 N.am      3 UNK        -0.4424 
     20 C          21.1298  -27.5010  -43.4667 C.2       2 UNK         0.4918 
     21 O          22.2602  -27.2832  -43.0341 O.2       2 UNK        -0.4875 
     22 CA         20.8460  -27.2230  -44.9544 C.3       2 UNK         0.0481 
     23 CB         21.2449  -28.4187  -45.8279 C.3       2 UNK        -0.1831 
     24 N          19.4521  -26.8463  -45.2177 N.am      2 UNK        -0.4498 
     25 C          18.8905  -25.7043  -44.7908 C.2       1 UNK         0.5027 
     26 O          19.5212  -24.8412  -44.1761 O.2       1 UNK        -0.4969 
     27 C          20.6118  -26.7468  -40.4949 C.2       3 UNK         0.5005 
     28 O          21.1794  -26.8840  -39.4103 O.2       3 UNK        -0.5279 
     29 N          20.4293  -25.5536  -41.0856 N.am      4 UNK        -0.4463 
     30 CA         20.9573  -24.2881  -40.5678 C.3       4 UNK         0.0283 
     31 CB         20.2973  -23.1144  -41.3083 C.3       4 UNK        -0.1875 
     32 C          22.4918  -24.1839  -40.6570 C.2       4 UNK         0.4949 
     33 O          23.0860  -23.4656  -39.8525 O.2       4 UNK        -0.5039 
     34 N          23.1053  -24.8924  -41.6157 N.am      5 UNK        -0.4663 
     35 CA         24.5560  -25.0149  -41.7506 C.3       5 UNK         0.0242 
     36 CB         24.9390  -25.1585  -43.2340 C.3       5 UNK        -0.1982 
     37 C          25.0654  -26.2004  -40.9194 C.2       5 UNK         0.5017 
     38 O          25.9410  -26.0078  -40.0749 O.2       5 UNK        -0.5012 
     39 N          24.4939  -27.3906  -41.1484 N.am      6 UNK        -0.4439 
     40 CA         24.7848  -28.6198  -40.4137 C.3       6 UNK         0.0297 
     41 CB         26.1781  -29.1693  -40.7819 C.3       6 UNK        -0.2006 
     42 C          23.7074  -29.6600  -40.7306 C.2       6 UNK         0.4892 
     43 O          23.3741  -29.8525  -41.8990 O.2       6 UNK        -0.5089 
     44 N          23.2250  -30.3573  -39.6953 N.am      7 UNK        -0.4243 
     45 CA         22.2350  -31.4366  -39.8045 C.3       7 UNK         0.0196 
     46 CB         21.5466  -31.6155  -38.4411 C.3       7 UNK        -0.2007 
     47 C          22.8175  -32.7739  -40.3050 C.2       7 UNK         0.5020 
     48 O          22.0628  -33.7310  -40.4805 O.2       7 UNK        -0.5147 
     49 N          24.1392  -32.8284  -40.5282 N.am      8 UNK        -0.4734 
     50 CA         24.9053  -34.0012  -40.9682 C.3       8 UNK         0.0238 
     51 CB         26.3975  -33.6314  -41.0081 C.3       8 UNK        -0.1912 
     52 C          24.4660  -34.6047  -42.3164 C.2       8 UNK         0.5038 
     53 O          24.7670  -35.7719  -42.5709 O.2       8 UNK        -0.5046 
     54 N          23.7600  -33.8216  -43.1423 N.am      9 UNK        -0.4200 
     55 CA         23.0863  -34.2860  -44.3630 C.3       9 UNK         0.0839 
     56 C          21.8676  -35.2264  -44.1193 C.2       9 UNK         0.5513 
     57 N          21.3236  -35.3224  -42.9109 N.am      9 UNK        -0.7519 
     58 O          21.4134  -35.8876  -45.0494 O.2       9 UNK        -0.4960 
     59 C59        22.7320  -33.1056  -45.3059 C.3       10 UNK        -0.0876 
     60 S60        21.6550  -31.8440  -44.5399 S.3       10 UNK        -0.2414 
     61 C61        20.0431  -32.2801  -45.2667 C.3       10 UNK         0.0169 
     62 H62        15.4153  -21.8302  -43.4163 H         1 UNK         0.0903 
     63 H63        17.1130  -21.3457  -43.4437 H         1 UNK         0.0903 
     64 H64        16.2686  -21.6867  -44.9548 H         1 UNK         0.0903 
     65 H65        16.7490  -23.6718  -45.7925 H         1 UNK         0.3096 
     66 H66        17.2664  -25.7539  -46.1387 H         1 UNK         0.1121 
     67 H67        17.1592  -27.2588  -43.6890 H         1 UNK         0.0849 
     68 H68        15.9302  -26.0828  -43.4986 H         1 UNK         0.0849 
     69 H69        15.7742  -29.4686  -46.6446 H         1 UNK         0.0865 
     70 H70        17.1270  -28.3754  -46.6963 H         1 UNK         0.0865 
     71 H71        18.4571  -30.4966  -46.5978 H         1 UNK         0.1346 
     72 H72        19.1501  -32.1454  -42.7060 H         1 UNK         0.1412 
     73 H73        16.0097  -29.2970  -43.2784 H         1 UNK         0.1426 
     74 H74        16.9865  -31.8055  -41.0919 H         1 UNK         0.0716 
     75 H75        16.3464  -30.1801  -41.1149 H         1 UNK         0.0716 
     76 H76        17.9042  -28.1448  -41.3574 H         1 UNK         0.0695 
     77 H77        18.4705  -27.9382  -39.7354 H         1 UNK         0.0695 
     78 H78        20.8302  -28.7857  -41.0080 H         1 UNK         0.0983 
     79 H79        19.2164  -28.0732  -43.1546 H         1 UNK         0.3095 
     80 H80        21.4765  -26.3803  -45.2467 H         1 UNK         0.0454 
     81 H81        22.2834  -28.7021  -45.6497 H         1 UNK         0.0851 
     82 H82        20.6337  -29.2919  -45.6147 H         1 UNK         0.0851 
     83 H83        21.1488  -28.1893  -46.8890 H         1 UNK         0.0851 
     84 H84        18.8915  -27.5178  -45.7206 H         1 UNK         0.2976 
     85 H85        19.9587  -25.5121  -41.9816 H         1 UNK         0.3116 
     86 H86        20.6842  -24.2175  -39.5127 H         1 UNK         0.0646 
     87 H87        20.6336  -22.1592  -40.9030 H         1 UNK         0.0847 
     88 H88        19.2120  -23.1423  -41.2115 H         1 UNK         0.0847 
     89 H89        20.5395  -23.1192  -42.3716 H         1 UNK         0.0847 
     90 H90        22.5499  -25.5101  -42.1977 H         1 UNK         0.3040 
     91 H91        25.0361  -24.1094  -41.3719 H         1 UNK         0.1015 
     92 H92        24.6084  -24.2949  -43.8112 H         1 UNK         0.0786 
     93 H93        24.5063  -26.0489  -43.6902 H         1 UNK         0.0786 
     94 H94        26.0214  -25.2293  -43.3488 H         1 UNK         0.0786 
     95 H95        23.7632  -27.4703  -41.8553 H         1 UNK         0.3172 
     96 H96        24.7567  -28.3956  -39.3452 H         1 UNK         0.0595 
     97 H97        26.2601  -29.3674  -41.8515 H         1 UNK         0.0839 
     98 H98        26.3826  -30.1047  -40.2597 H         1 UNK         0.0839 
     99 H99        26.9723  -28.4743  -40.5100 H         1 UNK         0.0839 
    100 H100       23.5634  -30.1502  -38.7658 H         1 UNK         0.2998 
    101 H101       21.4777  -31.1383  -40.5323 H         1 UNK         0.0822 
    102 H102       21.0757  -30.6889  -38.1115 H         1 UNK         0.0787 
    103 H103       20.7605  -32.3701  -38.4960 H         1 UNK         0.0787 
    104 H104       22.2503  -31.9312  -37.6701 H         1 UNK         0.0787 
    105 H105       24.6680  -31.9852  -40.3640 H         1 UNK         0.3055 
    106 H106       24.7635  -34.7808  -40.2166 H         1 UNK         0.1106 
    107 H107       26.5957  -32.8301  -41.7213 H         1 UNK         0.0828 
    108 H108       26.7547  -33.3084  -40.0301 H         1 UNK         0.0828 
    109 H109       27.0055  -34.4877  -41.3039 H         1 UNK         0.0828 
    110 H110       23.5430  -32.8795  -42.8497 H         1 UNK         0.2931 
    111 H111       23.8144  -34.8968  -44.9006 H         1 UNK         0.0412 
    112 H112       20.5401  -35.9401  -42.7721 H         1 UNK         0.3472 
    113 H113       21.6719  -34.7697  -42.1341 H         1 UNK         0.3472 
    114 H114       22.2805  -33.4708  -46.2303 H         1 UNK         0.0970 
    115 H115       23.6513  -32.6062  -45.6152 H         1 UNK         0.0970 
    116 H116       19.8167  -33.3258  -45.0564 H         1 UNK         0.0612 
    117 H117       20.1051  -32.1854  -46.3518 H         1 UNK         0.0612 
@<TRIPOS>BOND
     1    1    2 1    
     2    1   62 1    
     3    1   63 1    
     4    1   64 1    
     5    2    3 2    
     6    2    4 am   BACKBONE|DICT|INTERRES
     7    4    5 1    
     8    4   65 1    
     9    5    6 1    
    10    5   25 1    
    11    5   66 1    
    12    6    7 1    
    13    6   67 1    
    14    6   68 1    
    15    7    8 1    
    16    8    9 1    
    17    8   69 1    
    18    8   70 1    
    19    9   10 ar   
    20    9   14 ar   
    21   10   11 ar   
    22   10   71 1    
    23   11   12 ar   
    24   11   61 1    
    25   12   13 ar   
    26   12   72 1    
    27   13   14 ar   
    28   13   15 1    
    29   14   73 1    
    30   15   16 1    
    31   15   74 1    
    32   15   75 1    
    33   16   17 1    
    34   17   18 1    
    35   17   76 1    
    36   17   77 1    
    37   18   19 1    
    38   18   27 1    
    39   18   78 1    
    40   19   20 am   BACKBONE|DICT|INTERRES
    41   19   79 1    
    42   20   21 2    
    43   20   22 1    
    44   22   23 1    
    45   22   24 1    
    46   22   80 1    
    47   23   81 1    
    48   23   82 1    
    49   23   83 1    
    50   24   25 am   BACKBONE|DICT|INTERRES
    51   24   84 1    
    52   25   26 2    
    53   27   28 2    
    54   27   29 am   BACKBONE|DICT|INTERRES
    55   29   30 1    
    56   29   85 1    
    57   30   31 1    
    58   30   32 1    
    59   30   86 1    
    60   31   87 1    
    61   31   88 1    
    62   31   89 1    
    63   32   33 2    
    64   32   34 am   BACKBONE|DICT|INTERRES
    65   34   35 1    
    66   34   90 1    
    67   35   36 1    
    68   35   37 1    
    69   35   91 1    
    70   36   92 1    
    71   36   93 1    
    72   36   94 1    
    73   37   38 2    
    74   37   39 am   BACKBONE|DICT|INTERRES
    75   39   40 1    
    76   39   95 1    
    77   40   41 1    
    78   40   42 1    
    79   40   96 1    
    80   41   97 1    
    81   41   98 1    
    82   41   99 1    
    83   42   43 2    
    84   42   44 am   BACKBONE|DICT|INTERRES
    85   44   45 1    
    86   44  100 1    
    87   45   46 1    
    88   45   47 1    
    89   45  101 1    
    90   46  102 1    
    91   46  103 1    
    92   46  104 1    
    93   47   48 2    
    94   47   49 am   BACKBONE|DICT|INTERRES
    95   49   50 1    
    96   49  105 1    
    97   50   51 1    
    98   50   52 1    
    99   50  106 1    
   100   51  107 1    
   101   51  108 1    
   102   51  109 1    
   103   52   53 2    
   104   52   54 am   BACKBONE|DICT|INTERRES
   105   54   55 1    
   106   54  110 1    
   107   55   56 1    
   108   55   59 1    
   109   55  111 1    
   110   56   57 am   BACKBONE|DICT|INTERRES
   111   56   58 2    
   112   57  112 1    
   113   57  113 1    
   114   59   60 1    
   115   59  114 1    
   116   59  115 1    
   117   60   61 1    
   118   61  116 1    
   119   61  117 1    
@<TRIPOS>SUBSTRUCTURE
     1 UNK         1 GROUP             0       ****    0 ROOT    
