@<TRIPOS>MOLECULE
3R8
117   119    1
SMALL
USER_CHARGES


@<TRIPOS>ATOM
      1 CA         13.1106  -24.4237  -47.1655 C.3       0 UNK        -0.2013 
      2 C          14.5763  -24.7681  -47.3846 C.2       0 UNK         0.4866 
      3 O          15.2145  -24.1957  -48.2690 O.2       0 UNK        -0.5176 
      4 N          15.1120  -25.7054  -46.5934 N.am      1 UNK        -0.4884 
      5 CA         16.5159  -26.1278  -46.6303 C.3       1 UNK         0.0853 
      6 C6         16.7496  -27.4200  -45.8124 C.3       10 UNK        -0.0849 
      7 S7         15.8553  -28.8673  -46.4677 S.3       10 UNK        -0.2776 
      8 C8         15.3656  -29.7187  -44.9303 C.3       10 UNK         0.0316 
      9 C9         16.5590  -30.0099  -44.0279 C.ar      10 UNK        -0.0863 
     10 C10        17.4712  -31.0147  -44.3650 C.ar      10 UNK        -0.1009 
     11 C11        18.5744  -31.2767  -43.5466 C.ar      10 UNK        -0.0712 
     12 C12        18.7615  -30.5215  -42.3843 C.ar      10 UNK        -0.0894 
     13 C13        17.8486  -29.5251  -42.0276 C.ar      10 UNK        -0.0745 
     14 C14        16.7494  -29.2740  -42.8534 C.ar      10 UNK        -0.0972 
     15 C15        18.0296  -28.7503  -40.7292 C.3       10 UNK         0.0209 
     16 S16        19.5405  -27.7354  -40.7209 S.3       10 UNK        -0.2568 
     17 C17        19.0942  -26.3551  -41.8300 C.3       10 UNK        -0.0983 
     18 CA         20.2668  -25.9406  -42.7546 C.3       3 UNK         0.0876 
     19 N          19.7847  -25.1812  -43.9096 N.am      3 UNK        -0.4424 
     20 C          20.4936  -24.9289  -45.0169 C.2       2 UNK         0.4918 
     21 O          21.6394  -25.3417  -45.2056 O.2       2 UNK        -0.4875 
     22 CA         19.7639  -24.1365  -46.1194 C.3       2 UNK         0.0481 
     23 CB         20.6950  -23.7362  -47.2789 C.3       2 UNK        -0.1831 
     24 N          18.6542  -24.9323  -46.6488 N.am      2 UNK        -0.4498 
     25 C          17.4441  -25.0267  -46.0829 C.2       1 UNK         0.5027 
     26 O          17.0936  -24.3563  -45.1072 O.2       1 UNK        -0.4969 
     27 C          21.3589  -25.1591  -41.9899 C.2       3 UNK         0.5005 
     28 O          21.3244  -23.9258  -41.9422 O.2       3 UNK        -0.5279 
     29 N          22.2913  -25.9018  -41.3889 N.am      4 UNK        -0.4463 
     30 CA         23.4077  -25.4305  -40.5788 C.3       4 UNK         0.0283 
     31 CB         24.5274  -24.8867  -41.4880 C.3       4 UNK        -0.1875 
     32 C          23.9001  -26.6181  -39.7428 C.2       4 UNK         0.4949 
     33 O          23.4955  -27.7543  -39.9996 O.2       4 UNK        -0.5039 
     34 N          24.8032  -26.3578  -38.7888 N.am      5 UNK        -0.4663 
     35 CA         25.4091  -27.3739  -37.9133 C.3       5 UNK         0.0242 
     36 CB         26.2809  -26.6722  -36.8590 C.3       5 UNK        -0.1982 
     37 C          26.2249  -28.4553  -38.6531 C.2       5 UNK         0.5017 
     38 O          26.4263  -29.5395  -38.1061 O.2       5 UNK        -0.5012 
     39 N          26.6664  -28.1444  -39.8789 N.am      6 UNK        -0.4439 
     40 CA         27.3795  -29.0470  -40.7827 C.3       6 UNK         0.0297 
     41 CB         28.2111  -28.1994  -41.7616 C.3       6 UNK        -0.2006 
     42 C          26.4625  -30.0190  -41.5552 C.2       6 UNK         0.4892 
     43 O          26.9917  -30.8827  -42.2572 O.2       6 UNK        -0.5089 
     44 N          25.1310  -29.8647  -41.4598 N.am      7 UNK        -0.4243 
     45 CA         24.1494  -30.7092  -42.1500 C.3       7 UNK         0.0196 
     46 CB         22.7474  -30.0968  -42.0010 C.3       7 UNK        -0.2007 
     47 C          24.1655  -32.1627  -41.6422 C.2       7 UNK         0.5020 
     48 O          24.3402  -32.3962  -40.4446 O.2       7 UNK        -0.5147 
     49 N          23.9736  -33.1119  -42.5670 N.am      8 UNK        -0.4734 
     50 CA         24.0549  -34.5536  -42.3035 C.3       8 UNK         0.0238 
     51 CB         24.3249  -35.2860  -43.6289 C.3       8 UNK        -0.1912 
     52 C          22.8128  -35.1452  -41.6134 C.2       8 UNK         0.5038 
     53 O          22.9137  -36.2317  -41.0414 O.2       8 UNK        -0.5046 
     54 N          21.6701  -34.4531  -41.7035 N.am      9 UNK        -0.4200 
     55 CA         20.3857  -34.8653  -41.1171 C.3       9 UNK         0.0839 
     56 C          20.4221  -34.8951  -39.5648 C.2       9 UNK         0.5513 
     57 N          19.7929  -35.8858  -38.9478 N.am      9 UNK        -0.7519 
     58 O          20.9706  -34.0044  -38.9198 O.2       9 UNK        -0.4960 
     59 C59        19.2162  -33.9762  -41.6102 C.3       10 UNK        -0.0876 
     60 S60        18.9977  -34.0216  -43.4236 S.3       10 UNK        -0.2414 
     61 C61        19.5663  -32.3670  -43.9284 C.3       10 UNK         0.0169 
     62 H62        12.6681  -25.0139  -46.3632 H         1 UNK         0.0903 
     63 H63        13.0078  -23.3700  -46.9074 H         1 UNK         0.0903 
     64 H64        12.5413  -24.6090  -48.0759 H         1 UNK         0.0903 
     65 H65        14.5453  -26.1377  -45.8782 H         1 UNK         0.3096 
     66 H66        16.7824  -26.3185  -47.6726 H         1 UNK         0.1121 
     67 H67        17.8095  -27.6837  -45.7897 H         1 UNK         0.0849 
     68 H68        16.4595  -27.2518  -44.7739 H         1 UNK         0.0849 
     69 H69        14.6230  -29.1138  -44.4075 H         1 UNK         0.0865 
     70 H70        14.8676  -30.6551  -45.1860 H         1 UNK         0.0865 
     71 H71        17.3249  -31.5897  -45.2695 H         1 UNK         0.1346 
     72 H72        19.6144  -30.7081  -41.7469 H         1 UNK         0.1412 
     73 H73        16.0399  -28.5047  -42.5803 H         1 UNK         0.1426 
     74 H74        18.0840  -29.4608  -39.9032 H         1 UNK         0.0716 
     75 H75        17.1678  -28.1127  -40.5256 H         1 UNK         0.0716 
     76 H76        18.7402  -25.5125  -41.2328 H         1 UNK         0.0695 
     77 H77        18.2441  -26.6703  -42.4374 H         1 UNK         0.0695 
     78 H78        20.7220  -26.8502  -43.1546 H         1 UNK         0.0983 
     79 H79        18.8512  -24.7950  -43.8453 H         1 UNK         0.3095 
     80 H80        19.3784  -23.2180  -45.6716 H         1 UNK         0.0454 
     81 H81        21.1155  -24.6069  -47.7837 H         1 UNK         0.0851 
     82 H82        21.5300  -23.1346  -46.9174 H         1 UNK         0.0851 
     83 H83        20.1669  -23.1402  -48.0232 H         1 UNK         0.0851 
     84 H84        18.8787  -25.5444  -47.4209 H         1 UNK         0.2976 
     85 H85        22.2018  -26.9124  -41.3841 H         1 UNK         0.3116 
     86 H86        23.0582  -24.6484  -39.9018 H         1 UNK         0.0646 
     87 H87        24.9028  -25.6539  -42.1665 H         1 UNK         0.0847 
     88 H88        25.3730  -24.5219  -40.9040 H         1 UNK         0.0847 
     89 H89        24.1770  -24.0513  -42.0943 H         1 UNK         0.0847 
     90 H90        25.0907  -25.4007  -38.6375 H         1 UNK         0.3040 
     91 H91        24.5963  -27.8906  -37.3977 H         1 UNK         0.1015 
     92 H92        25.6954  -25.9765  -36.2575 H         1 UNK         0.0786 
     93 H93        27.0996  -26.1159  -37.3173 H         1 UNK         0.0786 
     94 H94        26.7232  -27.3960  -36.1727 H         1 UNK         0.0786 
     95 H95        26.4501  -27.2243  -40.2328 H         1 UNK         0.3172 
     96 H96        28.0689  -29.6556  -40.1937 H         1 UNK         0.0595 
     97 H97        27.5789  -27.5728  -42.3921 H         1 UNK         0.0839 
     98 H98        28.8035  -28.8328  -42.4236 H         1 UNK         0.0839 
     99 H99        28.9088  -27.5501  -41.2324 H         1 UNK         0.0839 
    100 H100       24.7564  -29.1538  -40.8410 H         1 UNK         0.2998 
    101 H101       24.4104  -30.7081  -43.2106 H         1 UNK         0.0822 
    102 H102       22.7194  -29.0722  -42.3716 H         1 UNK         0.0787 
    103 H103       22.0116  -30.6616  -42.5705 H         1 UNK         0.0787 
    104 H104       22.4194  -30.0872  -40.9604 H         1 UNK         0.0787 
    105 H105       23.8354  -32.8360  -43.5293 H         1 UNK         0.3055 
    106 H106       24.9030  -34.7335  -41.6383 H         1 UNK         0.1106 
    107 H107       24.4280  -36.3602  -43.4681 H         1 UNK         0.0828 
    108 H108       23.5141  -35.1412  -44.3441 H         1 UNK         0.0828 
    109 H109       25.2496  -34.9417  -44.0925 H         1 UNK         0.0828 
    110 H110       21.6865  -33.5643  -42.1766 H         1 UNK         0.2931 
    111 H111       20.1958  -35.8829  -41.4658 H         1 UNK         0.0412 
    112 H112       19.3312  -36.6154  -39.4693 H         1 UNK         0.3472 
    113 H113       19.7900  -35.9130  -37.9397 H         1 UNK         0.3472 
    114 H114       18.2766  -34.3128  -41.1677 H         1 UNK         0.0970 
    115 H115       19.3511  -32.9516  -41.2666 H         1 UNK         0.0970 
    116 H116       20.5460  -32.1725  -43.4940 H         1 UNK         0.0612 
    117 H117       19.7095  -32.3631  -45.0100 H         1 UNK         0.0612 
@<TRIPOS>BOND
     1    1    2 1    
     2    1   62 1    
     3    1   63 1    
     4    1   64 1    
     5    2    3 2    
     6    2    4 am   BACKBONE|DICT|INTERRES
     7    4    5 1    
     8    4   65 1    
     9    5    6 1    
    10    5   25 1    
    11    5   66 1    
    12    6    7 1    
    13    6   67 1    
    14    6   68 1    
    15    7    8 1    
    16    8    9 1    
    17    8   69 1    
    18    8   70 1    
    19    9   10 ar   
    20    9   14 ar   
    21   10   11 ar   
    22   10   71 1    
    23   11   12 ar   
    24   11   61 1    
    25   12   13 ar   
    26   12   72 1    
    27   13   14 ar   
    28   13   15 1    
    29   14   73 1    
    30   15   16 1    
    31   15   74 1    
    32   15   75 1    
    33   16   17 1    
    34   17   18 1    
    35   17   76 1    
    36   17   77 1    
    37   18   19 1    
    38   18   27 1    
    39   18   78 1    
    40   19   20 am   BACKBONE|DICT|INTERRES
    41   19   79 1    
    42   20   21 2    
    43   20   22 1    
    44   22   23 1    
    45   22   24 1    
    46   22   80 1    
    47   23   81 1    
    48   23   82 1    
    49   23   83 1    
    50   24   25 am   BACKBONE|DICT|INTERRES
    51   24   84 1    
    52   25   26 2    
    53   27   28 2    
    54   27   29 am   BACKBONE|DICT|INTERRES
    55   29   30 1    
    56   29   85 1    
    57   30   31 1    
    58   30   32 1    
    59   30   86 1    
    60   31   87 1    
    61   31   88 1    
    62   31   89 1    
    63   32   33 2    
    64   32   34 am   BACKBONE|DICT|INTERRES
    65   34   35 1    
    66   34   90 1    
    67   35   36 1    
    68   35   37 1    
    69   35   91 1    
    70   36   92 1    
    71   36   93 1    
    72   36   94 1    
    73   37   38 2    
    74   37   39 am   BACKBONE|DICT|INTERRES
    75   39   40 1    
    76   39   95 1    
    77   40   41 1    
    78   40   42 1    
    79   40   96 1    
    80   41   97 1    
    81   41   98 1    
    82   41   99 1    
    83   42   43 2    
    84   42   44 am   BACKBONE|DICT|INTERRES
    85   44   45 1    
    86   44  100 1    
    87   45   46 1    
    88   45   47 1    
    89   45  101 1    
    90   46  102 1    
    91   46  103 1    
    92   46  104 1    
    93   47   48 2    
    94   47   49 am   BACKBONE|DICT|INTERRES
    95   49   50 1    
    96   49  105 1    
    97   50   51 1    
    98   50   52 1    
    99   50  106 1    
   100   51  107 1    
   101   51  108 1    
   102   51  109 1    
   103   52   53 2    
   104   52   54 am   BACKBONE|DICT|INTERRES
   105   54   55 1    
   106   54  110 1    
   107   55   56 1    
   108   55   59 1    
   109   55  111 1    
   110   56   57 am   BACKBONE|DICT|INTERRES
   111   56   58 2    
   112   57  112 1    
   113   57  113 1    
   114   59   60 1    
   115   59  114 1    
   116   59  115 1    
   117   60   61 1    
   118   61  116 1    
   119   61  117 1    
@<TRIPOS>SUBSTRUCTURE
     1 UNK         1 GROUP             0       ****    0 ROOT    
