@<TRIPOS>MOLECULE
3R8
117   119    1
SMALL
USER_CHARGES


@<TRIPOS>ATOM
      1 CA         13.4919  -24.7793  -45.9880 C.3       0 UNK        -0.2013 
      2 C          14.3086  -25.5424  -44.9551 C.2       0 UNK         0.4866 
      3 O          14.0101  -25.4559  -43.7634 O.2       0 UNK        -0.5176 
      4 N          15.3265  -26.2855  -45.4131 N.am      1 UNK        -0.4884 
      5 CA         16.2761  -27.0842  -44.6204 C.3       1 UNK         0.0853 
      6 C6         15.5933  -28.2281  -43.8101 C.3       10 UNK        -0.0849 
      7 S7         15.0133  -29.5484  -44.9294 S.3       10 UNK        -0.2776 
      8 C8         16.2166  -30.8873  -44.6130 C.3       10 UNK         0.0316 
      9 C9         17.6662  -30.4150  -44.6640 C.ar      10 UNK        -0.0863 
     10 C10        18.4797  -30.5275  -43.5330 C.ar      10 UNK        -0.1009 
     11 C11        19.8049  -30.0778  -43.5557 C.ar      10 UNK        -0.0712 
     12 C12        20.3182  -29.5267  -44.7351 C.ar      10 UNK        -0.0894 
     13 C13        19.5152  -29.4090  -45.8752 C.ar      10 UNK        -0.0745 
     14 C14        18.1950  -29.8670  -45.8355 C.ar      10 UNK        -0.0972 
     15 C15        20.0680  -28.8127  -47.1624 C.3       10 UNK         0.0209 
     16 S16        20.0481  -26.9891  -47.1383 S.3       10 UNK        -0.2568 
     17 C17        21.6937  -26.6101  -46.4402 C.3       10 UNK        -0.0983 
     18 CA         21.6557  -25.6787  -45.1980 C.3       3 UNK         0.0876 
     19 N          20.7388  -26.1937  -44.1729 N.am      3 UNK        -0.4424 
     20 C          20.2350  -25.5231  -43.1292 C.2       2 UNK         0.4918 
     21 O          20.5196  -24.3548  -42.8592 O.2       2 UNK        -0.4875 
     22 CA         19.2421  -26.3080  -42.2541 C.3       2 UNK         0.0481 
     23 CB         18.7024  -25.4938  -41.0599 C.3       2 UNK        -0.1831 
     24 N          18.1488  -26.8848  -43.0466 N.am      2 UNK        -0.4498 
     25 C          17.2423  -26.2166  -43.7801 C.2       1 UNK         0.5027 
     26 O          17.1958  -24.9854  -43.8494 O.2       1 UNK        -0.4969 
     27 C          23.0766  -25.4293  -44.6317 C.2       3 UNK         0.5005 
     28 O          24.0249  -26.1069  -45.0316 O.2       3 UNK        -0.5279 
     29 N          23.1881  -24.4868  -43.6829 N.am      4 UNK        -0.4463 
     30 CA         24.3594  -24.1953  -42.8420 C.3       4 UNK         0.0283 
     31 CB         25.5603  -23.7092  -43.6821 C.3       4 UNK        -0.1875 
     32 C          24.7090  -25.3664  -41.8982 C.2       4 UNK         0.4949 
     33 O          25.8831  -25.5909  -41.5990 O.2       4 UNK        -0.5039 
     34 N          23.6639  -26.0745  -41.4420 N.am      5 UNK        -0.4663 
     35 CA         23.6854  -27.2780  -40.6033 C.3       5 UNK         0.0242 
     36 CB         24.1870  -26.9423  -39.1797 C.3       5 UNK        -0.1982 
     37 C          24.4237  -28.4595  -41.2738 C.2       5 UNK         0.5017 
     38 O          24.3945  -28.5675  -42.5014 O.2       5 UNK        -0.5012 
     39 N          25.0304  -29.3320  -40.4526 N.am      6 UNK        -0.4439 
     40 CA         25.7388  -30.5716  -40.8036 C.3       6 UNK         0.0297 
     41 CB         26.9320  -30.2779  -41.7406 C.3       6 UNK        -0.2006 
     42 C          24.8170  -31.6741  -41.3656 C.2       6 UNK         0.4892 
     43 O          23.6127  -31.4671  -41.5295 O.2       6 UNK        -0.5089 
     44 N          25.4073  -32.8506  -41.6269 N.am      7 UNK        -0.4243 
     45 CA         24.7578  -34.0670  -42.1299 C.3       7 UNK         0.0196 
     46 CB         24.3129  -33.8782  -43.6001 C.3       7 UNK        -0.2007 
     47 C          23.6339  -34.5349  -41.1842 C.2       7 UNK         0.5020 
     48 O          23.9318  -34.9902  -40.0791 O.2       7 UNK        -0.5147 
     49 N          22.3740  -34.4055  -41.6198 N.am      8 UNK        -0.4734 
     50 CA         21.1794  -34.7252  -40.8337 C.3       8 UNK         0.0238 
     51 CB         19.9714  -34.8195  -41.7825 C.3       8 UNK        -0.1912 
     52 C          20.8899  -33.7165  -39.7059 C.2       8 UNK         0.5038 
     53 O          20.1860  -34.0723  -38.7593 O.2       8 UNK        -0.5046 
     54 N          21.4046  -32.4869  -39.8301 N.am      9 UNK        -0.4200 
     55 CA         21.2138  -31.3992  -38.8668 C.3       9 UNK         0.0839 
     56 C          22.2946  -31.4787  -37.7601 C.2       9 UNK         0.5513 
     57 N          21.8923  -31.6025  -36.5011 N.am      9 UNK        -0.7519 
     58 O          23.4912  -31.3845  -38.0316 O.2       9 UNK        -0.4960 
     59 C59        21.2394  -30.0178  -39.5665 C.3       10 UNK        -0.0876 
     60 S60        19.8812  -29.7917  -40.7633 S.3       10 UNK        -0.2414 
     61 C61        20.7053  -30.2282  -42.3331 C.3       10 UNK         0.0169 
     62 H62        13.5385  -23.7094  -45.7863 H         1 UNK         0.0903 
     63 H63        13.8527  -24.9489  -47.0024 H         1 UNK         0.0903 
     64 H64        12.4481  -25.0893  -45.9441 H         1 UNK         0.0903 
     65 H65        15.5123  -26.2822  -46.4065 H         1 UNK         0.3096 
     66 H66        16.9306  -27.5414  -45.3621 H         1 UNK         0.1121 
     67 H67        14.7440  -27.8573  -43.2361 H         1 UNK         0.0849 
     68 H68        16.2567  -28.6726  -43.0683 H         1 UNK         0.0849 
     69 H69        15.9902  -31.3355  -43.6441 H         1 UNK         0.0865 
     70 H70        16.0720  -31.6758  -45.3528 H         1 UNK         0.0865 
     71 H71        18.0811  -30.9695  -42.6299 H         1 UNK         0.1346 
     72 H72        21.3499  -29.2040  -44.7694 H         1 UNK         0.1412 
     73 H73        17.5685  -29.7844  -46.7138 H         1 UNK         0.1426 
     74 H74        19.4700  -29.1470  -48.0117 H         1 UNK         0.0716 
     75 H75        21.0763  -29.1844  -47.3507 H         1 UNK         0.0716 
     76 H76        22.2850  -26.1483  -47.2332 H         1 UNK         0.0695 
     77 H77        22.2034  -27.5438  -46.1984 H         1 UNK         0.0695 
     78 H78        21.2714  -24.7103  -45.5265 H         1 UNK         0.0983 
     79 H79        20.4191  -27.1388  -44.3247 H         1 UNK         0.3095 
     80 H80        19.8051  -27.1455  -41.8451 H         1 UNK         0.0454 
     81 H81        19.5178  -25.1553  -40.4197 H         1 UNK         0.0851 
     82 H82        18.0346  -26.0937  -40.4420 H         1 UNK         0.0851 
     83 H83        18.1559  -24.6070  -41.3820 H         1 UNK         0.0851 
     84 H84        18.1325  -27.8956  -43.0788 H         1 UNK         0.2976 
     85 H85        22.3218  -24.0344  -43.3980 H         1 UNK         0.3116 
     86 H86        24.0630  -23.3692  -42.1939 H         1 UNK         0.0646 
     87 H87        25.9802  -24.5081  -44.2937 H         1 UNK         0.0847 
     88 H88        25.2778  -22.8910  -44.3442 H         1 UNK         0.0847 
     89 H89        26.3612  -23.3428  -43.0390 H         1 UNK         0.0847 
     90 H90        22.7537  -25.7995  -41.7794 H         1 UNK         0.3040 
     91 H91        22.6429  -27.5868  -40.5196 H         1 UNK         0.1015 
     92 H92        23.9999  -27.7613  -38.4842 H         1 UNK         0.0786 
     93 H93        23.6722  -26.0690  -38.7784 H         1 UNK         0.0786 
     94 H94        25.2568  -26.7291  -39.1655 H         1 UNK         0.0786 
     95 H95        24.9477  -29.1648  -39.4596 H         1 UNK         0.3172 
     96 H96        26.1376  -30.9547  -39.8628 H         1 UNK         0.0595 
     97 H97        26.6028  -30.0118  -42.7459 H         1 UNK         0.0839 
     98 H98        27.5891  -31.1427  -41.8355 H         1 UNK         0.0839 
     99 H99        27.5407  -29.4568  -41.3616 H         1 UNK         0.0839 
    100 H100       26.3910  -32.9436  -41.4156 H         1 UNK         0.2998 
    101 H101       25.5137  -34.8539  -42.1149 H         1 UNK         0.0822 
    102 H102       23.8571  -34.7878  -43.9940 H         1 UNK         0.0787 
    103 H103       23.5948  -33.0659  -43.7202 H         1 UNK         0.0787 
    104 H104       25.1682  -33.6509  -44.2370 H         1 UNK         0.0787 
    105 H105       22.2269  -34.0015  -42.5340 H         1 UNK         0.3055 
    106 H106       21.3276  -35.7013  -40.3647 H         1 UNK         0.1106 
    107 H107       20.1236  -35.5817  -42.5472 H         1 UNK         0.0828 
    108 H108       19.0660  -35.0893  -41.2361 H         1 UNK         0.0828 
    109 H109       19.7769  -33.8704  -42.2854 H         1 UNK         0.0828 
    110 H110       22.0492  -32.2902  -40.5894 H         1 UNK         0.2931 
    111 H111       20.2305  -31.5089  -38.4039 H         1 UNK         0.0412 
    112 H112       22.5830  -31.6396  -35.7673 H         1 UNK         0.3472 
    113 H113       20.9117  -31.6786  -36.2709 H         1 UNK         0.3472 
    114 H114       21.1552  -29.2198  -38.8263 H         1 UNK         0.0970 
    115 H115       22.1938  -29.8659  -40.0662 H         1 UNK         0.0970 
    116 H116       21.0410  -31.2638  -42.2877 H         1 UNK         0.0612 
    117 H117       21.5990  -29.6115  -42.4415 H         1 UNK         0.0612 
@<TRIPOS>BOND
     1    1    2 1    
     2    1   62 1    
     3    1   63 1    
     4    1   64 1    
     5    2    3 2    
     6    2    4 am   BACKBONE|DICT|INTERRES
     7    4    5 1    
     8    4   65 1    
     9    5    6 1    
    10    5   25 1    
    11    5   66 1    
    12    6    7 1    
    13    6   67 1    
    14    6   68 1    
    15    7    8 1    
    16    8    9 1    
    17    8   69 1    
    18    8   70 1    
    19    9   10 ar   
    20    9   14 ar   
    21   10   11 ar   
    22   10   71 1    
    23   11   12 ar   
    24   11   61 1    
    25   12   13 ar   
    26   12   72 1    
    27   13   14 ar   
    28   13   15 1    
    29   14   73 1    
    30   15   16 1    
    31   15   74 1    
    32   15   75 1    
    33   16   17 1    
    34   17   18 1    
    35   17   76 1    
    36   17   77 1    
    37   18   19 1    
    38   18   27 1    
    39   18   78 1    
    40   19   20 am   BACKBONE|DICT|INTERRES
    41   19   79 1    
    42   20   21 2    
    43   20   22 1    
    44   22   23 1    
    45   22   24 1    
    46   22   80 1    
    47   23   81 1    
    48   23   82 1    
    49   23   83 1    
    50   24   25 am   BACKBONE|DICT|INTERRES
    51   24   84 1    
    52   25   26 2    
    53   27   28 2    
    54   27   29 am   BACKBONE|DICT|INTERRES
    55   29   30 1    
    56   29   85 1    
    57   30   31 1    
    58   30   32 1    
    59   30   86 1    
    60   31   87 1    
    61   31   88 1    
    62   31   89 1    
    63   32   33 2    
    64   32   34 am   BACKBONE|DICT|INTERRES
    65   34   35 1    
    66   34   90 1    
    67   35   36 1    
    68   35   37 1    
    69   35   91 1    
    70   36   92 1    
    71   36   93 1    
    72   36   94 1    
    73   37   38 2    
    74   37   39 am   BACKBONE|DICT|INTERRES
    75   39   40 1    
    76   39   95 1    
    77   40   41 1    
    78   40   42 1    
    79   40   96 1    
    80   41   97 1    
    81   41   98 1    
    82   41   99 1    
    83   42   43 2    
    84   42   44 am   BACKBONE|DICT|INTERRES
    85   44   45 1    
    86   44  100 1    
    87   45   46 1    
    88   45   47 1    
    89   45  101 1    
    90   46  102 1    
    91   46  103 1    
    92   46  104 1    
    93   47   48 2    
    94   47   49 am   BACKBONE|DICT|INTERRES
    95   49   50 1    
    96   49  105 1    
    97   50   51 1    
    98   50   52 1    
    99   50  106 1    
   100   51  107 1    
   101   51  108 1    
   102   51  109 1    
   103   52   53 2    
   104   52   54 am   BACKBONE|DICT|INTERRES
   105   54   55 1    
   106   54  110 1    
   107   55   56 1    
   108   55   59 1    
   109   55  111 1    
   110   56   57 am   BACKBONE|DICT|INTERRES
   111   56   58 2    
   112   57  112 1    
   113   57  113 1    
   114   59   60 1    
   115   59  114 1    
   116   59  115 1    
   117   60   61 1    
   118   61  116 1    
   119   61  117 1    
@<TRIPOS>SUBSTRUCTURE
     1 UNK         1 GROUP             0       ****    0 ROOT    
