@<TRIPOS>MOLECULE
3R8
117   119    1
SMALL
USER_CHARGES


@<TRIPOS>ATOM
      1 CA         15.8475  -27.2868  -40.7607 C.3       0 UNK        -0.2013 
      2 C          15.9756  -26.2346  -41.8517 C.2       0 UNK         0.4866 
      3 O          15.2080  -25.2719  -41.8655 O.2       0 UNK        -0.5176 
      4 N          16.9449  -26.4046  -42.7570 N.am      1 UNK        -0.4884 
      5 CA         17.2916  -25.4435  -43.8021 C.3       1 UNK         0.0853 
      6 C6         16.3096  -25.4398  -45.0137 C.3       10 UNK        -0.0849 
      7 S7         16.4968  -26.7390  -46.2854 S.3       10 UNK        -0.2776 
      8 C8         15.6878  -28.1879  -45.5320 C.3       10 UNK         0.0316 
      9 C9         16.7151  -29.1842  -45.0122 C.ar      10 UNK        -0.0863 
     10 C10        16.7272  -29.5623  -43.6651 C.ar      10 UNK        -0.1009 
     11 C11        17.6920  -30.4544  -43.1864 C.ar      10 UNK        -0.0712 
     12 C12        18.6292  -30.9849  -44.0753 C.ar      10 UNK        -0.0894 
     13 C13        18.6172  -30.6350  -45.4278 C.ar      10 UNK        -0.0745 
     14 C14        17.6540  -29.7372  -45.8903 C.ar      10 UNK        -0.0972 
     15 C15        19.6361  -31.2346  -46.3890 C.3       10 UNK         0.0209 
     16 S16        21.0208  -30.1010  -46.7414 S.3       10 UNK        -0.2568 
     17 C17        21.8208  -29.9828  -45.1032 C.3       10 UNK        -0.0983 
     18 CA         22.2094  -28.5486  -44.6549 C.3       3 UNK         0.0876 
     19 N          21.2965  -27.5004  -45.1335 N.am      3 UNK        -0.4424 
     20 C          21.6446  -26.2100  -45.2305 C.2       2 UNK         0.4918 
     21 O          22.7374  -25.7731  -44.8691 O.2       2 UNK        -0.4875 
     22 CA         20.6072  -25.2309  -45.8121 C.3       2 UNK         0.0481 
     23 CB         20.6368  -25.2804  -47.3482 C.3       2 UNK        -0.1831 
     24 N          19.2225  -25.3940  -45.3503 N.am      2 UNK        -0.4498 
     25 C          18.8047  -25.5393  -44.0852 C.2       1 UNK         0.5027 
     26 O          19.5694  -25.7174  -43.1352 O.2       1 UNK        -0.4969 
     27 C          22.4053  -28.5041  -43.1233 C.2       3 UNK         0.5005 
     28 O          23.4413  -28.9579  -42.6314 O.2       3 UNK        -0.5279 
     29 N          21.4329  -27.9393  -42.3880 N.am      4 UNK        -0.4463 
     30 CA         21.4597  -27.8288  -40.9260 C.3       4 UNK         0.0283 
     31 CB         20.0679  -27.4509  -40.3955 C.3       4 UNK        -0.1875 
     32 C          22.5306  -26.8488  -40.4179 C.2       4 UNK         0.4949 
     33 O          22.9569  -26.9738  -39.2712 O.2       4 UNK        -0.5039 
     34 N          23.0100  -25.9473  -41.2887 N.am      5 UNK        -0.4663 
     35 CA         24.1844  -25.1009  -41.0507 C.3       5 UNK         0.0242 
     36 CB         24.2881  -24.0523  -42.1693 C.3       5 UNK        -0.1982 
     37 C          25.4971  -25.9033  -40.9377 C.2       5 UNK         0.5017 
     38 O          26.4286  -25.4366  -40.2821 O.2       5 UNK        -0.5012 
     39 N          25.5356  -27.0984  -41.5457 N.am      6 UNK        -0.4439 
     40 CA         26.6124  -28.0840  -41.4211 C.3       6 UNK         0.0297 
     41 CB         26.9146  -28.6615  -42.8160 C.3       6 UNK        -0.2006 
     42 C          26.2499  -29.2064  -40.4258 C.2       6 UNK         0.4892 
     43 O          27.0006  -30.1776  -40.3255 O.2       6 UNK        -0.5089 
     44 N          25.1128  -29.0652  -39.7234 N.am      7 UNK        -0.4243 
     45 CA         24.5107  -30.0091  -38.7740 C.3       7 UNK         0.0196 
     46 CB         25.4051  -30.1794  -37.5271 C.3       7 UNK        -0.2007 
     47 C          24.0989  -31.3557  -39.4040 C.2       7 UNK         0.5020 
     48 O          24.0448  -32.3626  -38.6953 O.2       7 UNK        -0.5147 
     49 N          23.8047  -31.3635  -40.7107 N.am      8 UNK        -0.4734 
     50 CA         23.3752  -32.5499  -41.4489 C.3       8 UNK         0.0238 
     51 CB         24.0640  -32.5518  -42.8228 C.3       8 UNK        -0.1912 
     52 C          21.8501  -32.5418  -41.6120 C.2       8 UNK         0.5038 
     53 O          21.2819  -31.4937  -41.9194 O.2       8 UNK        -0.5046 
     54 N          21.2226  -33.7098  -41.4377 N.am      9 UNK        -0.4200 
     55 CA         19.7895  -33.9540  -41.6672 C.3       9 UNK         0.0839 
     56 C          19.4643  -35.4664  -41.8445 C.2       9 UNK         0.5513 
     57 N          20.4184  -36.2991  -42.2476 N.am      9 UNK        -0.7519 
     58 O          18.3384  -35.9026  -41.6203 O.2       9 UNK        -0.4960 
     59 C59        18.8695  -33.2162  -40.6452 C.3       10 UNK        -0.0876 
     60 S60        17.3381  -32.5720  -41.4130 S.3       10 UNK        -0.2414 
     61 C61        17.7512  -30.8201  -41.7086 C.3       10 UNK         0.0169 
     62 H62        15.0039  -27.9439  -40.9656 H         1 UNK         0.0903 
     63 H63        16.7478  -27.8922  -40.6773 H         1 UNK         0.0903 
     64 H64        15.6794  -26.8095  -39.7965 H         1 UNK         0.0903 
     65 H65        17.5794  -27.1880  -42.6854 H         1 UNK         0.3096 
     66 H66        17.1974  -24.4554  -43.3448 H         1 UNK         0.1121 
     67 H67        16.4059  -24.4852  -45.5338 H         1 UNK         0.0849 
     68 H68        15.2783  -25.4506  -44.6580 H         1 UNK         0.0849 
     69 H69        15.0060  -27.8705  -44.7413 H         1 UNK         0.0865 
     70 H70        15.0734  -28.6804  -46.2870 H         1 UNK         0.0865 
     71 H71        15.9908  -29.1549  -42.9876 H         1 UNK         0.1346 
     72 H72        19.3793  -31.6669  -43.7076 H         1 UNK         0.1412 
     73 H73        17.6431  -29.4568  -46.9351 H         1 UNK         0.1426 
     74 H74        20.0317  -32.1714  -45.9929 H         1 UNK         0.0716 
     75 H75        19.1425  -31.4880  -47.3284 H         1 UNK         0.0716 
     76 H76        22.7153  -30.6056  -45.1350 H         1 UNK         0.0695 
     77 H77        21.1806  -30.4524  -44.3611 H         1 UNK         0.0695 
     78 H78        23.1880  -28.3398  -45.0940 H         1 UNK         0.0983 
     79 H79        20.3898  -27.8021  -45.4611 H         1 UNK         0.3095 
     80 H80        20.9147  -24.2288  -45.5065 H         1 UNK         0.0454 
     81 H81        20.2745  -26.2368  -47.7279 H         1 UNK         0.0851 
     82 H82        20.0235  -24.4918  -47.7844 H         1 UNK         0.0851 
     83 H83        21.6513  -25.1431  -47.7258 H         1 UNK         0.0851 
     84 H84        18.5068  -25.3296  -46.0623 H         1 UNK         0.2976 
     85 H85        20.6551  -27.4947  -42.8621 H         1 UNK         0.3116 
     86 H86        21.7085  -28.8164  -40.5309 H         1 UNK         0.0646 
     87 H87        19.3018  -28.1303  -40.7681 H         1 UNK         0.0847 
     88 H88        20.0442  -27.5031  -39.3063 H         1 UNK         0.0847 
     89 H89        19.7867  -26.4349  -40.6723 H         1 UNK         0.0847 
     90 H90        22.5980  -25.9077  -42.2116 H         1 UNK         0.3040 
     91 H91        24.0368  -24.5803  -40.1017 H         1 UNK         0.1015 
     92 H92        24.4530  -24.5157  -43.1429 H         1 UNK         0.0786 
     93 H93        25.1206  -23.3706  -41.9885 H         1 UNK         0.0786 
     94 H94        23.3830  -23.4477  -42.2339 H         1 UNK         0.0786 
     95 H95        24.7112  -27.4204  -42.0426 H         1 UNK         0.3172 
     96 H96        27.5200  -27.6040  -41.0497 H         1 UNK         0.0595 
     97 H97        26.0655  -29.2162  -43.2172 H         1 UNK         0.0839 
     98 H98        27.7625  -29.3469  -42.7816 H         1 UNK         0.0839 
     99 H99        27.1668  -27.8735  -43.5259 H         1 UNK         0.0839 
    100 H100       24.5815  -28.2139  -39.8594 H         1 UNK         0.2998 
    101 H101       23.5800  -29.5456  -38.4437 H         1 UNK         0.0822 
    102 H102       24.8934  -30.7512  -36.7520 H         1 UNK         0.0787 
    103 H103       26.3304  -30.7067  -37.7613 H         1 UNK         0.0787 
    104 H104       25.6683  -29.2145  -37.0935 H         1 UNK         0.0787 
    105 H105       23.7946  -30.4901  -41.2288 H         1 UNK         0.3055 
    106 H106       23.6743  -33.4569  -40.9186 H         1 UNK         0.1106 
    107 H107       25.1471  -32.6201  -42.7196 H         1 UNK         0.0828 
    108 H108       23.7399  -33.4002  -43.4268 H         1 UNK         0.0828 
    109 H109       23.8425  -31.6444  -43.3836 H         1 UNK         0.0828 
    110 H110       21.7518  -34.5222  -41.1542 H         1 UNK         0.2931 
    111 H111       19.5889  -33.5458  -42.6565 H         1 UNK         0.0412 
    112 H112       20.1930  -37.2763  -42.3554 H         1 UNK         0.3472 
    113 H113       21.3307  -35.9684  -42.5172 H         1 UNK         0.3472 
    114 H114       18.5954  -33.8774  -39.8213 H         1 UNK         0.0970 
    115 H115       19.3925  -32.3886  -40.1660 H         1 UNK         0.0970 
    116 H116       17.0555  -30.2092  -41.1333 H         1 UNK         0.0612 
    117 H117       18.7461  -30.5832  -41.3307 H         1 UNK         0.0612 
@<TRIPOS>BOND
     1    1    2 1    
     2    1   62 1    
     3    1   63 1    
     4    1   64 1    
     5    2    3 2    
     6    2    4 am   BACKBONE|DICT|INTERRES
     7    4    5 1    
     8    4   65 1    
     9    5    6 1    
    10    5   25 1    
    11    5   66 1    
    12    6    7 1    
    13    6   67 1    
    14    6   68 1    
    15    7    8 1    
    16    8    9 1    
    17    8   69 1    
    18    8   70 1    
    19    9   10 ar   
    20    9   14 ar   
    21   10   11 ar   
    22   10   71 1    
    23   11   12 ar   
    24   11   61 1    
    25   12   13 ar   
    26   12   72 1    
    27   13   14 ar   
    28   13   15 1    
    29   14   73 1    
    30   15   16 1    
    31   15   74 1    
    32   15   75 1    
    33   16   17 1    
    34   17   18 1    
    35   17   76 1    
    36   17   77 1    
    37   18   19 1    
    38   18   27 1    
    39   18   78 1    
    40   19   20 am   BACKBONE|DICT|INTERRES
    41   19   79 1    
    42   20   21 2    
    43   20   22 1    
    44   22   23 1    
    45   22   24 1    
    46   22   80 1    
    47   23   81 1    
    48   23   82 1    
    49   23   83 1    
    50   24   25 am   BACKBONE|DICT|INTERRES
    51   24   84 1    
    52   25   26 2    
    53   27   28 2    
    54   27   29 am   BACKBONE|DICT|INTERRES
    55   29   30 1    
    56   29   85 1    
    57   30   31 1    
    58   30   32 1    
    59   30   86 1    
    60   31   87 1    
    61   31   88 1    
    62   31   89 1    
    63   32   33 2    
    64   32   34 am   BACKBONE|DICT|INTERRES
    65   34   35 1    
    66   34   90 1    
    67   35   36 1    
    68   35   37 1    
    69   35   91 1    
    70   36   92 1    
    71   36   93 1    
    72   36   94 1    
    73   37   38 2    
    74   37   39 am   BACKBONE|DICT|INTERRES
    75   39   40 1    
    76   39   95 1    
    77   40   41 1    
    78   40   42 1    
    79   40   96 1    
    80   41   97 1    
    81   41   98 1    
    82   41   99 1    
    83   42   43 2    
    84   42   44 am   BACKBONE|DICT|INTERRES
    85   44   45 1    
    86   44  100 1    
    87   45   46 1    
    88   45   47 1    
    89   45  101 1    
    90   46  102 1    
    91   46  103 1    
    92   46  104 1    
    93   47   48 2    
    94   47   49 am   BACKBONE|DICT|INTERRES
    95   49   50 1    
    96   49  105 1    
    97   50   51 1    
    98   50   52 1    
    99   50  106 1    
   100   51  107 1    
   101   51  108 1    
   102   51  109 1    
   103   52   53 2    
   104   52   54 am   BACKBONE|DICT|INTERRES
   105   54   55 1    
   106   54  110 1    
   107   55   56 1    
   108   55   59 1    
   109   55  111 1    
   110   56   57 am   BACKBONE|DICT|INTERRES
   111   56   58 2    
   112   57  112 1    
   113   57  113 1    
   114   59   60 1    
   115   59  114 1    
   116   59  115 1    
   117   60   61 1    
   118   61  116 1    
   119   61  117 1    
@<TRIPOS>SUBSTRUCTURE
     1 UNK         1 GROUP             0       ****    0 ROOT    
