@<TRIPOS>MOLECULE
3R8
117   119    1
SMALL
USER_CHARGES


@<TRIPOS>ATOM
      1 CA         16.6330  -24.0575  -50.1307 C.3       0 UNK        -0.2013 
      2 C          17.8192  -24.4203  -49.2497 C.2       0 UNK         0.4866 
      3 O          18.8711  -23.7872  -49.3479 O.2       0 UNK        -0.5176 
      4 N          17.6623  -25.4394  -48.3952 N.am      1 UNK        -0.4884 
      5 CA         18.6724  -25.8762  -47.4257 C.3       1 UNK         0.0853 
      6 C6         18.3722  -27.3083  -46.9179 C.3       10 UNK        -0.0849 
      7 S7         19.8696  -28.1692  -46.3311 S.3       10 UNK        -0.2776 
      8 C8         19.1864  -29.8062  -45.9165 C.3       10 UNK         0.0316 
      9 C9         18.8852  -29.9216  -44.4301 C.ar      10 UNK        -0.0863 
     10 C10        19.7861  -30.5789  -43.5871 C.ar      10 UNK        -0.1009 
     11 C11        19.5311  -30.6804  -42.2174 C.ar      10 UNK        -0.0712 
     12 C12        18.3621  -30.1264  -41.6922 C.ar      10 UNK        -0.0894 
     13 C13        17.4611  -29.4503  -42.5212 C.ar      10 UNK        -0.0745 
     14 C14        17.7190  -29.3664  -43.8931 C.ar      10 UNK        -0.0972 
     15 C15        16.2415  -28.7650  -41.9221 C.3       10 UNK         0.0209 
     16 S16        16.7118  -27.5278  -40.6658 S.3       10 UNK        -0.2568 
     17 C17        17.5531  -26.2400  -41.6558 C.3       10 UNK        -0.0983 
     18 CA         19.0688  -26.4877  -41.9293 C.3       3 UNK         0.0876 
     19 N          19.5427  -25.7481  -43.1042 N.am      3 UNK        -0.4424 
     20 C          19.6318  -24.4148  -43.2245 C.2       2 UNK         0.4918 
     21 O          19.2520  -23.6115  -42.3714 O.2       2 UNK        -0.4875 
     22 CA         20.2535  -23.8823  -44.5285 C.3       2 UNK         0.0481 
     23 CB         21.7731  -23.7178  -44.3640 C.3       2 UNK        -0.1831 
     24 N          19.9790  -24.7324  -45.6909 N.am      2 UNK        -0.4498 
     25 C          18.7710  -24.8780  -46.2530 C.2       1 UNK         0.5027 
     26 O          17.7578  -24.2904  -45.8631 O.2       1 UNK        -0.4969 
     27 C          20.0052  -26.2970  -40.7091 C.2       3 UNK         0.5005 
     28 O          21.1451  -25.8535  -40.8744 O.2       3 UNK        -0.5279 
     29 N          19.5357  -26.6814  -39.5140 N.am      4 UNK        -0.4463 
     30 CA         20.2199  -26.6189  -38.2173 C.3       4 UNK         0.0283 
     31 CB         20.3183  -25.1549  -37.7320 C.3       4 UNK        -0.1875 
     32 C          21.5734  -27.3578  -38.2261 C.2       4 UNK         0.4949 
     33 O          21.5942  -28.5802  -38.0864 O.2       4 UNK        -0.5039 
     34 N          22.6688  -26.6069  -38.3994 N.am      5 UNK        -0.4663 
     35 CA         24.0486  -27.0970  -38.4507 C.3       5 UNK         0.0242 
     36 CB         24.9887  -25.9391  -38.0707 C.3       5 UNK        -0.1982 
     37 C          24.4546  -27.7126  -39.8064 C.2       5 UNK         0.5017 
     38 O          25.6028  -28.1418  -39.9349 O.2       5 UNK        -0.5012 
     39 N          23.5428  -27.7259  -40.7915 N.am      6 UNK        -0.4439 
     40 CA         23.7200  -28.3112  -42.1264 C.3       6 UNK         0.0297 
     41 CB         22.4255  -28.1169  -42.9338 C.3       6 UNK        -0.2006 
     42 C          24.1306  -29.7990  -42.1235 C.2       6 UNK         0.4892 
     43 O          23.8650  -30.5262  -41.1626 O.2       6 UNK        -0.5089 
     44 N          24.7705  -30.2132  -43.2243 N.am      7 UNK        -0.4243 
     45 CA         25.2753  -31.5671  -43.4617 C.3       7 UNK         0.0196 
     46 CB         26.1578  -31.5431  -44.7222 C.3       7 UNK        -0.2007 
     47 C          24.1634  -32.6229  -43.6047 C.2       7 UNK         0.5020 
     48 O          23.0059  -32.2817  -43.8471 O.2       7 UNK        -0.5147 
     49 N          24.5654  -33.8947  -43.4741 N.am      8 UNK        -0.4734 
     50 CA         23.7743  -35.1330  -43.5792 C.3       8 UNK         0.0238 
     51 CB         22.9349  -35.1875  -44.8732 C.3       8 UNK        -0.1912 
     52 C          22.9276  -35.4723  -42.3385 C.2       8 UNK         0.5038 
     53 O          22.5299  -36.6304  -42.2021 O.2       8 UNK        -0.5046 
     54 N          22.7011  -34.5047  -41.4410 N.am      9 UNK        -0.4200 
     55 CA         22.0560  -34.7198  -40.1332 C.3       9 UNK         0.0839 
     56 C          23.0113  -35.2861  -39.0414 C.2       9 UNK         0.5513 
     57 N          24.3141  -35.3909  -39.2777 N.am      9 UNK        -0.7519 
     58 O          22.5578  -35.6491  -37.9591 O.2       9 UNK        -0.4960 
     59 C59        21.3229  -33.4509  -39.6286 C.3       10 UNK        -0.0876 
     60 S60        19.9484  -32.9654  -40.7245 S.3       10 UNK        -0.2414 
     61 C61        20.5369  -31.3465  -41.2952 C.3       10 UNK         0.0169 
     62 H62        16.3255  -23.0295  -49.9404 H         1 UNK         0.0903 
     63 H63        16.9063  -24.1425  -51.1821 H         1 UNK         0.0903 
     64 H64        15.7762  -24.7064  -49.9499 H         1 UNK         0.0903 
     65 H65        16.7641  -25.8975  -48.3318 H         1 UNK         0.3096 
     66 H66        19.6318  -25.8857  -47.9493 H         1 UNK         0.1121 
     67 H67        17.9631  -27.9093  -47.7321 H         1 UNK         0.0849 
     68 H68        17.6097  -27.3025  -46.1373 H         1 UNK         0.0849 
     69 H69        18.2862  -30.0078  -46.4990 H         1 UNK         0.0865 
     70 H70        19.9096  -30.5681  -46.2121 H         1 UNK         0.0865 
     71 H71        20.6958  -31.0000  -43.9940 H         1 UNK         0.1346 
     72 H72        18.1709  -30.1916  -40.6295 H         1 UNK         0.1412 
     73 H73        17.0233  -28.8496  -44.5386 H         1 UNK         0.1426 
     74 H74        15.6060  -29.5189  -41.4557 H         1 UNK         0.0716 
     75 H75        15.6376  -28.2842  -42.6932 H         1 UNK         0.0716 
     76 H76        17.4096  -25.2785  -41.1597 H         1 UNK         0.0695 
     77 H77        17.0171  -26.1602  -42.6032 H         1 UNK         0.0695 
     78 H78        19.2042  -27.5289  -42.2091 H         1 UNK         0.0983 
     79 H79        19.8928  -26.3135  -43.8632 H         1 UNK         0.3095 
     80 H80        19.8255  -22.8963  -44.7222 H         1 UNK         0.0454 
     81 H81        22.2681  -24.6728  -44.1840 H         1 UNK         0.0851 
     82 H82        22.0043  -23.0697  -43.5174 H         1 UNK         0.0851 
     83 H83        22.2229  -23.2655  -45.2479 H         1 UNK         0.0851 
     84 H84        20.7564  -25.2590  -46.0643 H         1 UNK         0.2976 
     85 H85        18.5995  -27.0699  -39.4969 H         1 UNK         0.3116 
     86 H86        19.5861  -27.1539  -37.5084 H         1 UNK         0.0646 
     87 H87        20.8440  -24.5138  -38.4402 H         1 UNK         0.0847 
     88 H88        20.8394  -25.0910  -36.7757 H         1 UNK         0.0847 
     89 H89        19.3264  -24.7282  -37.5829 H         1 UNK         0.0847 
     90 H90        22.5364  -25.6203  -38.5728 H         1 UNK         0.3040 
     91 H91        24.1612  -27.8859  -37.7035 H         1 UNK         0.1015 
     92 H92        24.9341  -25.1229  -38.7921 H         1 UNK         0.0786 
     93 H93        26.0273  -26.2710  -38.0322 H         1 UNK         0.0786 
     94 H94        24.7457  -25.5364  -37.0872 H         1 UNK         0.0786 
     95 H95        22.6506  -27.2802  -40.6080 H         1 UNK         0.3172 
     96 H96        24.5176  -27.7479  -42.6148 H         1 UNK         0.0595 
     97 H97        22.4923  -28.5769  -43.9210 H         1 UNK         0.0839 
     98 H98        22.2129  -27.0596  -43.0881 H         1 UNK         0.0839 
     99 H99        21.5707  -28.5635  -42.4265 H         1 UNK         0.0839 
    100 H100       24.9049  -29.5529  -43.9759 H         1 UNK         0.2998 
    101 H101       25.8938  -31.8418  -42.6044 H         1 UNK         0.0822 
    102 H102       26.6034  -32.5199  -44.9149 H         1 UNK         0.0787 
    103 H103       25.5847  -31.2678  -45.6087 H         1 UNK         0.0787 
    104 H104       26.9791  -30.8333  -44.6193 H         1 UNK         0.0787 
    105 H105       25.5453  -34.0462  -43.2730 H         1 UNK         0.3055 
    106 H106       24.5124  -35.9340  -43.6501 H         1 UNK         0.1106 
    107 H107       22.5080  -36.1811  -45.0154 H         1 UNK         0.0828 
    108 H108       22.1019  -34.4845  -44.8518 H         1 UNK         0.0828 
    109 H109       23.5409  -34.9672  -45.7518 H         1 UNK         0.0828 
    110 H110       23.0351  -33.5724  -41.6371 H         1 UNK         0.2931 
    111 H111       21.2915  -35.4882  -40.2647 H         1 UNK         0.0412 
    112 H112       24.7012  -35.0989  -40.1600 H         1 UNK         0.3472 
    113 H113       24.9165  -35.7649  -38.5609 H         1 UNK         0.3472 
    114 H114       22.0270  -32.6246  -39.5108 H         1 UNK         0.0970 
    115 H115       20.8934  -33.6215  -38.6395 H         1 UNK         0.0970 
    116 H116       20.7294  -30.6994  -40.4376 H         1 UNK         0.0612 
    117 H117       21.4899  -31.4801  -41.8057 H         1 UNK         0.0612 
@<TRIPOS>BOND
     1    1    2 1    
     2    1   62 1    
     3    1   63 1    
     4    1   64 1    
     5    2    3 2    
     6    2    4 am   BACKBONE|DICT|INTERRES
     7    4    5 1    
     8    4   65 1    
     9    5    6 1    
    10    5   25 1    
    11    5   66 1    
    12    6    7 1    
    13    6   67 1    
    14    6   68 1    
    15    7    8 1    
    16    8    9 1    
    17    8   69 1    
    18    8   70 1    
    19    9   10 ar   
    20    9   14 ar   
    21   10   11 ar   
    22   10   71 1    
    23   11   12 ar   
    24   11   61 1    
    25   12   13 ar   
    26   12   72 1    
    27   13   14 ar   
    28   13   15 1    
    29   14   73 1    
    30   15   16 1    
    31   15   74 1    
    32   15   75 1    
    33   16   17 1    
    34   17   18 1    
    35   17   76 1    
    36   17   77 1    
    37   18   19 1    
    38   18   27 1    
    39   18   78 1    
    40   19   20 am   BACKBONE|DICT|INTERRES
    41   19   79 1    
    42   20   21 2    
    43   20   22 1    
    44   22   23 1    
    45   22   24 1    
    46   22   80 1    
    47   23   81 1    
    48   23   82 1    
    49   23   83 1    
    50   24   25 am   BACKBONE|DICT|INTERRES
    51   24   84 1    
    52   25   26 2    
    53   27   28 2    
    54   27   29 am   BACKBONE|DICT|INTERRES
    55   29   30 1    
    56   29   85 1    
    57   30   31 1    
    58   30   32 1    
    59   30   86 1    
    60   31   87 1    
    61   31   88 1    
    62   31   89 1    
    63   32   33 2    
    64   32   34 am   BACKBONE|DICT|INTERRES
    65   34   35 1    
    66   34   90 1    
    67   35   36 1    
    68   35   37 1    
    69   35   91 1    
    70   36   92 1    
    71   36   93 1    
    72   36   94 1    
    73   37   38 2    
    74   37   39 am   BACKBONE|DICT|INTERRES
    75   39   40 1    
    76   39   95 1    
    77   40   41 1    
    78   40   42 1    
    79   40   96 1    
    80   41   97 1    
    81   41   98 1    
    82   41   99 1    
    83   42   43 2    
    84   42   44 am   BACKBONE|DICT|INTERRES
    85   44   45 1    
    86   44  100 1    
    87   45   46 1    
    88   45   47 1    
    89   45  101 1    
    90   46  102 1    
    91   46  103 1    
    92   46  104 1    
    93   47   48 2    
    94   47   49 am   BACKBONE|DICT|INTERRES
    95   49   50 1    
    96   49  105 1    
    97   50   51 1    
    98   50   52 1    
    99   50  106 1    
   100   51  107 1    
   101   51  108 1    
   102   51  109 1    
   103   52   53 2    
   104   52   54 am   BACKBONE|DICT|INTERRES
   105   54   55 1    
   106   54  110 1    
   107   55   56 1    
   108   55   59 1    
   109   55  111 1    
   110   56   57 am   BACKBONE|DICT|INTERRES
   111   56   58 2    
   112   57  112 1    
   113   57  113 1    
   114   59   60 1    
   115   59  114 1    
   116   59  115 1    
   117   60   61 1    
   118   61  116 1    
   119   61  117 1    
@<TRIPOS>SUBSTRUCTURE
     1 UNK         1 GROUP             0       ****    0 ROOT    
