@<TRIPOS>MOLECULE
3R8
117   119    1
SMALL
USER_CHARGES


@<TRIPOS>ATOM
      1 CA         22.1477  -23.1347  -40.7765 C.3       0 UNK        -0.2013 
      2 C          20.6980  -23.3053  -41.2069 C.2       0 UNK         0.4866 
      3 O          19.9253  -22.3479  -41.1546 O.2       0 UNK        -0.5176 
      4 N          20.3287  -24.5209  -41.6270 N.am      1 UNK        -0.4884 
      5 CA         19.0091  -24.8685  -42.1650 C.3       1 UNK         0.0853 
      6 C6         18.5821  -26.2933  -41.7142 C.3       10 UNK        -0.0849 
      7 S7         19.5091  -27.6539  -42.5101 S.3       10 UNK        -0.2776 
      8 C8         18.1583  -28.8233  -42.8593 C.3       10 UNK         0.0316 
      9 C9         18.6446  -29.9354  -43.7698 C.ar      10 UNK        -0.0863 
     10 C10        19.3074  -31.0431  -43.2373 C.ar      10 UNK        -0.1009 
     11 C11        19.8029  -32.0503  -44.0731 C.ar      10 UNK        -0.0712 
     12 C12        19.6405  -31.9240  -45.4566 C.ar      10 UNK        -0.0894 
     13 C13        18.9833  -30.8175  -46.0050 C.ar      10 UNK        -0.0745 
     14 C14        18.4624  -29.8402  -45.1506 C.ar      10 UNK        -0.0972 
     15 C15        18.8783  -30.6787  -47.5225 C.3       10 UNK         0.0209 
     16 S16        19.1627  -28.9837  -48.1508 S.3       10 UNK        -0.2568 
     17 C17        20.7330  -28.5028  -47.3432 C.3       10 UNK        -0.0983 
     18 CA         20.8143  -26.9845  -47.0229 C.3       3 UNK         0.0876 
     19 N          19.6354  -26.4879  -46.2950 N.am      3 UNK        -0.4424 
     20 C          18.8380  -25.5005  -46.7266 C.2       2 UNK         0.4918 
     21 O          18.9892  -24.9127  -47.7981 O.2       2 UNK        -0.4875 
     22 CA         17.6788  -25.0687  -45.8049 C.3       2 UNK         0.0481 
     23 CB         16.4067  -25.8574  -46.1553 C.3       2 UNK        -0.1831 
     24 N          17.9335  -25.1810  -44.3620 N.am      2 UNK        -0.4498 
     25 C          18.9708  -24.6485  -43.6976 C.2       1 UNK         0.5027 
     26 O          19.8868  -24.0395  -44.2567 O.2       1 UNK        -0.4969 
     27 C          22.1202  -26.6415  -46.2695 C.2       3 UNK         0.5005 
     28 O          23.1681  -27.1946  -46.6058 O.2       3 UNK        -0.5279 
     29 N          22.0451  -25.7637  -45.2530 N.am      4 UNK        -0.4463 
     30 CA         23.1297  -25.3071  -44.3694 C.3       4 UNK         0.0283 
     31 CB         24.2106  -24.5468  -45.1659 C.3       4 UNK        -0.1875 
     32 C          23.7389  -26.3966  -43.4593 C.2       4 UNK         0.4949 
     33 O          24.7582  -26.1403  -42.8185 O.2       4 UNK        -0.5039 
     34 N          23.1033  -27.5748  -43.3808 N.am      5 UNK        -0.4663 
     35 CA         23.5415  -28.7101  -42.5592 C.3       5 UNK         0.0242 
     36 CB         22.8729  -29.9906  -43.0833 C.3       5 UNK        -0.1982 
     37 C          23.2465  -28.5328  -41.0595 C.2       5 UNK         0.5017 
     38 O          23.8519  -29.2232  -40.2415 O.2       5 UNK        -0.5012 
     39 N          22.2997  -27.6404  -40.7332 N.am      6 UNK        -0.4439 
     40 CA         21.8118  -27.2988  -39.3890 C.3       6 UNK         0.0297 
     41 CB         22.9115  -26.5835  -38.5762 C.3       6 UNK        -0.2006 
     42 C          21.2087  -28.5096  -38.6482 C.2       6 UNK         0.4892 
     43 O          21.3941  -28.6486  -37.4387 O.2       6 UNK        -0.5089 
     44 N          20.5206  -29.3736  -39.4113 N.am      7 UNK        -0.4243 
     45 CA         19.9014  -30.6440  -39.0084 C.3       7 UNK         0.0196 
     46 CB         18.8108  -30.4200  -37.9398 C.3       7 UNK        -0.2007 
     47 C          20.8945  -31.7526  -38.5991 C.2       7 UNK         0.5020 
     48 O          20.4499  -32.8267  -38.1912 O.2       7 UNK        -0.5147 
     49 N          22.2086  -31.5273  -38.7453 N.am      8 UNK        -0.4734 
     50 CA         23.2600  -32.5085  -38.4616 C.3       8 UNK         0.0238 
     51 CB         24.5392  -31.7695  -38.0263 C.3       8 UNK        -0.1912 
     52 C          23.4840  -33.4271  -39.6765 C.2       8 UNK         0.5038 
     53 O          24.5714  -33.4361  -40.2566 O.2       8 UNK        -0.5046 
     54 N          22.4312  -34.1598  -40.0575 N.am      9 UNK        -0.4200 
     55 CA         22.3992  -35.0541  -41.2258 C.3       9 UNK         0.0839 
     56 C          23.2113  -36.3727  -41.0668 C.2       9 UNK         0.5513 
     57 N          23.6714  -36.7353  -39.8753 N.am      9 UNK        -0.7519 
     58 O          23.4296  -37.0788  -42.0479 O.2       9 UNK        -0.4960 
     59 C59        20.9482  -35.3559  -41.6890 C.3       10 UNK        -0.0876 
     60 S60        19.9182  -33.8680  -41.9292 S.3       10 UNK        -0.2414 
     61 C61        20.5706  -33.2466  -43.5148 C.3       10 UNK         0.0169 
     62 H62        22.6088  -22.3173  -41.3303 H         1 UNK         0.0903 
     63 H63        22.1982  -22.8979  -39.7140 H         1 UNK         0.0903 
     64 H64        22.7371  -24.0345  -40.9528 H         1 UNK         0.0903 
     65 H65        21.0205  -25.2483  -41.6829 H         1 UNK         0.3096 
     66 H66        18.2753  -24.1727  -41.7512 H         1 UNK         0.1121 
     67 H67        18.7021  -26.3885  -40.6338 H         1 UNK         0.0849 
     68 H68        17.5129  -26.4280  -41.8844 H         1 UNK         0.0849 
     69 H69        17.7812  -29.2381  -41.9230 H         1 UNK         0.0865 
     70 H70        17.3216  -28.3016  -43.3265 H         1 UNK         0.0865 
     71 H71        19.4584  -31.1071  -42.1708 H         1 UNK         0.1346 
     72 H72        20.0464  -32.6826  -46.1120 H         1 UNK         0.1412 
     73 H73        17.9515  -28.9833  -45.5663 H         1 UNK         0.1426 
     74 H74        17.8870  -31.0074  -47.8366 H         1 UNK         0.0716 
     75 H75        19.5932  -31.3412  -48.0130 H         1 UNK         0.0716 
     76 H76        21.5451  -28.7932  -48.0121 H         1 UNK         0.0695 
     77 H77        20.8810  -29.0817  -46.4314 H         1 UNK         0.0695 
     78 H78        20.8980  -26.4670  -47.9808 H         1 UNK         0.0983 
     79 H79        19.4355  -26.9248  -45.4071 H         1 UNK         0.3095 
     80 H80        17.4865  -24.0134  -46.0084 H         1 UNK         0.0454 
     81 H81        16.1759  -25.7745  -47.2185 H         1 UNK         0.0851 
     82 H82        15.5408  -25.4812  -45.6103 H         1 UNK         0.0851 
     83 H83        16.5129  -26.9188  -45.9291 H         1 UNK         0.0851 
     84 H84        17.2303  -25.6720  -43.8300 H         1 UNK         0.2976 
     85 H85        21.1498  -25.3147  -45.0793 H         1 UNK         0.3116 
     86 H86        22.6671  -24.5874  -43.6928 H         1 UNK         0.0646 
     87 H87        24.7750  -25.2105  -45.8214 H         1 UNK         0.0847 
     88 H88        23.7717  -23.7607  -45.7801 H         1 UNK         0.0847 
     89 H89        24.9275  -24.0686  -44.4973 H         1 UNK         0.0847 
     90 H90        22.2844  -27.7146  -43.9541 H         1 UNK         0.3040 
     91 H91        24.6234  -28.8191  -42.6647 H         1 UNK         0.1015 
     92 H92        23.1776  -30.8622  -42.5014 H         1 UNK         0.0786 
     93 H93        23.1419  -30.1844  -44.1218 H         1 UNK         0.0786 
     94 H94        21.7876  -29.9233  -43.0268 H         1 UNK         0.0786 
     95 H95        21.8124  -27.2181  -41.5089 H         1 UNK         0.3172 
     96 H96        20.9932  -26.5914  -39.5261 H         1 UNK         0.0595 
     97 H97        23.7385  -27.2535  -38.3385 H         1 UNK         0.0839 
     98 H98        22.5175  -26.2070  -37.6314 H         1 UNK         0.0839 
     99 H99        23.3183  -25.7308  -39.1191 H         1 UNK         0.0839 
    100 H100       20.4427  -29.1496  -40.3939 H         1 UNK         0.2998 
    101 H101       19.3985  -31.0234  -39.8976 H         1 UNK         0.0822 
    102 H102       18.2435  -31.3346  -37.7628 H         1 UNK         0.0787 
    103 H103       18.0994  -29.6557  -38.2527 H         1 UNK         0.0787 
    104 H104       19.2345  -30.1146  -36.9828 H         1 UNK         0.0787 
    105 H105       22.5175  -30.6385  -39.1213 H         1 UNK         0.3055 
    106 H106       22.9499  -33.1421  -37.6272 H         1 UNK         0.1106 
    107 H107       24.3533  -31.1266  -37.1658 H         1 UNK         0.0828 
    108 H108       25.3185  -32.4769  -37.7405 H         1 UNK         0.0828 
    109 H109       24.9435  -31.1489  -38.8263 H         1 UNK         0.0828 
    110 H110       21.5673  -34.0630  -39.5370 H         1 UNK         0.2931 
    111 H111       22.8864  -34.5154  -42.0404 H         1 UNK         0.0412 
    112 H112       24.1985  -37.5903  -39.7879 H         1 UNK         0.3472 
    113 H113       23.4972  -36.1642  -39.0641 H         1 UNK         0.3472 
    114 H114       20.9524  -35.9270  -42.6195 H         1 UNK         0.0970 
    115 H115       20.4458  -35.9880  -40.9544 H         1 UNK         0.0970 
    116 H116       21.6127  -32.9547  -43.3815 H         1 UNK         0.0612 
    117 H117       20.5615  -34.0656  -44.2357 H         1 UNK         0.0612 
@<TRIPOS>BOND
     1    1    2 1    
     2    1   62 1    
     3    1   63 1    
     4    1   64 1    
     5    2    3 2    
     6    2    4 am   BACKBONE|DICT|INTERRES
     7    4    5 1    
     8    4   65 1    
     9    5    6 1    
    10    5   25 1    
    11    5   66 1    
    12    6    7 1    
    13    6   67 1    
    14    6   68 1    
    15    7    8 1    
    16    8    9 1    
    17    8   69 1    
    18    8   70 1    
    19    9   10 ar   
    20    9   14 ar   
    21   10   11 ar   
    22   10   71 1    
    23   11   12 ar   
    24   11   61 1    
    25   12   13 ar   
    26   12   72 1    
    27   13   14 ar   
    28   13   15 1    
    29   14   73 1    
    30   15   16 1    
    31   15   74 1    
    32   15   75 1    
    33   16   17 1    
    34   17   18 1    
    35   17   76 1    
    36   17   77 1    
    37   18   19 1    
    38   18   27 1    
    39   18   78 1    
    40   19   20 am   BACKBONE|DICT|INTERRES
    41   19   79 1    
    42   20   21 2    
    43   20   22 1    
    44   22   23 1    
    45   22   24 1    
    46   22   80 1    
    47   23   81 1    
    48   23   82 1    
    49   23   83 1    
    50   24   25 am   BACKBONE|DICT|INTERRES
    51   24   84 1    
    52   25   26 2    
    53   27   28 2    
    54   27   29 am   BACKBONE|DICT|INTERRES
    55   29   30 1    
    56   29   85 1    
    57   30   31 1    
    58   30   32 1    
    59   30   86 1    
    60   31   87 1    
    61   31   88 1    
    62   31   89 1    
    63   32   33 2    
    64   32   34 am   BACKBONE|DICT|INTERRES
    65   34   35 1    
    66   34   90 1    
    67   35   36 1    
    68   35   37 1    
    69   35   91 1    
    70   36   92 1    
    71   36   93 1    
    72   36   94 1    
    73   37   38 2    
    74   37   39 am   BACKBONE|DICT|INTERRES
    75   39   40 1    
    76   39   95 1    
    77   40   41 1    
    78   40   42 1    
    79   40   96 1    
    80   41   97 1    
    81   41   98 1    
    82   41   99 1    
    83   42   43 2    
    84   42   44 am   BACKBONE|DICT|INTERRES
    85   44   45 1    
    86   44  100 1    
    87   45   46 1    
    88   45   47 1    
    89   45  101 1    
    90   46  102 1    
    91   46  103 1    
    92   46  104 1    
    93   47   48 2    
    94   47   49 am   BACKBONE|DICT|INTERRES
    95   49   50 1    
    96   49  105 1    
    97   50   51 1    
    98   50   52 1    
    99   50  106 1    
   100   51  107 1    
   101   51  108 1    
   102   51  109 1    
   103   52   53 2    
   104   52   54 am   BACKBONE|DICT|INTERRES
   105   54   55 1    
   106   54  110 1    
   107   55   56 1    
   108   55   59 1    
   109   55  111 1    
   110   56   57 am   BACKBONE|DICT|INTERRES
   111   56   58 2    
   112   57  112 1    
   113   57  113 1    
   114   59   60 1    
   115   59  114 1    
   116   59  115 1    
   117   60   61 1    
   118   61  116 1    
   119   61  117 1    
@<TRIPOS>SUBSTRUCTURE
     1 UNK         1 GROUP             0       ****    0 ROOT    
