@<TRIPOS>MOLECULE
3R8
117   119    1
SMALL
USER_CHARGES


@<TRIPOS>ATOM
      1 CA         19.8112  -28.8718  -42.4212 C.3       0 UNK        -0.2013 
      2 C          19.2943  -27.4443  -42.4797 C.2       0 UNK         0.4866 
      3 O          19.9273  -26.5448  -41.9286 O.2       0 UNK        -0.5176 
      4 N          18.1453  -27.2269  -43.1339 N.am      1 UNK        -0.4884 
      5 CA         17.4933  -25.9143  -43.2475 C.3       1 UNK         0.0853 
      6 C6         16.0356  -26.0065  -43.7670 C.3       10 UNK        -0.0849 
      7 S7         14.9834  -27.1397  -42.7960 S.3       10 UNK        -0.2776 
      8 C8         14.5605  -28.4132  -44.0304 C.3       10 UNK         0.0316 
      9 C9         15.7252  -29.3575  -44.2902 C.ar      10 UNK        -0.0863 
     10 C10        15.9247  -30.4627  -43.4565 C.ar      10 UNK        -0.1009 
     11 C11        16.9927  -31.3352  -43.6812 C.ar      10 UNK        -0.0712 
     12 C12        17.8560  -31.1030  -44.7537 C.ar      10 UNK        -0.0894 
     13 C13        17.6910  -29.9807  -45.5715 C.ar      10 UNK        -0.0745 
     14 C14        16.6078  -29.1248  -45.3510 C.ar      10 UNK        -0.0972 
     15 C15        18.7176  -29.6697  -46.6519 C.3       10 UNK         0.0209 
     16 S16        20.3675  -29.4764  -45.9081 S.3       10 UNK        -0.2568 
     17 C17        21.3687  -28.8050  -47.2794 C.3       10 UNK        -0.0983 
     18 CA         22.1774  -27.5243  -46.9087 C.3       3 UNK         0.0876 
     19 N          21.3569  -26.4683  -46.3205 N.am      3 UNK        -0.4424 
     20 C          20.5214  -25.6873  -47.0106 C.2       2 UNK         0.4918 
     21 O          20.3696  -25.7590  -48.2314 O.2       2 UNK        -0.4875 
     22 CA         19.6858  -24.6993  -46.1844 C.3       2 UNK         0.0481 
     23 CB         18.7553  -23.8294  -47.0582 C.3       2 UNK        -0.1831 
     24 N          18.9152  -25.4501  -45.1935 N.am      2 UNK        -0.4498 
     25 C          18.2953  -24.9310  -44.1252 C.2       1 UNK         0.5027 
     26 O          18.3241  -23.7363  -43.8258 O.2       1 UNK        -0.4969 
     27 C          23.3969  -27.7536  -45.9961 C.2       3 UNK         0.5005 
     28 O          24.3431  -26.9653  -46.0479 O.2       3 UNK        -0.5279 
     29 N          23.3573  -28.8195  -45.1867 N.am      4 UNK        -0.4463 
     30 CA         24.3927  -29.2281  -44.2375 C.3       4 UNK         0.0283 
     31 CB         23.9999  -30.5827  -43.6253 C.3       4 UNK        -0.1875 
     32 C          24.6196  -28.1938  -43.1232 C.2       4 UNK         0.4949 
     33 O          23.6570  -27.6104  -42.6185 O.2       4 UNK        -0.5039 
     34 N          25.8901  -28.0216  -42.7374 N.am      5 UNK        -0.4663 
     35 CA         26.3197  -27.1606  -41.6335 C.3       5 UNK         0.0242 
     36 CB         27.8534  -27.0560  -41.6456 C.3       5 UNK        -0.1982 
     37 C          25.8291  -27.6874  -40.2748 C.2       5 UNK         0.5017 
     38 O          25.6995  -28.9015  -40.1020 O.2       5 UNK        -0.5012 
     39 N          25.5587  -26.7603  -39.3436 N.am      6 UNK        -0.4439 
     40 CA         25.0613  -26.9960  -37.9774 C.3       6 UNK         0.0297 
     41 CB         26.1435  -27.6898  -37.1223 C.3       6 UNK        -0.2006 
     42 C          23.7051  -27.7349  -37.9117 C.2       6 UNK         0.4892 
     43 O          23.3855  -28.3243  -36.8781 O.2       6 UNK        -0.5089 
     44 N          22.9425  -27.6909  -39.0156 N.am      7 UNK        -0.4243 
     45 CA         21.6818  -28.3962  -39.2644 C.3       7 UNK         0.0196 
     46 CB         20.5435  -27.8193  -38.3972 C.3       7 UNK        -0.2007 
     47 C          21.8084  -29.9305  -39.1566 C.2       7 UNK         0.5020 
     48 O          20.8967  -30.5912  -38.6548 O.2       7 UNK        -0.5147 
     49 N          22.9448  -30.4764  -39.6129 N.am      8 UNK        -0.4734 
     50 CA         23.2882  -31.8982  -39.5366 C.3       8 UNK         0.0238 
     51 CB         24.8128  -32.0493  -39.6914 C.3       8 UNK        -0.1912 
     52 C          22.5058  -32.7663  -40.5434 C.2       8 UNK         0.5038 
     53 O          23.0860  -33.2583  -41.5131 O.2       8 UNK        -0.5046 
     54 N          21.2059  -32.9523  -40.2841 N.am      9 UNK        -0.4200 
     55 CA         20.3203  -33.8855  -41.0046 C.3       9 UNK         0.0839 
     56 C          20.6479  -35.3916  -40.7792 C.2       9 UNK         0.5513 
     57 N          21.4183  -35.7654  -39.7640 N.am      9 UNK        -0.7519 
     58 O          20.1922  -36.2371  -41.5447 O.2       9 UNK        -0.4960 
     59 C59        18.8238  -33.6092  -40.6996 C.3       10 UNK        -0.0876 
     60 S60        18.2780  -31.9924  -41.3378 S.3       10 UNK        -0.2414 
     61 C61        17.2468  -32.5060  -42.7471 C.3       10 UNK         0.0169 
     62 H62        19.2808  -29.5202  -43.1128 H         1 UNK         0.0903 
     63 H63        20.8709  -28.9040  -42.6744 H         1 UNK         0.0903 
     64 H64        19.6786  -29.2784  -41.4198 H         1 UNK         0.0903 
     65 H65        17.6379  -28.0078  -43.5311 H         1 UNK         0.3096 
     66 H66        17.4599  -25.4844  -42.2436 H         1 UNK         0.1121 
     67 H67        15.5665  -25.0212  -43.7282 H         1 UNK         0.0849 
     68 H68        16.0157  -26.2956  -44.8183 H         1 UNK         0.0849 
     69 H69        13.7048  -28.9832  -43.6649 H         1 UNK         0.0865 
     70 H70        14.2296  -27.9410  -44.9568 H         1 UNK         0.0865 
     71 H71        15.2588  -30.6350  -42.6217 H         1 UNK         0.1346 
     72 H72        18.6966  -31.7640  -44.9168 H         1 UNK         0.1412 
     73 H73        16.4647  -28.2662  -45.9926 H         1 UNK         0.1426 
     74 H74        18.4532  -28.7563  -47.1873 H         1 UNK         0.0716 
     75 H75        18.7379  -30.4765  -47.3856 H         1 UNK         0.0716 
     76 H76        20.7083  -28.5797  -48.1179 H         1 UNK         0.0695 
     77 H77        22.0359  -29.5889  -47.6424 H         1 UNK         0.0695 
     78 H78        22.5963  -27.1362  -47.8404 H         1 UNK         0.0983 
     79 H79        21.4568  -26.3364  -45.3233 H         1 UNK         0.3095 
     80 H80        20.3857  -24.0440  -45.6621 H         1 UNK         0.0454 
     81 H81        19.3228  -23.2939  -47.8203 H         1 UNK         0.0851 
     82 H82        18.2312  -23.0783  -46.4679 H         1 UNK         0.0851 
     83 H83        18.0066  -24.4334  -47.5719 H         1 UNK         0.0851 
     84 H84        18.8637  -26.4495  -45.3393 H         1 UNK         0.2976 
     85 H85        22.5090  -29.3723  -45.2006 H         1 UNK         0.3116 
     86 H86        25.3211  -29.3544  -44.7985 H         1 UNK         0.0646 
     87 H87        23.0723  -30.5159  -43.0545 H         1 UNK         0.0847 
     88 H88        23.8673  -31.3464  -44.3918 H         1 UNK         0.0847 
     89 H89        24.7722  -30.9424  -42.9447 H         1 UNK         0.0847 
     90 H90        26.6100  -28.5742  -43.1802 H         1 UNK         0.3040 
     91 H91        25.8963  -26.1675  -41.8003 H         1 UNK         0.1015 
     92 H92        28.2077  -26.3954  -40.8528 H         1 UNK         0.0786 
     93 H93        28.2171  -26.6494  -42.5896 H         1 UNK         0.0786 
     94 H94        28.3250  -28.0279  -41.4934 H         1 UNK         0.0786 
     95 H95        25.6933  -25.7882  -39.5892 H         1 UNK         0.3172 
     96 H96        24.8838  -26.0097  -37.5462 H         1 UNK         0.0595 
     97 H97        26.3236  -28.7137  -37.4518 H         1 UNK         0.0839 
     98 H98        25.8474  -27.7346  -36.0735 H         1 UNK         0.0839 
     99 H99        27.0904  -27.1518  -37.1655 H         1 UNK         0.0839 
    100 H100       23.3115  -27.1842  -39.8089 H         1 UNK         0.2998 
    101 H101       21.4433  -28.1852  -40.3050 H         1 UNK         0.0822 
    102 H102       19.5827  -28.2541  -38.6755 H         1 UNK         0.0787 
    103 H103       20.4568  -26.7404  -38.5257 H         1 UNK         0.0787 
    104 H104       20.6991  -28.0224  -37.3372 H         1 UNK         0.0787 
    105 H105       23.6635  -29.8632  -39.9803 H         1 UNK         0.3055 
    106 H106       23.0293  -32.2572  -38.5378 H         1 UNK         0.1106 
    107 H107       25.3454  -31.5086  -38.9086 H         1 UNK         0.0828 
    108 H108       25.1130  -33.0958  -39.6231 H         1 UNK         0.0828 
    109 H109       25.1625  -31.6706  -40.6520 H         1 UNK         0.0828 
    110 H110       20.7942  -32.4257  -39.5210 H         1 UNK         0.2931 
    111 H111       20.4752  -33.7091  -42.0711 H         1 UNK         0.0412 
    112 H112       21.6223  -36.7442  -39.6342 H         1 UNK         0.3472 
    113 H113       21.7895  -35.0839  -39.1223 H         1 UNK         0.3472 
    114 H114       18.1854  -34.3860  -41.1258 H         1 UNK         0.0970 
    115 H115       18.6435  -33.6371  -39.6236 H         1 UNK         0.0970 
    116 H116       17.7437  -33.3114  -43.2906 H         1 UNK         0.0612 
    117 H117       16.3032  -32.9119  -42.3795 H         1 UNK         0.0612 
@<TRIPOS>BOND
     1    1    2 1    
     2    1   62 1    
     3    1   63 1    
     4    1   64 1    
     5    2    3 2    
     6    2    4 am   BACKBONE|DICT|INTERRES
     7    4    5 1    
     8    4   65 1    
     9    5    6 1    
    10    5   25 1    
    11    5   66 1    
    12    6    7 1    
    13    6   67 1    
    14    6   68 1    
    15    7    8 1    
    16    8    9 1    
    17    8   69 1    
    18    8   70 1    
    19    9   10 ar   
    20    9   14 ar   
    21   10   11 ar   
    22   10   71 1    
    23   11   12 ar   
    24   11   61 1    
    25   12   13 ar   
    26   12   72 1    
    27   13   14 ar   
    28   13   15 1    
    29   14   73 1    
    30   15   16 1    
    31   15   74 1    
    32   15   75 1    
    33   16   17 1    
    34   17   18 1    
    35   17   76 1    
    36   17   77 1    
    37   18   19 1    
    38   18   27 1    
    39   18   78 1    
    40   19   20 am   BACKBONE|DICT|INTERRES
    41   19   79 1    
    42   20   21 2    
    43   20   22 1    
    44   22   23 1    
    45   22   24 1    
    46   22   80 1    
    47   23   81 1    
    48   23   82 1    
    49   23   83 1    
    50   24   25 am   BACKBONE|DICT|INTERRES
    51   24   84 1    
    52   25   26 2    
    53   27   28 2    
    54   27   29 am   BACKBONE|DICT|INTERRES
    55   29   30 1    
    56   29   85 1    
    57   30   31 1    
    58   30   32 1    
    59   30   86 1    
    60   31   87 1    
    61   31   88 1    
    62   31   89 1    
    63   32   33 2    
    64   32   34 am   BACKBONE|DICT|INTERRES
    65   34   35 1    
    66   34   90 1    
    67   35   36 1    
    68   35   37 1    
    69   35   91 1    
    70   36   92 1    
    71   36   93 1    
    72   36   94 1    
    73   37   38 2    
    74   37   39 am   BACKBONE|DICT|INTERRES
    75   39   40 1    
    76   39   95 1    
    77   40   41 1    
    78   40   42 1    
    79   40   96 1    
    80   41   97 1    
    81   41   98 1    
    82   41   99 1    
    83   42   43 2    
    84   42   44 am   BACKBONE|DICT|INTERRES
    85   44   45 1    
    86   44  100 1    
    87   45   46 1    
    88   45   47 1    
    89   45  101 1    
    90   46  102 1    
    91   46  103 1    
    92   46  104 1    
    93   47   48 2    
    94   47   49 am   BACKBONE|DICT|INTERRES
    95   49   50 1    
    96   49  105 1    
    97   50   51 1    
    98   50   52 1    
    99   50  106 1    
   100   51  107 1    
   101   51  108 1    
   102   51  109 1    
   103   52   53 2    
   104   52   54 am   BACKBONE|DICT|INTERRES
   105   54   55 1    
   106   54  110 1    
   107   55   56 1    
   108   55   59 1    
   109   55  111 1    
   110   56   57 am   BACKBONE|DICT|INTERRES
   111   56   58 2    
   112   57  112 1    
   113   57  113 1    
   114   59   60 1    
   115   59  114 1    
   116   59  115 1    
   117   60   61 1    
   118   61  116 1    
   119   61  117 1    
@<TRIPOS>SUBSTRUCTURE
     1 UNK         1 GROUP             0       ****    0 ROOT    
