@<TRIPOS>MOLECULE
3R8
117   119    1
SMALL
USER_CHARGES


@<TRIPOS>ATOM
      1 CA         16.2025  -23.5332  -47.7858 C.3       0 UNK        -0.2013 
      2 C          17.0538  -24.7915  -47.7055 C.2       0 UNK         0.4866 
      3 O          18.0358  -24.9137  -48.4377 O.2       0 UNK        -0.5176 
      4 N          16.6877  -25.7276  -46.8187 N.am      1 UNK        -0.4884 
      5 CA         17.3921  -27.0022  -46.6095 C.3       1 UNK         0.0853 
      6 C6         16.4508  -28.0626  -45.9790 C.3       10 UNK        -0.0849 
      7 S7         16.8217  -29.7449  -46.5754 S.3       10 UNK        -0.2776 
      8 C8         16.0000  -30.7679  -45.3140 C.3       10 UNK         0.0316 
      9 C9         16.7266  -30.7386  -43.9760 C.ar      10 UNK        -0.0863 
     10 C10        18.0031  -31.2978  -43.8594 C.ar      10 UNK        -0.1009 
     11 C11        18.6562  -31.3169  -42.6249 C.ar      10 UNK        -0.0712 
     12 C12        18.0179  -30.7919  -41.4998 C.ar      10 UNK        -0.0894 
     13 C13        16.7550  -30.2015  -41.6057 C.ar      10 UNK        -0.0745 
     14 C14        16.1127  -30.1819  -42.8483 C.ar      10 UNK        -0.0972 
     15 C15        16.0693  -29.6075  -40.3792 C.3       10 UNK         0.0209 
     16 S16        17.1685  -28.5528  -39.3723 S.3       10 UNK        -0.2568 
     17 C17        17.5669  -27.2002  -40.5302 C.3       10 UNK        -0.0983 
     18 CA         18.9998  -27.2784  -41.1214 C.3       3 UNK         0.0876 
     19 N          19.0973  -26.4348  -42.3240 N.am      3 UNK        -0.4424 
     20 C          20.1906  -26.2279  -43.0729 C.2       2 UNK         0.4918 
     21 O          21.2962  -26.7021  -42.8180 O.2       2 UNK        -0.4875 
     22 CA         20.0084  -25.3042  -44.2908 C.3       2 UNK         0.0481 
     23 CB         21.2931  -25.1640  -45.1359 C.3       2 UNK        -0.1831 
     24 N          18.8647  -25.6947  -45.1235 N.am      2 UNK        -0.4498 
     25 C          18.7033  -26.8437  -45.8022 C.2       1 UNK         0.5027 
     26 O          19.5353  -27.7510  -45.8189 O.2       1 UNK        -0.4969 
     27 C          20.0813  -26.9713  -40.0556 C.2       3 UNK         0.5005 
     28 O          20.5915  -27.8889  -39.4085 O.2       3 UNK        -0.5279 
     29 N          20.4626  -25.6888  -39.9483 N.am      4 UNK        -0.4463 
     30 CA         21.5351  -25.1693  -39.0940 C.3       4 UNK         0.0283 
     31 CB         21.5510  -23.6351  -39.1964 C.3       4 UNK        -0.1875 
     32 C          22.9397  -25.7396  -39.3829 C.2       4 UNK         0.4949 
     33 O          23.8208  -25.5879  -38.5363 O.2       4 UNK        -0.5039 
     34 N          23.1370  -26.3915  -40.5405 N.am      5 UNK        -0.4663 
     35 CA         24.3682  -27.1065  -40.8919 C.3       5 UNK         0.0242 
     36 CB         24.3364  -27.4795  -42.3824 C.3       5 UNK        -0.1982 
     37 C          24.6230  -28.3578  -40.0290 C.2       5 UNK         0.5017 
     38 O          25.7736  -28.7871  -39.9555 O.2       5 UNK        -0.5012 
     39 N          23.5694  -28.8957  -39.3885 N.am      6 UNK        -0.4439 
     40 CA         23.5743  -30.0052  -38.4268 C.3       6 UNK         0.0297 
     41 CB         24.3086  -29.5964  -37.1328 C.3       6 UNK        -0.2006 
     42 C          24.1296  -31.3089  -39.0277 C.2       6 UNK         0.4892 
     43 O          25.3012  -31.6358  -38.8338 O.2       6 UNK        -0.5089 
     44 N          23.2710  -32.0106  -39.7786 N.am      7 UNK        -0.4243 
     45 CA         23.4948  -33.2818  -40.4872 C.3       7 UNK         0.0196 
     46 CB         24.0052  -34.3933  -39.5484 C.3       7 UNK        -0.2007 
     47 C          24.3634  -33.1706  -41.7529 C.2       7 UNK         0.5020 
     48 O          24.1749  -33.9720  -42.6681 O.2       7 UNK        -0.5147 
     49 N          25.2373  -32.1568  -41.8428 N.am      8 UNK        -0.4734 
     50 CA         25.9914  -31.8049  -43.0574 C.3       8 UNK         0.0238 
     51 CB         27.0476  -30.7440  -42.7132 C.3       8 UNK        -0.1912 
     52 C          25.0922  -31.3336  -44.2204 C.2       8 UNK         0.5038 
     53 O          25.5090  -31.3904  -45.3774 O.2       8 UNK        -0.5046 
     54 N          23.8656  -30.9214  -43.8824 N.am      9 UNK        -0.4200 
     55 CA         22.7115  -30.7304  -44.7697 C.3       9 UNK         0.0839 
     56 C          22.2178  -32.0168  -45.4972 C.2       9 UNK         0.5513 
     57 N          22.5960  -33.2198  -45.0787 N.am      9 UNK        -0.7519 
     58 O          21.4757  -31.9180  -46.4704 O.2       9 UNK        -0.4960 
     59 C59        21.5434  -30.0227  -44.0218 C.3       10 UNK        -0.0876 
     60 S60        21.2998  -30.5953  -42.2970 S.3       10 UNK        -0.2414 
     61 C61        20.0505  -31.9028  -42.4919 C.3       10 UNK         0.0169 
     62 H62        16.8085  -22.6552  -47.5633 H         1 UNK         0.0903 
     63 H63        15.7953  -23.4199  -48.7902 H         1 UNK         0.0903 
     64 H64        15.3694  -23.5571  -47.0836 H         1 UNK         0.0903 
     65 H65        15.8666  -25.5760  -46.2487 H         1 UNK         0.3096 
     66 H66        17.6912  -27.3579  -47.5988 H         1 UNK         0.1121 
     67 H67        15.4128  -27.8636  -46.2510 H         1 UNK         0.0849 
     68 H68        16.4834  -28.0292  -44.8881 H         1 UNK         0.0849 
     69 H69        14.9631  -30.4451  -45.2070 H         1 UNK         0.0865 
     70 H70        15.9609  -31.7983  -45.6702 H         1 UNK         0.0865 
     71 H71        18.4869  -31.7152  -44.7324 H         1 UNK         0.1346 
     72 H72        18.5220  -30.8173  -40.5432 H         1 UNK         0.1412 
     73 H73        15.1270  -29.7450  -42.9351 H         1 UNK         0.1426 
     74 H74        15.7036  -30.4248  -39.7564 H         1 UNK         0.0716 
     75 H75        15.1935  -29.0241  -40.6677 H         1 UNK         0.0716 
     76 H76        17.4111  -26.2489  -40.0178 H         1 UNK         0.0695 
     77 H77        16.8301  -27.2223  -41.3349 H         1 UNK         0.0695 
     78 H78        19.1828  -28.2983  -41.4630 H         1 UNK         0.0983 
     79 H79        18.2392  -25.9945  -42.6208 H         1 UNK         0.3095 
     80 H80        19.7733  -24.3163  -43.8925 H         1 UNK         0.0454 
     81 H81        21.1411  -24.4944  -45.9822 H         1 UNK         0.0851 
     82 H82        21.6329  -26.1246  -45.5244 H         1 UNK         0.0851 
     83 H83        22.1082  -24.7530  -44.5391 H         1 UNK         0.0851 
     84 H84        18.1198  -25.0158  -45.1943 H         1 UNK         0.2976 
     85 H85        19.9964  -25.0147  -40.5377 H         1 UNK         0.3116 
     86 H86        21.2887  -25.4408  -38.0655 H         1 UNK         0.0646 
     87 H87        21.7705  -23.3008  -40.2112 H         1 UNK         0.0847 
     88 H88        20.5948  -23.2049  -38.8980 H         1 UNK         0.0847 
     89 H89        22.3119  -23.2070  -38.5421 H         1 UNK         0.0847 
     90 H90        22.3721  -26.4647  -41.2062 H         1 UNK         0.3040 
     91 H91        25.2060  -26.4248  -40.7291 H         1 UNK         0.1015 
     92 H92        25.2881  -27.9037  -42.7017 H         1 UNK         0.0786 
     93 H93        24.1466  -26.6077  -43.0087 H         1 UNK         0.0786 
     94 H94        23.5624  -28.2173  -42.5920 H         1 UNK         0.0786 
     95 H95        22.6623  -28.4656  -39.5435 H         1 UNK         0.3172 
     96 H96        22.5310  -30.1863  -38.1626 H         1 UNK         0.0595 
     97 H97        25.3629  -29.3813  -37.3104 H         1 UNK         0.0839 
     98 H98        24.2621  -30.3946  -36.3910 H         1 UNK         0.0839 
     99 H99        23.8584  -28.7099  -36.6859 H         1 UNK         0.0839 
    100 H100       22.3506  -31.6129  -39.9125 H         1 UNK         0.2998 
    101 H101       22.5061  -33.5873  -40.8341 H         1 UNK         0.0822 
    102 H102       24.0169  -35.3560  -40.0611 H         1 UNK         0.0787 
    103 H103       25.0212  -34.2042  -39.2015 H         1 UNK         0.0787 
    104 H104       23.3642  -34.5002  -38.6733 H         1 UNK         0.0787 
    105 H105       25.3773  -31.5782  -41.0221 H         1 UNK         0.3055 
    106 H106       26.5084  -32.7036  -43.4012 H         1 UNK         0.1106 
    107 H107       27.7441  -31.1084  -41.9579 H         1 UNK         0.0828 
    108 H108       27.6351  -30.4762  -43.5925 H         1 UNK         0.0828 
    109 H109       26.5934  -29.8298  -42.3334 H         1 UNK         0.0828 
    110 H110       23.6358  -30.9166  -42.8998 H         1 UNK         0.2931 
    111 H111       23.0424  -30.0578  -45.5633 H         1 UNK         0.0412 
    112 H112       22.2664  -34.0333  -45.5732 H         1 UNK         0.3472 
    113 H113       23.1981  -33.3372  -44.2711 H         1 UNK         0.3472 
    114 H114       20.6038  -30.0849  -44.5746 H         1 UNK         0.0970 
    115 H115       21.7598  -28.9562  -43.9764 H         1 UNK         0.0970 
    116 H116       20.2956  -32.5337  -43.3465 H         1 UNK         0.0612 
    117 H117       20.0844  -32.5516  -41.6157 H         1 UNK         0.0612 
@<TRIPOS>BOND
     1    1    2 1    
     2    1   62 1    
     3    1   63 1    
     4    1   64 1    
     5    2    3 2    
     6    2    4 am   BACKBONE|DICT|INTERRES
     7    4    5 1    
     8    4   65 1    
     9    5    6 1    
    10    5   25 1    
    11    5   66 1    
    12    6    7 1    
    13    6   67 1    
    14    6   68 1    
    15    7    8 1    
    16    8    9 1    
    17    8   69 1    
    18    8   70 1    
    19    9   10 ar   
    20    9   14 ar   
    21   10   11 ar   
    22   10   71 1    
    23   11   12 ar   
    24   11   61 1    
    25   12   13 ar   
    26   12   72 1    
    27   13   14 ar   
    28   13   15 1    
    29   14   73 1    
    30   15   16 1    
    31   15   74 1    
    32   15   75 1    
    33   16   17 1    
    34   17   18 1    
    35   17   76 1    
    36   17   77 1    
    37   18   19 1    
    38   18   27 1    
    39   18   78 1    
    40   19   20 am   BACKBONE|DICT|INTERRES
    41   19   79 1    
    42   20   21 2    
    43   20   22 1    
    44   22   23 1    
    45   22   24 1    
    46   22   80 1    
    47   23   81 1    
    48   23   82 1    
    49   23   83 1    
    50   24   25 am   BACKBONE|DICT|INTERRES
    51   24   84 1    
    52   25   26 2    
    53   27   28 2    
    54   27   29 am   BACKBONE|DICT|INTERRES
    55   29   30 1    
    56   29   85 1    
    57   30   31 1    
    58   30   32 1    
    59   30   86 1    
    60   31   87 1    
    61   31   88 1    
    62   31   89 1    
    63   32   33 2    
    64   32   34 am   BACKBONE|DICT|INTERRES
    65   34   35 1    
    66   34   90 1    
    67   35   36 1    
    68   35   37 1    
    69   35   91 1    
    70   36   92 1    
    71   36   93 1    
    72   36   94 1    
    73   37   38 2    
    74   37   39 am   BACKBONE|DICT|INTERRES
    75   39   40 1    
    76   39   95 1    
    77   40   41 1    
    78   40   42 1    
    79   40   96 1    
    80   41   97 1    
    81   41   98 1    
    82   41   99 1    
    83   42   43 2    
    84   42   44 am   BACKBONE|DICT|INTERRES
    85   44   45 1    
    86   44  100 1    
    87   45   46 1    
    88   45   47 1    
    89   45  101 1    
    90   46  102 1    
    91   46  103 1    
    92   46  104 1    
    93   47   48 2    
    94   47   49 am   BACKBONE|DICT|INTERRES
    95   49   50 1    
    96   49  105 1    
    97   50   51 1    
    98   50   52 1    
    99   50  106 1    
   100   51  107 1    
   101   51  108 1    
   102   51  109 1    
   103   52   53 2    
   104   52   54 am   BACKBONE|DICT|INTERRES
   105   54   55 1    
   106   54  110 1    
   107   55   56 1    
   108   55   59 1    
   109   55  111 1    
   110   56   57 am   BACKBONE|DICT|INTERRES
   111   56   58 2    
   112   57  112 1    
   113   57  113 1    
   114   59   60 1    
   115   59  114 1    
   116   59  115 1    
   117   60   61 1    
   118   61  116 1    
   119   61  117 1    
@<TRIPOS>SUBSTRUCTURE
     1 UNK         1 GROUP             0       ****    0 ROOT    
