@<TRIPOS>MOLECULE
3R8
117   119    1
SMALL
USER_CHARGES


@<TRIPOS>ATOM
      1 CA         15.0752  -24.4830  -48.4616 C.3       0 UNK        -0.2013 
      2 C          16.5486  -24.7813  -48.2268 C.2       0 UNK         0.4866 
      3 O          17.3913  -23.9077  -48.4364 O.2       0 UNK        -0.5176 
      4 N          16.8657  -26.0108  -47.8033 N.am      1 UNK        -0.4884 
      5 CA         18.2178  -26.4572  -47.4508 C.3       1 UNK         0.0853 
      6 C6         18.3673  -27.9908  -47.6364 C.3       10 UNK        -0.0849 
      7 S7         17.2161  -28.9873  -46.6273 S.3       10 UNK        -0.2776 
      8 C8         18.3748  -29.6649  -45.3980 C.3       10 UNK         0.0316 
      9 C9         17.7133  -30.0184  -44.0751 C.ar      10 UNK        -0.0863 
     10 C10        18.0424  -31.2133  -43.4296 C.ar      10 UNK        -0.1009 
     11 C11        17.5109  -31.5097  -42.1711 C.ar      10 UNK        -0.0712 
     12 C12        16.6382  -30.6051  -41.5594 C.ar      10 UNK        -0.0894 
     13 C13        16.3121  -29.4015  -42.1906 C.ar      10 UNK        -0.0745 
     14 C14        16.8404  -29.1207  -43.4527 C.ar      10 UNK        -0.0972 
     15 C15        15.4392  -28.3758  -41.4857 C.3       10 UNK         0.0209 
     16 S16        16.4105  -27.3897  -40.2997 S.3       10 UNK        -0.2568 
     17 C17        17.5361  -26.4565  -41.3975 C.3       10 UNK        -0.0983 
     18 CA         18.9139  -27.1551  -41.5966 C.3       3 UNK         0.0876 
     19 N          19.5389  -26.8032  -42.8802 N.am      3 UNK        -0.4424 
     20 C          20.0189  -25.5968  -43.2148 C.2       2 UNK         0.4918 
     21 O          19.9965  -24.6130  -42.4748 O.2       2 UNK        -0.4875 
     22 CA         20.6506  -25.4567  -44.6135 C.3       2 UNK         0.0481 
     23 CB         22.1023  -25.9634  -44.5842 C.3       2 UNK        -0.1831 
     24 N          19.9400  -26.0898  -45.7359 N.am      2 UNK        -0.4498 
     25 C          18.6413  -25.9466  -46.0492 C.2       1 UNK         0.5027 
     26 O          17.8092  -25.4201  -45.3054 O.2       1 UNK        -0.4969 
     27 C          19.8906  -26.9921  -40.4074 C.2       3 UNK         0.5005 
     28 O          19.5597  -26.3615  -39.4007 O.2       3 UNK        -0.5279 
     29 N          21.0929  -27.5634  -40.5546 N.am      4 UNK        -0.4463 
     30 CA         22.1299  -27.6101  -39.5295 C.3       4 UNK         0.0283 
     31 CB         23.1312  -26.4625  -39.7432 C.3       4 UNK        -0.1875 
     32 C          22.8270  -28.9680  -39.6158 C.2       4 UNK         0.4949 
     33 O          23.0448  -29.4687  -40.7230 O.2       4 UNK        -0.5039 
     34 N          23.1821  -29.5280  -38.4522 N.am      5 UNK        -0.4663 
     35 CA         23.8543  -30.8268  -38.3116 C.3       5 UNK         0.0242 
     36 CB         23.7997  -31.2673  -36.8402 C.3       5 UNK        -0.1982 
     37 C          25.3055  -30.8322  -38.8234 C.2       5 UNK         0.5017 
     38 O          25.8226  -31.8927  -39.1726 O.2       5 UNK        -0.5012 
     39 N          25.9255  -29.6462  -38.8748 N.am      6 UNK        -0.4439 
     40 CA         27.2365  -29.4068  -39.4811 C.3       6 UNK         0.0297 
     41 CB         27.8414  -28.1361  -38.8595 C.3       6 UNK        -0.2006 
     42 C          27.1766  -29.2810  -41.0174 C.2       6 UNK         0.4892 
     43 O          28.2334  -29.2055  -41.6462 O.2       6 UNK        -0.5089 
     44 N          25.9660  -29.2336  -41.5894 N.am      7 UNK        -0.4243 
     45 CA         25.7023  -29.0860  -43.0159 C.3       7 UNK         0.0196 
     46 CB         25.0881  -27.6918  -43.2661 C.3       7 UNK        -0.2007 
     47 C          24.8212  -30.2561  -43.4845 C.2       7 UNK         0.5020 
     48 O          25.0994  -31.4056  -43.1402 O.2       7 UNK        -0.5147 
     49 N          23.7833  -29.9539  -44.2740 N.am      8 UNK        -0.4734 
     50 CA         22.9111  -30.9126  -44.9603 C.3       8 UNK         0.0238 
     51 CB         21.9916  -30.1374  -45.9175 C.3       8 UNK        -0.1912 
     52 C          22.0911  -31.8544  -44.0562 C.2       8 UNK         0.5038 
     53 O          21.6285  -32.8810  -44.5552 O.2       8 UNK        -0.5046 
     54 N          21.9221  -31.5119  -42.7714 N.am      9 UNK        -0.4200 
     55 CA         21.3084  -32.3878  -41.7585 C.3       9 UNK         0.0839 
     56 C          22.3413  -33.2939  -41.0226 C.2       9 UNK         0.5513 
     57 N          23.6356  -33.2049  -41.3063 N.am      9 UNK        -0.7519 
     58 O          21.9657  -34.1080  -40.1842 O.2       9 UNK        -0.4960 
     59 C59        20.4107  -31.5703  -40.7880 C.3       10 UNK        -0.0876 
     60 S60        19.0254  -32.5102  -40.0529 S.3       10 UNK        -0.2414 
     61 C61        17.9027  -32.7969  -41.4624 C.3       10 UNK         0.0169 
     62 H62        14.9123  -24.1858  -49.4972 H         1 UNK         0.0903 
     63 H63        14.4458  -25.3484  -48.2544 H         1 UNK         0.0903 
     64 H64        14.7511  -23.6663  -47.8171 H         1 UNK         0.0903 
     65 H65        16.1334  -26.6807  -47.6127 H         1 UNK         0.3096 
     66 H66        18.9068  -25.9874  -48.1572 H         1 UNK         0.1121 
     67 H67        18.1758  -28.2399  -48.6815 H         1 UNK         0.0849 
     68 H68        19.3969  -28.3073  -47.4614 H         1 UNK         0.0849 
     69 H69        18.8725  -30.5338  -45.8312 H         1 UNK         0.0865 
     70 H70        19.1490  -28.9299  -45.1865 H         1 UNK         0.0865 
     71 H71        18.7344  -31.9037  -43.8936 H         1 UNK         0.1346 
     72 H72        16.2435  -30.8218  -40.5760 H         1 UNK         0.1412 
     73 H73        16.6047  -28.1805  -43.9334 H         1 UNK         0.1426 
     74 H74        14.6354  -28.8838  -40.9507 H         1 UNK         0.0716 
     75 H75        14.9567  -27.7137  -42.2065 H         1 UNK         0.0716 
     76 H76        17.0371  -26.3272  -42.3591 H         1 UNK         0.0695 
     77 H77        17.6611  -25.4462  -41.0040 H         1 UNK         0.0695 
     78 H78        18.7378  -28.2289  -41.6556 H         1 UNK         0.0983 
     79 H79        19.5931  -27.5408  -43.5644 H         1 UNK         0.3095 
     80 H80        20.6797  -24.3884  -44.8375 H         1 UNK         0.0454 
     81 H81        22.1494  -27.0425  -44.4397 H         1 UNK         0.0851 
     82 H82        22.6278  -25.7240  -45.5088 H         1 UNK         0.0851 
     83 H83        22.6630  -25.5004  -43.7705 H         1 UNK         0.0851 
     84 H84        20.5351  -26.5375  -46.4178 H         1 UNK         0.2976 
     85 H85        21.3021  -28.0925  -41.3901 H         1 UNK         0.3116 
     86 H86        21.6791  -27.5142  -38.5391 H         1 UNK         0.0646 
     87 H87        23.9114  -26.4740  -38.9813 H         1 UNK         0.0847 
     88 H88        22.6365  -25.4928  -39.6841 H         1 UNK         0.0847 
     89 H89        23.6214  -26.5259  -40.7145 H         1 UNK         0.0847 
     90 H90        22.9598  -29.0438  -37.5931 H         1 UNK         0.3040 
     91 H91        23.3034  -31.5577  -38.9048 H         1 UNK         0.1015 
     92 H92        22.7710  -31.3535  -36.4897 H         1 UNK         0.0786 
     93 H93        24.3214  -30.5661  -36.1876 H         1 UNK         0.0786 
     94 H94        24.2666  -32.2446  -36.7084 H         1 UNK         0.0786 
     95 H95        25.4221  -28.8368  -38.5422 H         1 UNK         0.3172 
     96 H96        27.8933  -30.2472  -39.2468 H         1 UNK         0.0595 
     97 H97        27.9334  -28.2276  -37.7771 H         1 UNK         0.0839 
     98 H98        27.2373  -27.2534  -39.0735 H         1 UNK         0.0839 
     99 H99        28.8419  -27.9473  -39.2513 H         1 UNK         0.0839 
    100 H100       25.1449  -29.3820  -41.0147 H         1 UNK         0.2998 
    101 H101       26.6317  -29.1570  -43.5844 H         1 UNK         0.0822 
    102 H102       25.7297  -26.9061  -42.8665 H         1 UNK         0.0787 
    103 H103       24.9731  -27.4896  -44.3316 H         1 UNK         0.0787 
    104 H104       24.1114  -27.5891  -42.7924 H         1 UNK         0.0787 
    105 H105       23.6401  -28.9806  -44.4971 H         1 UNK         0.3055 
    106 H106       23.5551  -31.5585  -45.5615 H         1 UNK         0.1106 
    107 H107       21.3942  -29.3999  -45.3842 H         1 UNK         0.0828 
    108 H108       22.5666  -29.6134  -46.6812 H         1 UNK         0.0828 
    109 H109       21.3070  -30.8080  -46.4389 H         1 UNK         0.0828 
    110 H110       22.3856  -30.6845  -42.4160 H         1 UNK         0.2931 
    111 H111       20.6538  -33.0842  -42.2828 H         1 UNK         0.0412 
    112 H112       23.9876  -32.5446  -41.9920 H         1 UNK         0.3472 
    113 H113       24.2868  -33.7914  -40.8095 H         1 UNK         0.3472 
    114 H114       19.9882  -30.7030  -41.2961 H         1 UNK         0.0970 
    115 H115       21.0038  -31.1615  -39.9706 H         1 UNK         0.0970 
    116 H116       18.3659  -33.4974  -42.1583 H         1 UNK         0.0612 
    117 H117       17.0023  -33.2910  -41.0949 H         1 UNK         0.0612 
@<TRIPOS>BOND
     1    1    2 1    
     2    1   62 1    
     3    1   63 1    
     4    1   64 1    
     5    2    3 2    
     6    2    4 am   BACKBONE|DICT|INTERRES
     7    4    5 1    
     8    4   65 1    
     9    5    6 1    
    10    5   25 1    
    11    5   66 1    
    12    6    7 1    
    13    6   67 1    
    14    6   68 1    
    15    7    8 1    
    16    8    9 1    
    17    8   69 1    
    18    8   70 1    
    19    9   10 ar   
    20    9   14 ar   
    21   10   11 ar   
    22   10   71 1    
    23   11   12 ar   
    24   11   61 1    
    25   12   13 ar   
    26   12   72 1    
    27   13   14 ar   
    28   13   15 1    
    29   14   73 1    
    30   15   16 1    
    31   15   74 1    
    32   15   75 1    
    33   16   17 1    
    34   17   18 1    
    35   17   76 1    
    36   17   77 1    
    37   18   19 1    
    38   18   27 1    
    39   18   78 1    
    40   19   20 am   BACKBONE|DICT|INTERRES
    41   19   79 1    
    42   20   21 2    
    43   20   22 1    
    44   22   23 1    
    45   22   24 1    
    46   22   80 1    
    47   23   81 1    
    48   23   82 1    
    49   23   83 1    
    50   24   25 am   BACKBONE|DICT|INTERRES
    51   24   84 1    
    52   25   26 2    
    53   27   28 2    
    54   27   29 am   BACKBONE|DICT|INTERRES
    55   29   30 1    
    56   29   85 1    
    57   30   31 1    
    58   30   32 1    
    59   30   86 1    
    60   31   87 1    
    61   31   88 1    
    62   31   89 1    
    63   32   33 2    
    64   32   34 am   BACKBONE|DICT|INTERRES
    65   34   35 1    
    66   34   90 1    
    67   35   36 1    
    68   35   37 1    
    69   35   91 1    
    70   36   92 1    
    71   36   93 1    
    72   36   94 1    
    73   37   38 2    
    74   37   39 am   BACKBONE|DICT|INTERRES
    75   39   40 1    
    76   39   95 1    
    77   40   41 1    
    78   40   42 1    
    79   40   96 1    
    80   41   97 1    
    81   41   98 1    
    82   41   99 1    
    83   42   43 2    
    84   42   44 am   BACKBONE|DICT|INTERRES
    85   44   45 1    
    86   44  100 1    
    87   45   46 1    
    88   45   47 1    
    89   45  101 1    
    90   46  102 1    
    91   46  103 1    
    92   46  104 1    
    93   47   48 2    
    94   47   49 am   BACKBONE|DICT|INTERRES
    95   49   50 1    
    96   49  105 1    
    97   50   51 1    
    98   50   52 1    
    99   50  106 1    
   100   51  107 1    
   101   51  108 1    
   102   51  109 1    
   103   52   53 2    
   104   52   54 am   BACKBONE|DICT|INTERRES
   105   54   55 1    
   106   54  110 1    
   107   55   56 1    
   108   55   59 1    
   109   55  111 1    
   110   56   57 am   BACKBONE|DICT|INTERRES
   111   56   58 2    
   112   57  112 1    
   113   57  113 1    
   114   59   60 1    
   115   59  114 1    
   116   59  115 1    
   117   60   61 1    
   118   61  116 1    
   119   61  117 1    
@<TRIPOS>SUBSTRUCTURE
     1 UNK         1 GROUP             0       ****    0 ROOT    
