@<TRIPOS>MOLECULE
3R8
117   119    1
SMALL
USER_CHARGES


@<TRIPOS>ATOM
      1 CA         11.6762  -26.0066  -44.4286 C.3       0 UNK        -0.2013 
      2 C          13.1692  -25.7225  -44.5002 C.2       0 UNK         0.4866 
      3 O          13.6554  -24.8220  -43.8151 O.2       0 UNK        -0.5176 
      4 N          13.8987  -26.4764  -45.3311 N.am      1 UNK        -0.4884 
      5 CA         15.3563  -26.4043  -45.4687 C.3       1 UNK         0.0853 
      6 C6         15.8362  -27.0497  -46.7957 C.3       10 UNK        -0.0849 
      7 S7         15.3065  -28.7888  -47.0100 S.3       10 UNK        -0.2776 
      8 C8         16.8039  -29.5774  -47.6856 C.3       10 UNK         0.0316 
      9 C9         18.0051  -29.5290  -46.7462 C.ar      10 UNK        -0.0863 
     10 C10        17.9402  -30.0871  -45.4646 C.ar      10 UNK        -0.1009 
     11 C11        19.0631  -30.1000  -44.6285 C.ar      10 UNK        -0.0712 
     12 C12        20.2682  -29.5704  -45.1068 C.ar      10 UNK        -0.0894 
     13 C13        20.3401  -28.9830  -46.3719 C.ar      10 UNK        -0.0745 
     14 C14        19.2049  -28.9632  -47.1853 C.ar      10 UNK        -0.0972 
     15 C15        21.6462  -28.3874  -46.8749 C.3       10 UNK         0.0209 
     16 S16        21.8414  -26.6543  -46.3507 S.3       10 UNK        -0.2568 
     17 C17        22.5520  -26.8409  -44.6811 C.3       10 UNK        -0.0983 
     18 CA         21.7041  -26.1642  -43.5766 C.3       3 UNK         0.0876 
     19 N          20.3305  -26.6829  -43.5045 N.am      3 UNK        -0.4424 
     20 C          19.3535  -26.1097  -42.7901 C.2       2 UNK         0.4918 
     21 O          19.4688  -25.0253  -42.2171 O.2       2 UNK        -0.4875 
     22 CA         18.0200  -26.8585  -42.7244 C.3       2 UNK         0.0481 
     23 CB         17.3175  -26.6547  -41.3647 C.3       2 UNK        -0.1831 
     24 N          17.1829  -26.4100  -43.8319 N.am      2 UNK        -0.4498 
     25 C          16.0589  -27.0133  -44.2356 C.2       1 UNK         0.5027 
     26 O          15.5815  -28.0118  -43.6881 O.2       1 UNK        -0.4969 
     27 C          22.4307  -26.2801  -42.2195 C.2       3 UNK         0.5005 
     28 O          23.2007  -25.3852  -41.8659 O.2       3 UNK        -0.5279 
     29 N          22.1614  -27.3779  -41.4930 N.am      4 UNK        -0.4463 
     30 CA         22.6943  -27.7806  -40.1858 C.3       4 UNK         0.0283 
     31 CB         22.2965  -26.7852  -39.0791 C.3       4 UNK        -0.1875 
     32 C          24.2063  -28.0606  -40.1873 C.2       4 UNK         0.4949 
     33 O          24.6062  -29.1989  -39.9345 O.2       4 UNK        -0.5039 
     34 N          25.0104  -27.0325  -40.4832 N.am      5 UNK        -0.4663 
     35 CA         26.4734  -27.0537  -40.5287 C.3       5 UNK         0.0242 
     36 CB         26.9875  -25.6406  -40.8508 C.3       5 UNK        -0.1982 
     37 C          26.9939  -28.0800  -41.5473 C.2       5 UNK         0.5017 
     38 O          26.7890  -27.8993  -42.7488 O.2       5 UNK        -0.5012 
     39 N          27.6053  -29.1562  -41.0309 N.am      6 UNK        -0.4439 
     40 CA         28.1027  -30.3407  -41.7467 C.3       6 UNK         0.0297 
     41 CB         29.2207  -29.9612  -42.7414 C.3       6 UNK        -0.2006 
     42 C          27.0054  -31.2038  -42.4093 C.2       6 UNK         0.4892 
     43 O          27.3440  -32.1371  -43.1389 O.2       6 UNK        -0.5089 
     44 N          25.7280  -30.9061  -42.1363 N.am      7 UNK        -0.4243 
     45 CA         24.5660  -31.6415  -42.6369 C.3       7 UNK         0.0196 
     46 CB         23.5514  -30.6487  -43.2242 C.3       7 UNK        -0.2007 
     47 C          23.9136  -32.4821  -41.5308 C.2       7 UNK         0.5020 
     48 O          23.3992  -33.5590  -41.8317 O.2       7 UNK        -0.5147 
     49 N          23.9530  -31.9868  -40.2818 N.am      8 UNK        -0.4734 
     50 CA         23.3944  -32.5998  -39.0680 C.3       8 UNK         0.0238 
     51 CB         24.1741  -33.8788  -38.6930 C.3       8 UNK        -0.1912 
     52 C          21.8711  -32.8229  -39.1609 C.2       8 UNK         0.5038 
     53 O          21.3819  -33.9058  -38.8318 O.2       8 UNK        -0.5046 
     54 N          21.1625  -31.7888  -39.6339 N.am      9 UNK        -0.4200 
     55 CA         19.7038  -31.7473  -39.8178 C.3       9 UNK         0.0839 
     56 C          18.9112  -32.0301  -38.5114 C.2       9 UNK         0.5513 
     57 N          17.8058  -32.7568  -38.6007 N.am      9 UNK        -0.7519 
     58 O          19.2634  -31.5546  -37.4338 O.2       9 UNK        -0.4960 
     59 C59        19.2464  -30.3965  -40.4277 C.3       10 UNK        -0.0876 
     60 S60        20.0809  -29.9834  -41.9962 S.3       10 UNK        -0.2414 
     61 C61        18.9425  -30.7078  -43.2297 C.3       10 UNK         0.0169 
     62 H62        11.1110  -25.1190  -44.7118 H         1 UNK         0.0903 
     63 H63        11.3839  -26.8208  -45.0916 H         1 UNK         0.0903 
     64 H64        11.3951  -26.2801  -43.4118 H         1 UNK         0.0903 
     65 H65        13.4617  -27.2318  -45.8409 H         1 UNK         0.3096 
     66 H66        15.6233  -25.3454  -45.5076 H         1 UNK         0.1121 
     67 H67        15.4425  -26.4790  -47.6382 H         1 UNK         0.0849 
     68 H68        16.9217  -26.9743  -46.8793 H         1 UNK         0.0849 
     69 H69        16.5777  -30.6217  -47.9054 H         1 UNK         0.0865 
     70 H70        17.0389  -29.1117  -48.6440 H         1 UNK         0.0865 
     71 H71        17.0080  -30.5139  -45.1193 H         1 UNK         0.1346 
     72 H72        21.1560  -29.6072  -44.4950 H         1 UNK         0.1412 
     73 H73        19.2649  -28.5241  -48.1721 H         1 UNK         0.1426 
     74 H74        21.6720  -28.4226  -47.9651 H         1 UNK         0.0716 
     75 H75        22.4958  -28.9839  -46.5386 H         1 UNK         0.0716 
     76 H76        23.5499  -26.3983  -44.7101 H         1 UNK         0.0695 
     77 H77        22.7070  -27.8964  -44.4563 H         1 UNK         0.0695 
     78 H78        21.6399  -25.0991  -43.8116 H         1 UNK         0.0983 
     79 H79        20.1366  -27.5334  -44.0152 H         1 UNK         0.3095 
     80 H80        18.2164  -27.9226  -42.8514 H         1 UNK         0.0454 
     81 H81        16.9972  -25.6215  -41.2261 H         1 UNK         0.0851 
     82 H82        17.9871  -26.9039  -40.5405 H         1 UNK         0.0851 
     83 H83        16.4397  -27.2924  -41.2640 H         1 UNK         0.0851 
     84 H84        17.5206  -25.5959  -44.3283 H         1 UNK         0.2976 
     85 H85        21.5074  -28.0367  -41.8955 H         1 UNK         0.3116 
     86 H86        22.2062  -28.7272  -39.9500 H         1 UNK         0.0646 
     87 H87        22.6413  -27.1300  -38.1034 H         1 UNK         0.0847 
     88 H88        21.2137  -26.6756  -39.0192 H         1 UNK         0.0847 
     89 H89        22.7217  -25.7943  -39.2404 H         1 UNK         0.0847 
     90 H90        24.5542  -26.1782  -40.7939 H         1 UNK         0.3040 
     91 H91        26.8315  -27.3245  -39.5332 H         1 UNK         0.1015 
     92 H92        26.6808  -24.9236  -40.0889 H         1 UNK         0.0786 
     93 H93        26.6156  -25.2855  -41.8130 H         1 UNK         0.0786 
     94 H94        28.0774  -25.6214  -40.8941 H         1 UNK         0.0786 
     95 H95        27.6820  -29.2090  -40.0236 H         1 UNK         0.3172 
     96 H96        28.5518  -30.9765  -40.9824 H         1 UNK         0.0595 
     97 H97        28.8370  -29.3868  -43.5850 H         1 UNK         0.0839 
     98 H98        29.6999  -30.8515  -43.1505 H         1 UNK         0.0839 
     99 H99        29.9994  -29.3707  -42.2588 H         1 UNK         0.0839 
    100 H100       25.5419  -30.1396  -41.5001 H         1 UNK         0.2998 
    101 H101       24.8645  -32.3251  -43.4347 H         1 UNK         0.0822 
    102 H102       23.2037  -29.9350  -42.4782 H         1 UNK         0.0787 
    103 H103       23.9833  -30.0866  -44.0523 H         1 UNK         0.0787 
    104 H104       22.6772  -31.1765  -43.6076 H         1 UNK         0.0787 
    105 H105       24.3568  -31.0631  -40.1472 H         1 UNK         0.3055 
    106 H106       23.5433  -31.8792  -38.2618 H         1 UNK         0.1106 
    107 H107       24.0382  -34.6693  -39.4317 H         1 UNK         0.0828 
    108 H108       25.2424  -33.6809  -38.6064 H         1 UNK         0.0828 
    109 H109       23.8396  -34.2723  -37.7323 H         1 UNK         0.0828 
    110 H110       21.6598  -30.9542  -39.9002 H         1 UNK         0.2931 
    111 H111       19.4639  -32.5360  -40.5338 H         1 UNK         0.0412 
    112 H112       17.5045  -33.1430  -39.4823 H         1 UNK         0.3472 
    113 H113       17.2683  -32.9362  -37.7666 H         1 UNK         0.3472 
    114 H114       18.1662  -30.3910  -40.5857 H         1 UNK         0.0970 
    115 H115       19.4431  -29.5825  -39.7269 H         1 UNK         0.0970 
    116 H116       17.9177  -30.5802  -42.8775 H         1 UNK         0.0612 
    117 H117       19.1234  -31.7816  -43.2894 H         1 UNK         0.0612 
@<TRIPOS>BOND
     1    1    2 1    
     2    1   62 1    
     3    1   63 1    
     4    1   64 1    
     5    2    3 2    
     6    2    4 am   BACKBONE|DICT|INTERRES
     7    4    5 1    
     8    4   65 1    
     9    5    6 1    
    10    5   25 1    
    11    5   66 1    
    12    6    7 1    
    13    6   67 1    
    14    6   68 1    
    15    7    8 1    
    16    8    9 1    
    17    8   69 1    
    18    8   70 1    
    19    9   10 ar   
    20    9   14 ar   
    21   10   11 ar   
    22   10   71 1    
    23   11   12 ar   
    24   11   61 1    
    25   12   13 ar   
    26   12   72 1    
    27   13   14 ar   
    28   13   15 1    
    29   14   73 1    
    30   15   16 1    
    31   15   74 1    
    32   15   75 1    
    33   16   17 1    
    34   17   18 1    
    35   17   76 1    
    36   17   77 1    
    37   18   19 1    
    38   18   27 1    
    39   18   78 1    
    40   19   20 am   BACKBONE|DICT|INTERRES
    41   19   79 1    
    42   20   21 2    
    43   20   22 1    
    44   22   23 1    
    45   22   24 1    
    46   22   80 1    
    47   23   81 1    
    48   23   82 1    
    49   23   83 1    
    50   24   25 am   BACKBONE|DICT|INTERRES
    51   24   84 1    
    52   25   26 2    
    53   27   28 2    
    54   27   29 am   BACKBONE|DICT|INTERRES
    55   29   30 1    
    56   29   85 1    
    57   30   31 1    
    58   30   32 1    
    59   30   86 1    
    60   31   87 1    
    61   31   88 1    
    62   31   89 1    
    63   32   33 2    
    64   32   34 am   BACKBONE|DICT|INTERRES
    65   34   35 1    
    66   34   90 1    
    67   35   36 1    
    68   35   37 1    
    69   35   91 1    
    70   36   92 1    
    71   36   93 1    
    72   36   94 1    
    73   37   38 2    
    74   37   39 am   BACKBONE|DICT|INTERRES
    75   39   40 1    
    76   39   95 1    
    77   40   41 1    
    78   40   42 1    
    79   40   96 1    
    80   41   97 1    
    81   41   98 1    
    82   41   99 1    
    83   42   43 2    
    84   42   44 am   BACKBONE|DICT|INTERRES
    85   44   45 1    
    86   44  100 1    
    87   45   46 1    
    88   45   47 1    
    89   45  101 1    
    90   46  102 1    
    91   46  103 1    
    92   46  104 1    
    93   47   48 2    
    94   47   49 am   BACKBONE|DICT|INTERRES
    95   49   50 1    
    96   49  105 1    
    97   50   51 1    
    98   50   52 1    
    99   50  106 1    
   100   51  107 1    
   101   51  108 1    
   102   51  109 1    
   103   52   53 2    
   104   52   54 am   BACKBONE|DICT|INTERRES
   105   54   55 1    
   106   54  110 1    
   107   55   56 1    
   108   55   59 1    
   109   55  111 1    
   110   56   57 am   BACKBONE|DICT|INTERRES
   111   56   58 2    
   112   57  112 1    
   113   57  113 1    
   114   59   60 1    
   115   59  114 1    
   116   59  115 1    
   117   60   61 1    
   118   61  116 1    
   119   61  117 1    
@<TRIPOS>SUBSTRUCTURE
     1 UNK         1 GROUP             0       ****    0 ROOT    
