@<TRIPOS>MOLECULE
3R8
117   119    1
SMALL
USER_CHARGES


@<TRIPOS>ATOM
      1 CA         13.1252  -23.1689  -47.1926 C.3       0 UNK        -0.2013 
      2 C          14.1377  -24.2779  -47.4376 C.2       0 UNK         0.4866 
      3 O          14.3750  -24.6473  -48.5884 O.2       0 UNK        -0.5176 
      4 N          14.7291  -24.8182  -46.3653 N.am      1 UNK        -0.4884 
      5 CA         15.7611  -25.8581  -46.4167 C.3       1 UNK         0.0853 
      6 C6         16.0385  -26.4616  -45.0182 C.3       10 UNK        -0.0849 
      7 S7         14.6635  -27.4660  -44.3741 S.3       10 UNK        -0.2776 
      8 C8         14.9449  -27.3542  -42.5735 C.3       10 UNK         0.0316 
      9 C9         16.3942  -27.6250  -42.1797 C.ar      10 UNK        -0.0863 
     10 C10        16.9422  -28.9040  -42.3179 C.ar      10 UNK        -0.1009 
     11 C11        18.2726  -29.1517  -41.9617 C.ar      10 UNK        -0.0712 
     12 C12        19.0470  -28.1100  -41.4414 C.ar      10 UNK        -0.0894 
     13 C13        18.5178  -26.8207  -41.3137 C.ar      10 UNK        -0.0745 
     14 C14        17.1897  -26.5882  -41.6820 C.ar      10 UNK        -0.0972 
     15 C15        19.3605  -25.6755  -40.7615 C.3       10 UNK         0.0209 
     16 S16        20.9939  -25.5301  -41.5587 S.3       10 UNK        -0.2568 
     17 C17        20.5598  -25.0983  -43.2818 C.3       10 UNK        -0.0983 
     18 CA         20.5854  -26.2953  -44.2690 C.3       3 UNK         0.0876 
     19 N          20.1484  -25.8799  -45.6039 N.am      3 UNK        -0.4424 
     20 C          19.9243  -26.7028  -46.6361 C.2       2 UNK         0.4918 
     21 O          20.1000  -27.9220  -46.6025 O.2       2 UNK        -0.4875 
     22 CA         19.2674  -26.0675  -47.8720 C.3       2 UNK         0.0481 
     23 CB         19.6696  -26.7755  -49.1781 C.3       2 UNK        -0.1831 
     24 N          17.8235  -26.1820  -47.6806 N.am      2 UNK        -0.4498 
     25 C          17.0898  -25.3132  -46.9737 C.2       1 UNK         0.5027 
     26 O          17.4735  -24.1828  -46.6602 O.2       1 UNK        -0.4969 
     27 C          21.9568  -27.0063  -44.3015 C.2       3 UNK         0.5005 
     28 O          22.8902  -26.5168  -44.9431 O.2       3 UNK        -0.5279 
     29 N          22.0444  -28.1271  -43.5759 N.am      4 UNK        -0.4463 
     30 CA         23.2521  -28.9239  -43.3708 C.3       4 UNK         0.0283 
     31 CB         23.2640  -30.1103  -44.3531 C.3       4 UNK        -0.1875 
     32 C          23.3502  -29.3645  -41.9012 C.2       4 UNK         0.4949 
     33 O          23.8187  -30.4683  -41.6200 O.2       4 UNK        -0.5039 
     34 N          22.9116  -28.4995  -40.9726 N.am      5 UNK        -0.4663 
     35 CA         22.8969  -28.7640  -39.5266 C.3       5 UNK         0.0242 
     36 CB         22.1804  -27.6207  -38.7927 C.3       5 UNK        -0.1982 
     37 C          24.2910  -29.0013  -38.9207 C.2       5 UNK         0.5017 
     38 O          24.4058  -29.7609  -37.9598 O.2       5 UNK        -0.5012 
     39 N          25.3290  -28.4081  -39.5283 N.am      6 UNK        -0.4439 
     40 CA         26.7409  -28.6340  -39.1990 C.3       6 UNK         0.0297 
     41 CB         27.6079  -27.6296  -39.9749 C.3       6 UNK        -0.2006 
     42 C          27.2178  -30.0759  -39.4684 C.2       6 UNK         0.4892 
     43 O          28.1648  -30.5233  -38.8213 O.2       6 UNK        -0.5089 
     44 N          26.5474  -30.7771  -40.3934 N.am      7 UNK        -0.4243 
     45 CA         26.7547  -32.1940  -40.6999 C.3       7 UNK         0.0196 
     46 CB         26.7248  -32.3704  -42.2292 C.3       7 UNK        -0.2007 
     47 C          25.6967  -33.0892  -40.0239 C.2       7 UNK         0.5020 
     48 O          25.6779  -34.2904  -40.2915 O.2       7 UNK        -0.5147 
     49 N          24.8328  -32.4993  -39.1808 N.am      8 UNK        -0.4734 
     50 CA         23.6675  -33.0999  -38.5189 C.3       8 UNK         0.0238 
     51 CB         24.0934  -34.2110  -37.5345 C.3       8 UNK        -0.1912 
     52 C          22.5706  -33.5500  -39.5060 C.2       8 UNK         0.5038 
     53 O          21.8672  -34.5235  -39.2269 O.2       8 UNK        -0.5046 
     54 N          22.4321  -32.8201  -40.6234 N.am      9 UNK        -0.4200 
     55 CA         21.4858  -33.0643  -41.7245 C.3       9 UNK         0.0839 
     56 C          21.7775  -34.3710  -42.5249 C.2       9 UNK         0.5513 
     57 N          20.9594  -34.6938  -43.5187 N.am      9 UNK        -0.7519 
     58 O          22.7559  -35.0789  -42.2979 O.2       9 UNK        -0.4960 
     59 C59        19.9961  -32.9303  -41.2856 C.3       10 UNK        -0.0876 
     60 S60        19.5827  -31.2590  -40.6752 S.3       10 UNK        -0.2414 
     61 C61        18.8798  -30.5305  -42.1892 C.3       10 UNK         0.0169 
     62 H62        12.1526  -23.4534  -47.5934 H         1 UNK         0.0903 
     63 H63        13.0044  -22.9537  -46.1310 H         1 UNK         0.0903 
     64 H64        13.4444  -22.2534  -47.6898 H         1 UNK         0.0903 
     65 H65        14.5034  -24.4719  -45.4439 H         1 UNK         0.3096 
     66 H66        15.4078  -26.6504  -47.0811 H         1 UNK         0.1121 
     67 H67        16.9145  -27.1147  -45.0378 H         1 UNK         0.0849 
     68 H68        16.2726  -25.6665  -44.3072 H         1 UNK         0.0849 
     69 H69        14.6310  -26.3670  -42.2306 H         1 UNK         0.0865 
     70 H70        14.2949  -28.0697  -42.0680 H         1 UNK         0.0865 
     71 H71        16.3325  -29.7009  -42.7218 H         1 UNK         0.1346 
     72 H72        20.0674  -28.3031  -41.1447 H         1 UNK         0.1412 
     73 H73        16.7718  -25.5959  -41.5783 H         1 UNK         0.1426 
     74 H74        19.5035  -25.8321  -39.6919 H         1 UNK         0.0716 
     75 H75        18.8390  -24.7224  -40.8626 H         1 UNK         0.0716 
     76 H76        19.5721  -24.6342  -43.2862 H         1 UNK         0.0695 
     77 H77        21.2542  -24.3244  -43.6143 H         1 UNK         0.0695 
     78 H78        19.8404  -27.0180  -43.9309 H         1 UNK         0.0983 
     79 H79        19.9515  -24.8964  -45.7232 H         1 UNK         0.3095 
     80 H80        19.5661  -25.0195  -47.9450 H         1 UNK         0.0454 
     81 H81        19.3822  -27.8277  -49.1815 H         1 UNK         0.0851 
     82 H82        19.2055  -26.3009  -50.0426 H         1 UNK         0.0851 
     83 H83        20.7494  -26.7325  -49.3253 H         1 UNK         0.0851 
     84 H84        17.4337  -27.0949  -47.8707 H         1 UNK         0.2976 
     85 H85        21.2231  -28.4499  -43.0849 H         1 UNK         0.3116 
     86 H86        24.1358  -28.3118  -43.5617 H         1 UNK         0.0646 
     87 H87        24.1673  -30.7106  -44.2376 H         1 UNK         0.0847 
     88 H88        23.2373  -29.7656  -45.3869 H         1 UNK         0.0847 
     89 H89        22.4093  -30.7692  -44.2002 H         1 UNK         0.0847 
     90 H90        22.5693  -27.5962  -41.2732 H         1 UNK         0.3040 
     91 H91        22.3225  -29.6799  -39.3673 H         1 UNK         0.1015 
     92 H92        21.1344  -27.5563  -39.0884 H         1 UNK         0.0786 
     93 H93        22.6488  -26.6554  -38.9883 H         1 UNK         0.0786 
     94 H94        22.1948  -27.7778  -37.7131 H         1 UNK         0.0786 
     95 H95        25.1326  -27.7961  -40.3071 H         1 UNK         0.3172 
     96 H96        26.8676  -28.4422  -38.1314 H         1 UNK         0.0595 
     97 H97        27.3400  -26.6011  -39.7321 H         1 UNK         0.0839 
     98 H98        27.5101  -27.7584  -41.0537 H         1 UNK         0.0839 
     99 H99        28.6633  -27.7533  -39.7275 H         1 UNK         0.0839 
    100 H100       25.7550  -30.3463  -40.8566 H         1 UNK         0.2998 
    101 H101       27.7324  -32.5189  -40.3380 H         1 UNK         0.0822 
    102 H102       27.4668  -31.7378  -42.7165 H         1 UNK         0.0787 
    103 H103       26.9456  -33.4010  -42.5100 H         1 UNK         0.0787 
    104 H104       25.7470  -32.1230  -42.6444 H         1 UNK         0.0787 
    105 H105       24.9551  -31.5098  -38.9984 H         1 UNK         0.3055 
    106 H106       23.2155  -32.3020  -37.9274 H         1 UNK         0.1106 
    107 H107       24.4791  -35.0885  -38.0539 H         1 UNK         0.0828 
    108 H108       24.8640  -33.8598  -36.8484 H         1 UNK         0.0828 
    109 H109       23.2486  -34.5404  -36.9285 H         1 UNK         0.0828 
    110 H110       23.0787  -32.0549  -40.7874 H         1 UNK         0.2931 
    111 H111       21.6878  -32.2631  -42.4353 H         1 UNK         0.0412 
    112 H112       21.1503  -35.5282  -44.0519 H         1 UNK         0.3472 
    113 H113       20.1684  -34.1190  -43.7611 H         1 UNK         0.3472 
    114 H114       19.7599  -33.6508  -40.5018 H         1 UNK         0.0970 
    115 H115       19.3176  -33.1708  -42.1041 H         1 UNK         0.0970 
    116 H116       19.6625  -30.4553  -42.9452 H         1 UNK         0.0612 
    117 H117       18.1253  -31.2092  -42.5899 H         1 UNK         0.0612 
@<TRIPOS>BOND
     1    1    2 1    
     2    1   62 1    
     3    1   63 1    
     4    1   64 1    
     5    2    3 2    
     6    2    4 am   BACKBONE|DICT|INTERRES
     7    4    5 1    
     8    4   65 1    
     9    5    6 1    
    10    5   25 1    
    11    5   66 1    
    12    6    7 1    
    13    6   67 1    
    14    6   68 1    
    15    7    8 1    
    16    8    9 1    
    17    8   69 1    
    18    8   70 1    
    19    9   10 ar   
    20    9   14 ar   
    21   10   11 ar   
    22   10   71 1    
    23   11   12 ar   
    24   11   61 1    
    25   12   13 ar   
    26   12   72 1    
    27   13   14 ar   
    28   13   15 1    
    29   14   73 1    
    30   15   16 1    
    31   15   74 1    
    32   15   75 1    
    33   16   17 1    
    34   17   18 1    
    35   17   76 1    
    36   17   77 1    
    37   18   19 1    
    38   18   27 1    
    39   18   78 1    
    40   19   20 am   BACKBONE|DICT|INTERRES
    41   19   79 1    
    42   20   21 2    
    43   20   22 1    
    44   22   23 1    
    45   22   24 1    
    46   22   80 1    
    47   23   81 1    
    48   23   82 1    
    49   23   83 1    
    50   24   25 am   BACKBONE|DICT|INTERRES
    51   24   84 1    
    52   25   26 2    
    53   27   28 2    
    54   27   29 am   BACKBONE|DICT|INTERRES
    55   29   30 1    
    56   29   85 1    
    57   30   31 1    
    58   30   32 1    
    59   30   86 1    
    60   31   87 1    
    61   31   88 1    
    62   31   89 1    
    63   32   33 2    
    64   32   34 am   BACKBONE|DICT|INTERRES
    65   34   35 1    
    66   34   90 1    
    67   35   36 1    
    68   35   37 1    
    69   35   91 1    
    70   36   92 1    
    71   36   93 1    
    72   36   94 1    
    73   37   38 2    
    74   37   39 am   BACKBONE|DICT|INTERRES
    75   39   40 1    
    76   39   95 1    
    77   40   41 1    
    78   40   42 1    
    79   40   96 1    
    80   41   97 1    
    81   41   98 1    
    82   41   99 1    
    83   42   43 2    
    84   42   44 am   BACKBONE|DICT|INTERRES
    85   44   45 1    
    86   44  100 1    
    87   45   46 1    
    88   45   47 1    
    89   45  101 1    
    90   46  102 1    
    91   46  103 1    
    92   46  104 1    
    93   47   48 2    
    94   47   49 am   BACKBONE|DICT|INTERRES
    95   49   50 1    
    96   49  105 1    
    97   50   51 1    
    98   50   52 1    
    99   50  106 1    
   100   51  107 1    
   101   51  108 1    
   102   51  109 1    
   103   52   53 2    
   104   52   54 am   BACKBONE|DICT|INTERRES
   105   54   55 1    
   106   54  110 1    
   107   55   56 1    
   108   55   59 1    
   109   55  111 1    
   110   56   57 am   BACKBONE|DICT|INTERRES
   111   56   58 2    
   112   57  112 1    
   113   57  113 1    
   114   59   60 1    
   115   59  114 1    
   116   59  115 1    
   117   60   61 1    
   118   61  116 1    
   119   61  117 1    
@<TRIPOS>SUBSTRUCTURE
     1 UNK         1 GROUP             0       ****    0 ROOT    
