@<TRIPOS>MOLECULE
3R8
117   119    1
SMALL
USER_CHARGES


@<TRIPOS>ATOM
      1 CA         13.0153  -26.7734  -40.0744 C.3       0 UNK        -0.2013 
      2 C          14.1003  -26.4041  -41.0751 C.2       0 UNK         0.4866 
      3 O          14.7676  -25.3830  -40.9053 O.2       0 UNK        -0.5176 
      4 N          14.2758  -27.2210  -42.1215 N.am      1 UNK        -0.4884 
      5 CA         15.3215  -27.0600  -43.1367 C.3       1 UNK         0.0853 
      6 C6         14.9651  -27.8454  -44.4236 C.3       10 UNK        -0.0849 
      7 S7         15.9039  -27.2906  -45.8911 S.3       10 UNK        -0.2776 
      8 C8         16.5039  -28.8649  -46.5880 C.3       10 UNK         0.0316 
      9 C9         17.8259  -29.3115  -45.9762 C.ar      10 UNK        -0.0863 
     10 C10        17.8469  -29.9834  -44.7515 C.ar      10 UNK        -0.1009 
     11 C11        19.0523  -30.4204  -44.1982 C.ar      10 UNK        -0.0712 
     12 C12        20.2453  -30.2144  -44.8957 C.ar      10 UNK        -0.0894 
     13 C13        20.2400  -29.5579  -46.1314 C.ar      10 UNK        -0.0745 
     14 C14        19.0287  -29.0947  -46.6575 C.ar      10 UNK        -0.0972 
     15 C15        21.5281  -29.4128  -46.9329 C.3       10 UNK         0.0209 
     16 S16        22.8539  -28.5550  -46.0268 S.3       10 UNK        -0.2568 
     17 C17        22.3338  -26.8090  -46.1193 C.3       10 UNK        -0.0983 
     18 CA         22.2719  -26.0837  -44.7486 C.3       3 UNK         0.0876 
     19 N          21.2907  -26.6672  -43.8399 N.am      3 UNK        -0.4424 
     20 C          19.9945  -26.3535  -43.8268 C.2       2 UNK         0.4918 
     21 O          19.4690  -25.5699  -44.6239 O.2       2 UNK        -0.4875 
     22 CA         19.1498  -26.9811  -42.7115 C.3       2 UNK         0.0481 
     23 CB         19.4568  -26.3324  -41.3484 C.3       2 UNK        -0.1831 
     24 N          17.7466  -26.7851  -43.0526 N.am      2 UNK        -0.4498 
     25 C          16.7009  -27.4564  -42.5659 C.2       1 UNK         0.5027 
     26 O          16.7890  -28.3551  -41.7245 O.2       1 UNK        -0.4969 
     27 C          23.6258  -25.9906  -44.0208 C.2       3 UNK         0.5005 
     28 O          23.7948  -26.5895  -42.9517 O.2       3 UNK        -0.5279 
     29 N          24.5505  -25.2093  -44.5979 N.am      4 UNK        -0.4463 
     30 CA         25.8685  -24.8850  -44.0461 C.3       4 UNK         0.0283 
     31 CB         26.6252  -23.9757  -45.0289 C.3       4 UNK        -0.1875 
     32 C          26.6997  -26.1337  -43.7078 C.2       4 UNK         0.4949 
     33 O          27.0149  -26.9173  -44.6047 O.2       4 UNK        -0.5039 
     34 N          27.0162  -26.2823  -42.4139 N.am      5 UNK        -0.4663 
     35 CA         27.7734  -27.3786  -41.7954 C.3       5 UNK         0.0242 
     36 CB         29.2253  -27.4079  -42.3213 C.3       5 UNK        -0.1982 
     37 C          27.0899  -28.7608  -41.8765 C.2       5 UNK         0.5017 
     38 O          27.7653  -29.7711  -41.6716 O.2       5 UNK        -0.5012 
     39 N          25.7761  -28.7986  -42.1403 N.am      6 UNK        -0.4439 
     40 CA         24.9846  -30.0274  -42.2312 C.3       6 UNK         0.0297 
     41 CB         25.0665  -30.6109  -43.6544 C.3       6 UNK        -0.2006 
     42 C          23.5485  -29.8074  -41.7308 C.2       6 UNK         0.4892 
     43 O          22.6088  -30.3915  -42.2710 O.2       6 UNK        -0.5089 
     44 N          23.4025  -28.9853  -40.6827 N.am      7 UNK        -0.4243 
     45 CA         22.1618  -28.8332  -39.9218 C.3       7 UNK         0.0196 
     46 CB         22.2679  -27.5830  -39.0338 C.3       7 UNK        -0.2007 
     47 C          21.8974  -30.0859  -39.0685 C.2       7 UNK         0.5020 
     48 O          22.8520  -30.7356  -38.6346 O.2       7 UNK        -0.5147 
     49 N          20.6113  -30.3907  -38.8378 N.am      8 UNK        -0.4734 
     50 CA         20.1101  -31.5941  -38.1515 C.3       8 UNK         0.0238 
     51 CB         20.4812  -31.5750  -36.6524 C.3       8 UNK        -0.1912 
     52 C          20.5375  -32.8937  -38.8675 C.2       8 UNK         0.5038 
     53 O          21.0098  -33.8355  -38.2274 O.2       8 UNK        -0.5046 
     54 N          20.3836  -32.8869  -40.1971 N.am      9 UNK        -0.4200 
     55 CA         20.6928  -33.9814  -41.1261 C.3       9 UNK         0.0839 
     56 C          19.9187  -35.3007  -40.8382 C.2       9 UNK         0.5513 
     57 N          20.4748  -36.4385  -41.2324 N.am      9 UNK        -0.7519 
     58 O          18.8151  -35.3034  -40.2954 O.2       9 UNK        -0.4960 
     59 C59        20.5285  -33.5144  -42.6002 C.3       10 UNK        -0.0876 
     60 S60        18.8497  -32.9022  -42.9962 S.3       10 UNK        -0.2414 
     61 C61        19.0533  -31.1007  -42.8401 C.3       10 UNK         0.0169 
     62 H62        13.4515  -26.9226  -39.0870 H         1 UNK         0.0903 
     63 H63        12.2802  -25.9719  -40.0048 H         1 UNK         0.0903 
     64 H64        12.4937  -27.6879  -40.3562 H         1 UNK         0.0903 
     65 H65        13.7235  -28.0643  -42.1887 H         1 UNK         0.3096 
     66 H66        15.3575  -25.9975  -43.3907 H         1 UNK         0.1121 
     67 H67        15.0711  -28.9193  -44.2692 H         1 UNK         0.0849 
     68 H68        13.9113  -27.6922  -44.6628 H         1 UNK         0.0849 
     69 H69        15.7491  -29.6431  -46.4643 H         1 UNK         0.0865 
     70 H70        16.6205  -28.7385  -47.6655 H         1 UNK         0.0865 
     71 H71        16.9260  -30.1680  -44.2182 H         1 UNK         0.1346 
     72 H72        21.1788  -30.5700  -44.4808 H         1 UNK         0.1412 
     73 H73        19.0174  -28.5913  -47.6147 H         1 UNK         0.1426 
     74 H74        21.3504  -28.8975  -47.8781 H         1 UNK         0.0716 
     75 H75        21.8822  -30.4109  -47.1938 H         1 UNK         0.0716 
     76 H76        21.3553  -26.7520  -46.5988 H         1 UNK         0.0695 
     77 H77        23.0167  -26.2903  -46.7937 H         1 UNK         0.0695 
     78 H78        21.9751  -25.0490  -44.9367 H         1 UNK         0.0983 
     79 H79        21.6913  -27.2722  -43.1348 H         1 UNK         0.3095 
     80 H80        19.3702  -28.0488  -42.6706 H         1 UNK         0.0454 
     81 H81        20.5189  -26.3893  -41.1117 H         1 UNK         0.0851 
     82 H82        18.9181  -26.8281  -40.5409 H         1 UNK         0.0851 
     83 H83        19.1800  -25.2776  -41.3362 H         1 UNK         0.0851 
     84 H84        17.6089  -26.1175  -43.8033 H         1 UNK         0.2976 
     85 H85        24.3297  -24.7845  -45.4870 H         1 UNK         0.3116 
     86 H86        25.6994  -24.3162  -43.1293 H         1 UNK         0.0646 
     87 H87        27.6075  -23.7096  -44.6359 H         1 UNK         0.0847 
     88 H88        26.0873  -23.0444  -45.2073 H         1 UNK         0.0847 
     89 H89        26.7827  -24.4640  -45.9916 H         1 UNK         0.0847 
     90 H90        26.6739  -25.5833  -41.7678 H         1 UNK         0.3040 
     91 H91        27.8207  -27.1438  -40.7308 H         1 UNK         0.1015 
     92 H92        29.8368  -28.1069  -41.7493 H         1 UNK         0.0786 
     93 H93        29.6974  -26.4288  -42.2400 H         1 UNK         0.0786 
     94 H94        29.2722  -27.7180  -43.3657 H         1 UNK         0.0786 
     95 H95        25.2748  -27.9324  -42.3225 H         1 UNK         0.3172 
     96 H96        25.4023  -30.7697  -41.5478 H         1 UNK         0.0595 
     97 H97        24.7386  -29.8867  -44.3969 H         1 UNK         0.0839 
     98 H98        24.4452  -31.5010  -43.7604 H         1 UNK         0.0839 
     99 H99        26.0873  -30.9000  -43.9036 H         1 UNK         0.0839 
    100 H100       24.2326  -28.5795  -40.2773 H         1 UNK         0.2998 
    101 H101       21.3385  -28.7027  -40.6272 H         1 UNK         0.0822 
    102 H102       22.4865  -26.6927  -39.6240 H         1 UNK         0.0787 
    103 H103       23.0533  -27.6869  -38.2838 H         1 UNK         0.0787 
    104 H104       21.3328  -27.3999  -38.5029 H         1 UNK         0.0787 
    105 H105       19.9006  -29.7755  -39.2105 H         1 UNK         0.3055 
    106 H106       19.0209  -31.5610  -38.2159 H         1 UNK         0.1106 
    107 H107       21.5564  -31.6654  -36.4962 H         1 UNK         0.0828 
    108 H108       20.1489  -30.6544  -36.1728 H         1 UNK         0.0828 
    109 H109       20.0080  -32.4036  -36.1240 H         1 UNK         0.0828 
    110 H110       19.9758  -32.0694  -40.6214 H         1 UNK         0.2931 
    111 H111       21.7512  -34.2033  -40.9747 H         1 UNK         0.0412 
    112 H112       21.3766  -36.4511  -41.6837 H         1 UNK         0.3472 
    113 H113       19.9862  -37.3052  -41.0680 H         1 UNK         0.3472 
    114 H114       21.2604  -32.7374  -42.8264 H         1 UNK         0.0970 
    115 H115       20.7636  -34.3305  -43.2858 H         1 UNK         0.0970 
    116 H116       19.9659  -30.8541  -42.2975 H         1 UNK         0.0612 
    117 H117       18.2336  -30.7118  -42.2341 H         1 UNK         0.0612 
@<TRIPOS>BOND
     1    1    2 1    
     2    1   62 1    
     3    1   63 1    
     4    1   64 1    
     5    2    3 2    
     6    2    4 am   BACKBONE|DICT|INTERRES
     7    4    5 1    
     8    4   65 1    
     9    5    6 1    
    10    5   25 1    
    11    5   66 1    
    12    6    7 1    
    13    6   67 1    
    14    6   68 1    
    15    7    8 1    
    16    8    9 1    
    17    8   69 1    
    18    8   70 1    
    19    9   10 ar   
    20    9   14 ar   
    21   10   11 ar   
    22   10   71 1    
    23   11   12 ar   
    24   11   61 1    
    25   12   13 ar   
    26   12   72 1    
    27   13   14 ar   
    28   13   15 1    
    29   14   73 1    
    30   15   16 1    
    31   15   74 1    
    32   15   75 1    
    33   16   17 1    
    34   17   18 1    
    35   17   76 1    
    36   17   77 1    
    37   18   19 1    
    38   18   27 1    
    39   18   78 1    
    40   19   20 am   BACKBONE|DICT|INTERRES
    41   19   79 1    
    42   20   21 2    
    43   20   22 1    
    44   22   23 1    
    45   22   24 1    
    46   22   80 1    
    47   23   81 1    
    48   23   82 1    
    49   23   83 1    
    50   24   25 am   BACKBONE|DICT|INTERRES
    51   24   84 1    
    52   25   26 2    
    53   27   28 2    
    54   27   29 am   BACKBONE|DICT|INTERRES
    55   29   30 1    
    56   29   85 1    
    57   30   31 1    
    58   30   32 1    
    59   30   86 1    
    60   31   87 1    
    61   31   88 1    
    62   31   89 1    
    63   32   33 2    
    64   32   34 am   BACKBONE|DICT|INTERRES
    65   34   35 1    
    66   34   90 1    
    67   35   36 1    
    68   35   37 1    
    69   35   91 1    
    70   36   92 1    
    71   36   93 1    
    72   36   94 1    
    73   37   38 2    
    74   37   39 am   BACKBONE|DICT|INTERRES
    75   39   40 1    
    76   39   95 1    
    77   40   41 1    
    78   40   42 1    
    79   40   96 1    
    80   41   97 1    
    81   41   98 1    
    82   41   99 1    
    83   42   43 2    
    84   42   44 am   BACKBONE|DICT|INTERRES
    85   44   45 1    
    86   44  100 1    
    87   45   46 1    
    88   45   47 1    
    89   45  101 1    
    90   46  102 1    
    91   46  103 1    
    92   46  104 1    
    93   47   48 2    
    94   47   49 am   BACKBONE|DICT|INTERRES
    95   49   50 1    
    96   49  105 1    
    97   50   51 1    
    98   50   52 1    
    99   50  106 1    
   100   51  107 1    
   101   51  108 1    
   102   51  109 1    
   103   52   53 2    
   104   52   54 am   BACKBONE|DICT|INTERRES
   105   54   55 1    
   106   54  110 1    
   107   55   56 1    
   108   55   59 1    
   109   55  111 1    
   110   56   57 am   BACKBONE|DICT|INTERRES
   111   56   58 2    
   112   57  112 1    
   113   57  113 1    
   114   59   60 1    
   115   59  114 1    
   116   59  115 1    
   117   60   61 1    
   118   61  116 1    
   119   61  117 1    
@<TRIPOS>SUBSTRUCTURE
     1 UNK         1 GROUP             0       ****    0 ROOT    
