@<TRIPOS>MOLECULE
3R8
117   119    1
SMALL
USER_CHARGES


@<TRIPOS>ATOM
      1 CA         16.7124  -26.5606  -48.7381 C.3       0 UNK        -0.2013 
      2 C          17.5809  -27.3837  -47.7996 C.2       0 UNK         0.4866 
      3 O          17.9308  -26.9066  -46.7205 O.2       0 UNK        -0.5176 
      4 N          17.9450  -28.6066  -48.2127 N.am      1 UNK        -0.4884 
      5 CA         18.7110  -29.6417  -47.4894 C.3       1 UNK         0.0853 
      6 C6         18.0652  -30.0820  -46.1504 C.3       10 UNK        -0.0849 
      7 S7         16.3720  -30.7388  -46.3034 S.3       10 UNK        -0.2776 
      8 C8         15.3821  -29.4381  -45.4890 C.3       10 UNK         0.0316 
      9 C9         15.8454  -29.0588  -44.0812 C.ar      10 UNK        -0.0863 
     10 C10        16.2530  -30.0245  -43.1503 C.ar      10 UNK        -0.1009 
     11 C11        16.6400  -29.6524  -41.8576 C.ar      10 UNK        -0.0712 
     12 C12        16.5861  -28.3040  -41.4917 C.ar      10 UNK        -0.0894 
     13 C13        16.2072  -27.3272  -42.4154 C.ar      10 UNK        -0.0745 
     14 C14        15.8406  -27.7113  -43.7073 C.ar      10 UNK        -0.0972 
     15 C15        16.1725  -25.8599  -42.0109 C.3       10 UNK         0.0209 
     16 S16        17.7877  -25.2659  -41.4153 S.3       10 UNK        -0.2568 
     17 C17        18.8220  -25.3821  -42.9170 C.3       10 UNK        -0.0983 
     18 CA         19.7764  -26.6075  -42.9689 C.3       3 UNK         0.0876 
     19 N          20.3901  -26.6810  -44.2974 N.am      3 UNK        -0.4424 
     20 C          21.2575  -27.5974  -44.7446 C.2       2 UNK         0.4918 
     21 O          21.6828  -28.5402  -44.0796 O.2       2 UNK        -0.4875 
     22 CA         21.6135  -27.4626  -46.2355 C.3       2 UNK         0.0481 
     23 CB         22.9841  -28.0616  -46.6155 C.3       2 UNK        -0.1831 
     24 N          20.4950  -28.0159  -47.0035 N.am      2 UNK        -0.4498 
     25 C          20.1934  -29.3040  -47.2161 C.2       1 UNK         0.5027 
     26 O          21.0038  -30.2293  -47.1641 O.2       1 UNK        -0.4969 
     27 C          20.8139  -26.5808  -41.8199 C.2       3 UNK         0.5005 
     28 O          21.8860  -25.9884  -41.9732 O.2       3 UNK        -0.5279 
     29 N          20.4144  -27.1674  -40.6808 N.am      4 UNK        -0.4463 
     30 CA         21.1007  -27.2715  -39.3886 C.3       4 UNK         0.0283 
     31 CB         21.6273  -25.9083  -38.8946 C.3       4 UNK        -0.1875 
     32 C          22.2017  -28.3408  -39.3649 C.2       4 UNK         0.4949 
     33 O          22.8012  -28.6654  -40.3918 O.2       4 UNK        -0.5039 
     34 N          22.4650  -28.8578  -38.1562 N.am      5 UNK        -0.4663 
     35 CA         23.4247  -29.9318  -37.8695 C.3       5 UNK         0.0242 
     36 CB         23.3396  -30.3026  -36.3809 C.3       5 UNK        -0.1982 
     37 C          24.8782  -29.6155  -38.2626 C.2       5 UNK         0.5017 
     38 O          25.6370  -30.5442  -38.5387 O.2       5 UNK        -0.5012 
     39 N          25.2215  -28.3220  -38.3482 N.am      6 UNK        -0.4439 
     40 CA         26.4910  -27.8115  -38.8767 C.3       6 UNK         0.0297 
     41 CB         26.5311  -26.2848  -38.7029 C.3       6 UNK        -0.2006 
     42 C          26.7521  -28.1908  -40.3492 C.2       6 UNK         0.4892 
     43 O          27.9149  -28.2730  -40.7458 O.2       6 UNK        -0.5089 
     44 N          25.6808  -28.4379  -41.1157 N.am      7 UNK        -0.4243 
     45 CA         25.7129  -28.9535  -42.4848 C.3       7 UNK         0.0196 
     46 CB         25.0859  -27.9067  -43.4196 C.3       7 UNK        -0.2007 
     47 C          25.0044  -30.3203  -42.5748 C.2       7 UNK         0.5020 
     48 O          24.5510  -30.7030  -43.6535 O.2       7 UNK        -0.5147 
     49 N          24.9184  -31.0334  -41.4394 N.am      8 UNK        -0.4734 
     50 CA         24.3003  -32.3522  -41.2386 C.3       8 UNK         0.0238 
     51 CB         25.0473  -33.4346  -42.0471 C.3       8 UNK        -0.1912 
     52 C          22.7754  -32.4018  -41.4716 C.2       8 UNK         0.5038 
     53 O          22.2223  -33.5000  -41.5526 O.2       8 UNK        -0.5046 
     54 N          22.1161  -31.2368  -41.5443 N.am      9 UNK        -0.4200 
     55 CA         20.6781  -31.0700  -41.8090 C.3       9 UNK         0.0839 
     56 C          20.2217  -31.6157  -43.1975 C.2       9 UNK         0.5513 
     57 N          21.0873  -31.6158  -44.2039 N.am      9 UNK        -0.7519 
     58 O          19.0847  -32.0455  -43.3699 O.2       9 UNK        -0.4960 
     59 C59        19.8006  -31.5557  -40.6130 C.3       10 UNK        -0.0876 
     60 S60        18.6466  -30.2745  -40.0172 S.3       10 UNK        -0.2414 
     61 C61        17.0749  -30.7058  -40.8434 C.3       10 UNK         0.0169 
     62 H62        17.2227  -25.6363  -49.0073 H         1 UNK         0.0903 
     63 H63        16.4770  -27.0990  -49.6560 H         1 UNK         0.0903 
     64 H64        15.7748  -26.3015  -48.2472 H         1 UNK         0.0903 
     65 H65        17.6389  -28.8998  -49.1307 H         1 UNK         0.3096 
     66 H66        18.7213  -30.5107  -48.1499 H         1 UNK         0.1121 
     67 H67        18.6535  -30.8834  -45.7024 H         1 UNK         0.0849 
     68 H68        18.0946  -29.2646  -45.4286 H         1 UNK         0.0849 
     69 H69        15.3807  -28.5608  -46.1370 H         1 UNK         0.0865 
     70 H70        14.3463  -29.7747  -45.4326 H         1 UNK         0.0865 
     71 H71        16.2705  -31.0682  -43.4333 H         1 UNK         0.1346 
     72 H72        16.8542  -28.0096  -40.4863 H         1 UNK         0.1412 
     73 H73        15.5378  -26.9579  -44.4221 H         1 UNK         0.1426 
     74 H74        15.4365  -25.7318  -41.2161 H         1 UNK         0.0716 
     75 H75        15.8437  -25.2295  -42.8386 H         1 UNK         0.0716 
     76 H76        18.1595  -25.3937  -43.7846 H         1 UNK         0.0695 
     77 H77        19.3956  -24.4567  -42.9977 H         1 UNK         0.0695 
     78 H78        19.1802  -27.5169  -42.8648 H         1 UNK         0.0983 
     79 H79        20.0890  -25.9678  -44.9444 H         1 UNK         0.3095 
     80 H80        21.6511  -26.3995  -46.4787 H         1 UNK         0.0454 
     81 H81        23.1208  -29.0712  -46.2256 H         1 UNK         0.0851 
     82 H82        23.1184  -28.0968  -47.6962 H         1 UNK         0.0851 
     83 H83        23.7886  -27.4491  -46.2102 H         1 UNK         0.0851 
     84 H84        19.6860  -27.4005  -47.0514 H         1 UNK         0.2976 
     85 H85        19.5104  -27.6189  -40.6978 H         1 UNK         0.3116 
     86 H86        20.3267  -27.5959  -38.6910 H         1 UNK         0.0646 
     87 H87        21.9542  -25.9670  -37.8560 H         1 UNK         0.0847 
     88 H88        20.8540  -25.1417  -38.9457 H         1 UNK         0.0847 
     89 H89        22.4810  -25.5635  -39.4788 H         1 UNK         0.0847 
     90 H90        21.9293  -28.5230  -37.3674 H         1 UNK         0.3040 
     91 H91        23.1202  -30.8016  -38.4557 H         1 UNK         0.1015 
     92 H92        22.3371  -30.6351  -36.1105 H         1 UNK         0.0786 
     93 H93        23.6003  -29.4602  -35.7389 H         1 UNK         0.0786 
     94 H94        24.0233  -31.1186  -36.1413 H         1 UNK         0.0786 
     95 H95        24.5230  -27.6368  -38.0999 H         1 UNK         0.3172 
     96 H96        27.2949  -28.2470  -38.2796 H         1 UNK         0.0595 
     97 H97        26.4361  -26.0000  -37.6548 H         1 UNK         0.0839 
     98 H98        25.7324  -25.7933  -39.2603 H         1 UNK         0.0839 
     99 H99        27.4769  -25.8763  -39.0621 H         1 UNK         0.0839 
    100 H100       24.7521  -28.3543  -40.7103 H         1 UNK         0.2998 
    101 H101       26.7424  -29.1220  -42.8065 H         1 UNK         0.0822 
    102 H102       25.6221  -26.9592  -43.3705 H         1 UNK         0.0787 
    103 H103       25.1161  -28.2430  -44.4556 H         1 UNK         0.0787 
    104 H104       24.0441  -27.7149  -43.1602 H         1 UNK         0.0787 
    105 H105       25.3325  -30.6333  -40.6042 H         1 UNK         0.3055 
    106 H106       24.4387  -32.5851  -40.1815 H         1 UNK         0.1106 
    107 H107       24.8943  -33.3163  -43.1202 H         1 UNK         0.0828 
    108 H108       26.1197  -33.4050  -41.8549 H         1 UNK         0.0828 
    109 H109       24.7012  -34.4339  -41.7802 H         1 UNK         0.0828 
    110 H110       22.6357  -30.3715  -41.4408 H         1 UNK         0.2931 
    111 H111       20.5596  -29.9898  -41.9001 H         1 UNK         0.0412 
    112 H112       20.8058  -31.9456  -45.1125 H         1 UNK         0.3472 
    113 H113       21.9994  -31.1987  -44.0803 H         1 UNK         0.3472 
    114 H114       20.4304  -31.8030  -39.7571 H         1 UNK         0.0970 
    115 H115       19.2697  -32.4831  -40.8339 H         1 UNK         0.0970 
    116 H116       17.1541  -31.6857  -41.3154 H         1 UNK         0.0612 
    117 H117       16.2981  -30.7951  -40.0832 H         1 UNK         0.0612 
@<TRIPOS>BOND
     1    1    2 1    
     2    1   62 1    
     3    1   63 1    
     4    1   64 1    
     5    2    3 2    
     6    2    4 am   BACKBONE|DICT|INTERRES
     7    4    5 1    
     8    4   65 1    
     9    5    6 1    
    10    5   25 1    
    11    5   66 1    
    12    6    7 1    
    13    6   67 1    
    14    6   68 1    
    15    7    8 1    
    16    8    9 1    
    17    8   69 1    
    18    8   70 1    
    19    9   10 ar   
    20    9   14 ar   
    21   10   11 ar   
    22   10   71 1    
    23   11   12 ar   
    24   11   61 1    
    25   12   13 ar   
    26   12   72 1    
    27   13   14 ar   
    28   13   15 1    
    29   14   73 1    
    30   15   16 1    
    31   15   74 1    
    32   15   75 1    
    33   16   17 1    
    34   17   18 1    
    35   17   76 1    
    36   17   77 1    
    37   18   19 1    
    38   18   27 1    
    39   18   78 1    
    40   19   20 am   BACKBONE|DICT|INTERRES
    41   19   79 1    
    42   20   21 2    
    43   20   22 1    
    44   22   23 1    
    45   22   24 1    
    46   22   80 1    
    47   23   81 1    
    48   23   82 1    
    49   23   83 1    
    50   24   25 am   BACKBONE|DICT|INTERRES
    51   24   84 1    
    52   25   26 2    
    53   27   28 2    
    54   27   29 am   BACKBONE|DICT|INTERRES
    55   29   30 1    
    56   29   85 1    
    57   30   31 1    
    58   30   32 1    
    59   30   86 1    
    60   31   87 1    
    61   31   88 1    
    62   31   89 1    
    63   32   33 2    
    64   32   34 am   BACKBONE|DICT|INTERRES
    65   34   35 1    
    66   34   90 1    
    67   35   36 1    
    68   35   37 1    
    69   35   91 1    
    70   36   92 1    
    71   36   93 1    
    72   36   94 1    
    73   37   38 2    
    74   37   39 am   BACKBONE|DICT|INTERRES
    75   39   40 1    
    76   39   95 1    
    77   40   41 1    
    78   40   42 1    
    79   40   96 1    
    80   41   97 1    
    81   41   98 1    
    82   41   99 1    
    83   42   43 2    
    84   42   44 am   BACKBONE|DICT|INTERRES
    85   44   45 1    
    86   44  100 1    
    87   45   46 1    
    88   45   47 1    
    89   45  101 1    
    90   46  102 1    
    91   46  103 1    
    92   46  104 1    
    93   47   48 2    
    94   47   49 am   BACKBONE|DICT|INTERRES
    95   49   50 1    
    96   49  105 1    
    97   50   51 1    
    98   50   52 1    
    99   50  106 1    
   100   51  107 1    
   101   51  108 1    
   102   51  109 1    
   103   52   53 2    
   104   52   54 am   BACKBONE|DICT|INTERRES
   105   54   55 1    
   106   54  110 1    
   107   55   56 1    
   108   55   59 1    
   109   55  111 1    
   110   56   57 am   BACKBONE|DICT|INTERRES
   111   56   58 2    
   112   57  112 1    
   113   57  113 1    
   114   59   60 1    
   115   59  114 1    
   116   59  115 1    
   117   60   61 1    
   118   61  116 1    
   119   61  117 1    
@<TRIPOS>SUBSTRUCTURE
     1 UNK         1 GROUP             0       ****    0 ROOT    
