@<TRIPOS>MOLECULE
3R8
117   119    1
SMALL
USER_CHARGES


@<TRIPOS>ATOM
      1 CA         15.3231  -28.6803  -40.5550 C.3       0 UNK        -0.2013 
      2 C          15.6506  -27.2966  -41.0941 C.2       0 UNK         0.4866 
      3 O          14.8685  -26.3652  -40.9028 O.2       0 UNK        -0.5176 
      4 N          16.7983  -27.1575  -41.7648 N.am      1 UNK        -0.4884 
      5 CA         17.2940  -25.8992  -42.3204 C.3       1 UNK         0.0853 
      6 C6         16.7976  -25.6401  -43.7736 C.3       10 UNK        -0.0849 
      7 S7         17.2441  -26.9228  -44.9983 S.3       10 UNK        -0.2776 
      8 C8         15.7708  -27.9997  -45.0270 C.3       10 UNK         0.0316 
      9 C9         16.1775  -29.4668  -44.9956 C.ar      10 UNK        -0.0863 
     10 C10        15.7477  -30.3059  -43.9633 C.ar      10 UNK        -0.1009 
     11 C11        16.1755  -31.6362  -43.9043 C.ar      10 UNK        -0.0712 
     12 C12        17.0511  -32.1223  -44.8805 C.ar      10 UNK        -0.0894 
     13 C13        17.4943  -31.2915  -45.9148 C.ar      10 UNK        -0.0745 
     14 C14        17.0177  -29.9790  -45.9875 C.ar      10 UNK        -0.0972 
     15 C15        18.5219  -31.8019  -46.9218 C.3       10 UNK         0.0209 
     16 S16        19.8981  -30.6326  -47.2279 S.3       10 UNK        -0.2568 
     17 C17        20.4359  -30.2085  -45.5369 C.3       10 UNK        -0.0983 
     18 CA         21.4424  -29.0242  -45.5067 C.3       3 UNK         0.0876 
     19 N          21.1050  -28.0624  -44.4548 N.am      3 UNK        -0.4424 
     20 C          21.5538  -26.8059  -44.3674 C.2       2 UNK         0.4918 
     21 O          22.2802  -26.2764  -45.2085 O.2       2 UNK        -0.4875 
     22 CA         21.0731  -26.0124  -43.1440 C.3       2 UNK         0.0481 
     23 CB         21.6464  -24.5830  -43.0785 C.3       2 UNK        -0.1831 
     24 N          19.6119  -25.9755  -43.1568 N.am      2 UNK        -0.4498 
     25 C          18.8169  -25.8458  -42.0903 C.2       1 UNK         0.5027 
     26 O          19.2388  -25.7068  -40.9414 O.2       1 UNK        -0.4969 
     27 C          22.8858  -29.5286  -45.3316 C.2       3 UNK         0.5005 
     28 O          23.6502  -29.5589  -46.2973 O.2       3 UNK        -0.5279 
     29 N          23.2316  -29.8926  -44.0879 N.am      4 UNK        -0.4463 
     30 CA         24.5679  -30.3494  -43.6983 C.3       4 UNK         0.0283 
     31 CB         24.4429  -31.2668  -42.4721 C.3       4 UNK        -0.1875 
     32 C          25.5467  -29.1926  -43.4245 C.2       4 UNK         0.4949 
     33 O          26.7426  -29.4466  -43.2784 O.2       4 UNK        -0.5039 
     34 N          25.0318  -27.9569  -43.3302 N.am      5 UNK        -0.4663 
     35 CA         25.7068  -26.6749  -43.0676 C.3       5 UNK         0.0242 
     36 CB         26.7707  -26.3594  -44.1366 C.3       5 UNK        -0.1982 
     37 C          26.2808  -26.5496  -41.6455 C.2       5 UNK         0.5017 
     38 O          26.0175  -25.5529  -40.9730 O.2       5 UNK        -0.5012 
     39 N          27.0138  -27.5757  -41.1977 N.am      6 UNK        -0.4439 
     40 CA         27.4758  -27.7574  -39.8180 C.3       6 UNK         0.0297 
     41 CB         28.6538  -28.7453  -39.8171 C.3       6 UNK        -0.2006 
     42 C          26.3581  -28.2492  -38.8750 C.2       6 UNK         0.4892 
     43 O          26.5420  -28.2301  -37.6575 O.2       6 UNK        -0.5089 
     44 N          25.2312  -28.6800  -39.4500 N.am      7 UNK        -0.4243 
     45 CA         24.0098  -29.1165  -38.7877 C.3       7 UNK         0.0196 
     46 CB         24.1168  -30.6123  -38.4309 C.3       7 UNK        -0.2007 
     47 C          22.8355  -28.8237  -39.7340 C.2       7 UNK         0.5020 
     48 O          23.0536  -28.3214  -40.8410 O.2       7 UNK        -0.5147 
     49 N          21.6161  -29.1380  -39.2808 N.am      8 UNK        -0.4734 
     50 CA         20.3733  -28.9736  -40.0361 C.3       8 UNK         0.0238 
     51 CB         19.1751  -29.0116  -39.0662 C.3       8 UNK        -0.1912 
     52 C          20.2676  -29.9858  -41.1924 C.2       8 UNK         0.5038 
     53 O          20.8366  -29.7435  -42.2565 O.2       8 UNK        -0.5046 
     54 N          19.5261  -31.0798  -40.9885 N.am      9 UNK        -0.4200 
     55 CA         19.3351  -32.1476  -41.9809 C.3       9 UNK         0.0839 
     56 C          20.6427  -32.9346  -42.2708 C.2       9 UNK         0.5513 
     57 N          20.8057  -33.4396  -43.4857 N.am      9 UNK        -0.7519 
     58 O          21.4821  -33.1317  -41.3950 O.2       9 UNK        -0.4960 
     59 C59        18.1970  -33.1188  -41.5727 C.3       10 UNK        -0.0876 
     60 S60        16.6121  -32.2759  -41.2369 S.3       10 UNK        -0.2414 
     61 C61        15.6892  -32.5438  -42.7834 C.3       10 UNK         0.0169 
     62 H62        16.0692  -29.4158  -40.8509 H         1 UNK         0.0903 
     63 H63        15.2808  -28.6591  -39.4664 H         1 UNK         0.0903 
     64 H64        14.3541  -29.0114  -40.9271 H         1 UNK         0.0903 
     65 H65        17.4072  -27.9523  -41.8963 H         1 UNK         0.3096 
     66 H66        16.9074  -25.0786  -41.7109 H         1 UNK         0.1121 
     67 H67        17.1845  -24.6838  -44.1304 H         1 UNK         0.0849 
     68 H68        15.7133  -25.5190  -43.7696 H         1 UNK         0.0849 
     69 H69        15.1174  -27.7673  -44.1851 H         1 UNK         0.0865 
     70 H70        15.1945  -27.7995  -45.9312 H         1 UNK         0.0865 
     71 H71        15.0860  -29.9254  -43.1984 H         1 UNK         0.1346 
     72 H72        17.3991  -33.1444  -44.8239 H         1 UNK         0.1412 
     73 H73        17.3572  -29.3296  -46.7831 H         1 UNK         0.1426 
     74 H74        18.0178  -32.0080  -47.8667 H         1 UNK         0.0716 
     75 H75        18.9484  -32.7483  -46.5861 H         1 UNK         0.0716 
     76 H76        20.8278  -31.1067  -45.0570 H         1 UNK         0.0695 
     77 H77        19.5514  -29.9461  -44.9568 H         1 UNK         0.0695 
     78 H78        21.3959  -28.4847  -46.4556 H         1 UNK         0.0983 
     79 H79        20.6076  -28.4530  -43.6607 H         1 UNK         0.3095 
     80 H80        21.4115  -26.5589  -42.2614 H         1 UNK         0.0454 
     81 H81        21.3269  -23.9823  -43.9307 H         1 UNK         0.0851 
     82 H82        22.7367  -24.5983  -43.0777 H         1 UNK         0.0851 
     83 H83        21.3321  -24.0698  -42.1699 H         1 UNK         0.0851 
     84 H84        19.1711  -26.1358  -44.0565 H         1 UNK         0.2976 
     85 H85        22.5294  -29.8340  -43.3538 H         1 UNK         0.3116 
     86 H86        24.9928  -30.9392  -44.5133 H         1 UNK         0.0646 
     87 H87        23.9458  -30.7654  -41.6441 H         1 UNK         0.0847 
     88 H88        25.4213  -31.5960  -42.1194 H         1 UNK         0.0847 
     89 H89        23.8673  -32.1619  -42.7078 H         1 UNK         0.0847 
     90 H90        24.0261  -27.8960  -43.4046 H         1 UNK         0.3040 
     91 H91        24.9287  -25.9145  -43.1533 H         1 UNK         0.1015 
     92 H92        27.6021  -27.0644  -44.1123 H         1 UNK         0.0786 
     93 H93        27.1884  -25.3632  -43.9855 H         1 UNK         0.0786 
     94 H94        26.3416  -26.3821  -45.1385 H         1 UNK         0.0786 
     95 H95        27.1580  -28.3494  -41.8446 H         1 UNK         0.3172 
     96 H96        27.8304  -26.7973  -39.4375 H         1 UNK         0.0595 
     97 H97        28.3578  -29.7263  -40.1912 H         1 UNK         0.0839 
     98 H98        29.0464  -28.8854  -38.8089 H         1 UNK         0.0839 
     99 H99        29.4756  -28.3838  -40.4355 H         1 UNK         0.0839 
    100 H100       25.1270  -28.5700  -40.4509 H         1 UNK         0.2998 
    101 H101       23.8634  -28.5290  -37.8789 H         1 UNK         0.0822 
    102 H102       24.9751  -30.8035  -37.7866 H         1 UNK         0.0787 
    103 H103       23.2334  -30.9593  -37.8943 H         1 UNK         0.0787 
    104 H104       24.2248  -31.2349  -39.3193 H         1 UNK         0.0787 
    105 H105       21.5352  -29.5566  -38.3654 H         1 UNK         0.3055 
    106 H106       20.3941  -27.9851  -40.4962 H         1 UNK         0.1106 
    107 H107       19.1451  -29.9278  -38.4756 H         1 UNK         0.0828 
    108 H108       18.2298  -28.9298  -39.6031 H         1 UNK         0.0828 
    109 H109       19.2138  -28.1732  -38.3703 H         1 UNK         0.0828 
    110 H110       19.0938  -31.2250  -40.0894 H         1 UNK         0.2931 
    111 H111       19.0376  -31.6572  -42.9096 H         1 UNK         0.0412 
    112 H112       21.6378  -33.9730  -43.6829 H         1 UNK         0.3472 
    113 H113       20.1155  -33.3059  -44.2062 H         1 UNK         0.3472 
    114 H114       18.4768  -33.6691  -40.6723 H         1 UNK         0.0970 
    115 H115       18.0427  -33.8745  -42.3449 H         1 UNK         0.0970 
    116 H116       15.7515  -33.5931  -43.0755 H         1 UNK         0.0612 
    117 H117       14.6330  -32.3459  -42.5946 H         1 UNK         0.0612 
@<TRIPOS>BOND
     1    1    2 1    
     2    1   62 1    
     3    1   63 1    
     4    1   64 1    
     5    2    3 2    
     6    2    4 am   BACKBONE|DICT|INTERRES
     7    4    5 1    
     8    4   65 1    
     9    5    6 1    
    10    5   25 1    
    11    5   66 1    
    12    6    7 1    
    13    6   67 1    
    14    6   68 1    
    15    7    8 1    
    16    8    9 1    
    17    8   69 1    
    18    8   70 1    
    19    9   10 ar   
    20    9   14 ar   
    21   10   11 ar   
    22   10   71 1    
    23   11   12 ar   
    24   11   61 1    
    25   12   13 ar   
    26   12   72 1    
    27   13   14 ar   
    28   13   15 1    
    29   14   73 1    
    30   15   16 1    
    31   15   74 1    
    32   15   75 1    
    33   16   17 1    
    34   17   18 1    
    35   17   76 1    
    36   17   77 1    
    37   18   19 1    
    38   18   27 1    
    39   18   78 1    
    40   19   20 am   BACKBONE|DICT|INTERRES
    41   19   79 1    
    42   20   21 2    
    43   20   22 1    
    44   22   23 1    
    45   22   24 1    
    46   22   80 1    
    47   23   81 1    
    48   23   82 1    
    49   23   83 1    
    50   24   25 am   BACKBONE|DICT|INTERRES
    51   24   84 1    
    52   25   26 2    
    53   27   28 2    
    54   27   29 am   BACKBONE|DICT|INTERRES
    55   29   30 1    
    56   29   85 1    
    57   30   31 1    
    58   30   32 1    
    59   30   86 1    
    60   31   87 1    
    61   31   88 1    
    62   31   89 1    
    63   32   33 2    
    64   32   34 am   BACKBONE|DICT|INTERRES
    65   34   35 1    
    66   34   90 1    
    67   35   36 1    
    68   35   37 1    
    69   35   91 1    
    70   36   92 1    
    71   36   93 1    
    72   36   94 1    
    73   37   38 2    
    74   37   39 am   BACKBONE|DICT|INTERRES
    75   39   40 1    
    76   39   95 1    
    77   40   41 1    
    78   40   42 1    
    79   40   96 1    
    80   41   97 1    
    81   41   98 1    
    82   41   99 1    
    83   42   43 2    
    84   42   44 am   BACKBONE|DICT|INTERRES
    85   44   45 1    
    86   44  100 1    
    87   45   46 1    
    88   45   47 1    
    89   45  101 1    
    90   46  102 1    
    91   46  103 1    
    92   46  104 1    
    93   47   48 2    
    94   47   49 am   BACKBONE|DICT|INTERRES
    95   49   50 1    
    96   49  105 1    
    97   50   51 1    
    98   50   52 1    
    99   50  106 1    
   100   51  107 1    
   101   51  108 1    
   102   51  109 1    
   103   52   53 2    
   104   52   54 am   BACKBONE|DICT|INTERRES
   105   54   55 1    
   106   54  110 1    
   107   55   56 1    
   108   55   59 1    
   109   55  111 1    
   110   56   57 am   BACKBONE|DICT|INTERRES
   111   56   58 2    
   112   57  112 1    
   113   57  113 1    
   114   59   60 1    
   115   59  114 1    
   116   59  115 1    
   117   60   61 1    
   118   61  116 1    
   119   61  117 1    
@<TRIPOS>SUBSTRUCTURE
     1 UNK         1 GROUP             0       ****    0 ROOT    
