@<TRIPOS>MOLECULE
3R8
117   119    1
SMALL
USER_CHARGES


@<TRIPOS>ATOM
      1 CA         18.5074  -28.0715  -41.7032 C.3       0 UNK        -0.2013 
      2 C          18.2204  -26.9419  -42.6785 C.2       0 UNK         0.4866 
      3 O          18.8235  -25.8739  -42.5723 O.2       0 UNK        -0.5176 
      4 N          17.3015  -27.1700  -43.6247 N.am      1 UNK        -0.4884 
      5 CA         16.8491  -26.2029  -44.6268 C.3       1 UNK         0.0853 
      6 C6         15.5305  -26.6634  -45.3115 C.3       10 UNK        -0.0849 
      7 S7         15.6055  -28.0552  -46.5016 S.3       10 UNK        -0.2776 
      8 C8         15.6493  -29.5580  -45.4535 C.3       10 UNK         0.0316 
      9 C9         17.0509  -29.9988  -45.0192 C.ar      10 UNK        -0.0863 
     10 C10        17.2109  -30.7228  -43.8336 C.ar      10 UNK        -0.1009 
     11 C11        18.4802  -31.1358  -43.4138 C.ar      10 UNK        -0.0712 
     12 C12        19.6027  -30.8141  -44.1839 C.ar      10 UNK        -0.0894 
     13 C13        19.4650  -30.0758  -45.3648 C.ar      10 UNK        -0.0745 
     14 C14        18.1849  -29.7106  -45.7878 C.ar      10 UNK        -0.0972 
     15 C15        20.6643  -29.6510  -46.2154 C.3       10 UNK         0.0209 
     16 S16        22.1993  -29.2803  -45.2938 S.3       10 UNK        -0.2568 
     17 C17        21.6771  -28.0123  -44.0951 C.3       10 UNK        -0.0983 
     18 CA         22.0994  -26.5680  -44.4816 C.3       3 UNK         0.0876 
     19 N          21.0130  -25.8670  -45.1715 N.am      3 UNK        -0.4424 
     20 C          21.0239  -24.6165  -45.6521 C.2       2 UNK         0.4918 
     21 O          22.0287  -23.9058  -45.6787 O.2       2 UNK        -0.4875 
     22 CA         19.6863  -24.0319  -46.1638 C.3       2 UNK         0.0481 
     23 CB         19.5985  -24.1117  -47.7007 C.3       2 UNK        -0.1831 
     24 N          18.4785  -24.5795  -45.5162 N.am      2 UNK        -0.4498 
     25 C          17.9992  -25.8304  -45.5910 C.2       1 UNK         0.5027 
     26 O          18.5113  -26.6944  -46.3008 O.2       1 UNK        -0.4969 
     27 C          22.5781  -25.8023  -43.2303 C.2       3 UNK         0.5005 
     28 O          23.7872  -25.6567  -43.0406 O.2       3 UNK        -0.5279 
     29 N          21.6298  -25.3411  -42.3978 N.am      4 UNK        -0.4463 
     30 CA         21.8434  -24.6424  -41.1262 C.3       4 UNK         0.0283 
     31 CB         22.3571  -23.2070  -41.3795 C.3       4 UNK        -0.1875 
     32 C          22.7259  -25.4709  -40.1717 C.2       4 UNK         0.4949 
     33 O          22.2675  -26.4956  -39.6678 O.2       4 UNK        -0.5039 
     34 N          23.9800  -25.0461  -39.9691 N.am      5 UNK        -0.4663 
     35 CA         24.9841  -25.7485  -39.1655 C.3       5 UNK         0.0242 
     36 CB         26.1729  -24.8059  -38.9176 C.3       5 UNK        -0.1982 
     37 C          25.4694  -27.0745  -39.7840 C.2       5 UNK         0.5017 
     38 O          25.9866  -27.9159  -39.0492 O.2       5 UNK        -0.5012 
     39 N          25.2960  -27.2520  -41.1025 N.am      6 UNK        -0.4439 
     40 CA         25.6917  -28.4533  -41.8462 C.3       6 UNK         0.0297 
     41 CB         26.0859  -28.0505  -43.2789 C.3       6 UNK        -0.2006 
     42 C          24.6099  -29.5527  -41.8580 C.2       6 UNK         0.4892 
     43 O          24.7426  -30.5026  -42.6302 O.2       6 UNK        -0.5089 
     44 N          23.5561  -29.4080  -41.0395 N.am      7 UNK        -0.4243 
     45 CA         22.4298  -30.3355  -40.9164 C.3       7 UNK         0.0196 
     46 CB         21.3790  -29.7187  -39.9780 C.3       7 UNK        -0.2007 
     47 C          22.8671  -31.7280  -40.4265 C.2       7 UNK         0.5020 
     48 O          23.0725  -31.9216  -39.2272 O.2       7 UNK        -0.5147 
     49 N          23.0026  -32.6696  -41.3680 N.am      8 UNK        -0.4734 
     50 CA         23.4106  -34.0563  -41.1162 C.3       8 UNK         0.0238 
     51 CB         24.0670  -34.6115  -42.3924 C.3       8 UNK        -0.1912 
     52 C          22.2551  -34.9694  -40.6622 C.2       8 UNK         0.5038 
     53 O          22.5130  -36.1183  -40.3001 O.2       8 UNK        -0.5046 
     54 N          21.0157  -34.4640  -40.7207 N.am      9 UNK        -0.4200 
     55 CA         19.7724  -35.1587  -40.3547 C.3       9 UNK         0.0839 
     56 C          19.7620  -35.6656  -38.8858 C.2       9 UNK         0.5513 
     57 N          19.2302  -36.8559  -38.6433 N.am      9 UNK        -0.7519 
     58 O          20.1838  -34.9686  -37.9652 O.2       9 UNK        -0.4960 
     59 C59        18.5279  -34.2709  -40.6174 C.3       10 UNK        -0.0876 
     60 S60        18.4063  -33.6842  -42.3431 S.3       10 UNK        -0.2414 
     61 C61        18.6389  -31.8971  -42.1078 C.3       10 UNK         0.0169 
     62 H62        17.6452  -28.7277  -41.5883 H         1 UNK         0.0903 
     63 H63        19.3484  -28.6678  -42.0511 H         1 UNK         0.0903 
     64 H64        18.7545  -27.6694  -40.7210 H         1 UNK         0.0903 
     65 H65        16.9246  -28.1016  -43.7300 H         1 UNK         0.3096 
     66 H66        16.5950  -25.2981  -44.0696 H         1 UNK         0.1121 
     67 H67        15.1092  -25.8160  -45.8550 H         1 UNK         0.0849 
     68 H68        14.7864  -26.9027  -44.5500 H         1 UNK         0.0849 
     69 H69        15.0073  -29.4065  -44.5844 H         1 UNK         0.0865 
     70 H70        15.2046  -30.3775  -46.0196 H         1 UNK         0.0865 
     71 H71        16.3460  -30.9699  -43.2325 H         1 UNK         0.1346 
     72 H72        20.5839  -31.1263  -43.8568 H         1 UNK         0.1412 
     73 H73        18.0804  -29.1686  -46.7168 H         1 UNK         0.1426 
     74 H74        20.4106  -28.7648  -46.7996 H         1 UNK         0.0716 
     75 H75        20.8751  -30.4432  -46.9344 H         1 UNK         0.0716 
     76 H76        20.6015  -28.0712  -43.9397 H         1 UNK         0.0695 
     77 H77        22.1150  -28.3190  -43.1450 H         1 UNK         0.0695 
     78 H78        22.9495  -26.6065  -45.1659 H         1 UNK         0.0983 
     79 H79        20.1490  -26.3846  -45.2899 H         1 UNK         0.3095 
     80 H80        19.6969  -22.9741  -45.8966 H         1 UNK         0.0454 
     81 H81        20.4301  -23.5790  -48.1633 H         1 UNK         0.0851 
     82 H82        18.6788  -23.6590  -48.0705 H         1 UNK         0.0851 
     83 H83        19.6368  -25.1393  -48.0628 H         1 UNK         0.0851 
     84 H84        18.0390  -23.9523  -44.8561 H         1 UNK         0.2976 
     85 H85        20.6538  -25.5388  -42.6151 H         1 UNK         0.3116 
     86 H86        20.8656  -24.5643  -40.6486 H         1 UNK         0.0646 
     87 H87        23.3014  -23.1907  -41.9243 H         1 UNK         0.0847 
     88 H88        21.6362  -22.6367  -41.9652 H         1 UNK         0.0847 
     89 H89        22.5020  -22.6683  -40.4421 H         1 UNK         0.0847 
     90 H90        24.2846  -24.2133  -40.4526 H         1 UNK         0.3040 
     91 H91        24.5325  -25.9917  -38.2010 H         1 UNK         0.1015 
     92 H92        25.8594  -23.8974  -38.4027 H         1 UNK         0.0786 
     93 H93        26.6586  -24.5148  -39.8497 H         1 UNK         0.0786 
     94 H94        26.9280  -25.2852  -38.2928 H         1 UNK         0.0786 
     95 H95        24.8285  -26.5254  -41.6412 H         1 UNK         0.3172 
     96 H96        26.5759  -28.8855  -41.3734 H         1 UNK         0.0595 
     97 H97        25.2227  -27.7249  -43.8597 H         1 UNK         0.0839 
     98 H98        26.5321  -28.8910  -43.8120 H         1 UNK         0.0839 
     99 H99        26.8183  -27.2431  -43.2811 H         1 UNK         0.0839 
    100 H100       23.5348  -28.5982  -40.4351 H         1 UNK         0.2998 
    101 H101       21.9763  -30.4408  -41.9036 H         1 UNK         0.0822 
    102 H102       20.5149  -30.3735  -39.8624 H         1 UNK         0.0787 
    103 H103       21.0189  -28.7658  -40.3624 H         1 UNK         0.0787 
    104 H104       21.7847  -29.5367  -38.9819 H         1 UNK         0.0787 
    105 H105       22.8913  -32.4026  -42.3371 H         1 UNK         0.3055 
    106 H106       24.1566  -34.0649  -40.3177 H         1 UNK         0.1106 
    107 H107       24.9206  -34.0042  -42.6954 H         1 UNK         0.0828 
    108 H108       24.4350  -35.6264  -42.2349 H         1 UNK         0.0828 
    109 H109       23.3649  -34.6455  -43.2266 H         1 UNK         0.0828 
    110 H110       20.9136  -33.5132  -41.0359 H         1 UNK         0.2931 
    111 H111       19.7059  -36.0293  -41.0105 H         1 UNK         0.0412 
    112 H112       18.8718  -37.4295  -39.3917 H         1 UNK         0.3472 
    113 H113       19.1979  -37.1948  -37.6940 H         1 UNK         0.3472 
    114 H114       17.6164  -34.8322  -40.4020 H         1 UNK         0.0970 
    115 H115       18.5177  -33.4185  -39.9349 H         1 UNK         0.0970 
    116 H116       19.6269  -31.7164  -41.6845 H         1 UNK         0.0612 
    117 H117       17.9160  -31.5283  -41.3782 H         1 UNK         0.0612 
@<TRIPOS>BOND
     1    1    2 1    
     2    1   62 1    
     3    1   63 1    
     4    1   64 1    
     5    2    3 2    
     6    2    4 am   BACKBONE|DICT|INTERRES
     7    4    5 1    
     8    4   65 1    
     9    5    6 1    
    10    5   25 1    
    11    5   66 1    
    12    6    7 1    
    13    6   67 1    
    14    6   68 1    
    15    7    8 1    
    16    8    9 1    
    17    8   69 1    
    18    8   70 1    
    19    9   10 ar   
    20    9   14 ar   
    21   10   11 ar   
    22   10   71 1    
    23   11   12 ar   
    24   11   61 1    
    25   12   13 ar   
    26   12   72 1    
    27   13   14 ar   
    28   13   15 1    
    29   14   73 1    
    30   15   16 1    
    31   15   74 1    
    32   15   75 1    
    33   16   17 1    
    34   17   18 1    
    35   17   76 1    
    36   17   77 1    
    37   18   19 1    
    38   18   27 1    
    39   18   78 1    
    40   19   20 am   BACKBONE|DICT|INTERRES
    41   19   79 1    
    42   20   21 2    
    43   20   22 1    
    44   22   23 1    
    45   22   24 1    
    46   22   80 1    
    47   23   81 1    
    48   23   82 1    
    49   23   83 1    
    50   24   25 am   BACKBONE|DICT|INTERRES
    51   24   84 1    
    52   25   26 2    
    53   27   28 2    
    54   27   29 am   BACKBONE|DICT|INTERRES
    55   29   30 1    
    56   29   85 1    
    57   30   31 1    
    58   30   32 1    
    59   30   86 1    
    60   31   87 1    
    61   31   88 1    
    62   31   89 1    
    63   32   33 2    
    64   32   34 am   BACKBONE|DICT|INTERRES
    65   34   35 1    
    66   34   90 1    
    67   35   36 1    
    68   35   37 1    
    69   35   91 1    
    70   36   92 1    
    71   36   93 1    
    72   36   94 1    
    73   37   38 2    
    74   37   39 am   BACKBONE|DICT|INTERRES
    75   39   40 1    
    76   39   95 1    
    77   40   41 1    
    78   40   42 1    
    79   40   96 1    
    80   41   97 1    
    81   41   98 1    
    82   41   99 1    
    83   42   43 2    
    84   42   44 am   BACKBONE|DICT|INTERRES
    85   44   45 1    
    86   44  100 1    
    87   45   46 1    
    88   45   47 1    
    89   45  101 1    
    90   46  102 1    
    91   46  103 1    
    92   46  104 1    
    93   47   48 2    
    94   47   49 am   BACKBONE|DICT|INTERRES
    95   49   50 1    
    96   49  105 1    
    97   50   51 1    
    98   50   52 1    
    99   50  106 1    
   100   51  107 1    
   101   51  108 1    
   102   51  109 1    
   103   52   53 2    
   104   52   54 am   BACKBONE|DICT|INTERRES
   105   54   55 1    
   106   54  110 1    
   107   55   56 1    
   108   55   59 1    
   109   55  111 1    
   110   56   57 am   BACKBONE|DICT|INTERRES
   111   56   58 2    
   112   57  112 1    
   113   57  113 1    
   114   59   60 1    
   115   59  114 1    
   116   59  115 1    
   117   60   61 1    
   118   61  116 1    
   119   61  117 1    
@<TRIPOS>SUBSTRUCTURE
     1 UNK         1 GROUP             0       ****    0 ROOT    
