@<TRIPOS>MOLECULE
3R8
117   119    1
SMALL
USER_CHARGES


@<TRIPOS>ATOM
      1 CA         13.7086  -31.0927  -43.2615 C.3       0 UNK        -0.2013 
      2 C          15.0210  -30.3717  -42.9921 C.2       0 UNK         0.4866 
      3 O          16.0404  -31.0248  -42.7720 O.2       0 UNK        -0.5176 
      4 N          14.9969  -29.0318  -43.0014 N.am      1 UNK        -0.4884 
      5 CA         16.1622  -28.1609  -42.8045 C.3       1 UNK         0.0853 
      6 C6         15.7199  -26.6852  -42.6082 C.3       10 UNK        -0.0849 
      7 S7         16.9783  -25.6235  -41.8215 S.3       10 UNK        -0.2776 
      8 C8         17.6382  -24.6305  -43.2168 C.3       10 UNK         0.0316 
      9 C9         18.9776  -25.1298  -43.7609 C.ar      10 UNK        -0.0863 
     10 C10        19.9507  -25.6457  -42.8987 C.ar      10 UNK        -0.1009 
     11 C11        21.1707  -26.1089  -43.3914 C.ar      10 UNK        -0.0712 
     12 C12        21.4436  -26.0155  -44.7574 C.ar      10 UNK        -0.0894 
     13 C13        20.4987  -25.4744  -45.6329 C.ar      10 UNK        -0.0745 
     14 C14        19.2670  -25.0341  -45.1291 C.ar      10 UNK        -0.0972 
     15 C15        20.8314  -25.3375  -47.1144 C.3       10 UNK         0.0209 
     16 S16        20.1525  -26.6915  -48.1284 S.3       10 UNK        -0.2568 
     17 C17        21.0953  -28.1489  -47.5667 C.3       10 UNK        -0.0983 
     18 CA         20.3517  -29.0548  -46.5440 C.3       3 UNK         0.0876 
     19 N          19.1389  -29.6807  -47.0792 N.am      3 UNK        -0.4424 
     20 C          17.8527  -29.3395  -46.9312 C.2       2 UNK         0.4918 
     21 O          16.9484  -30.1125  -47.2487 O.2       2 UNK        -0.4875 
     22 CA         17.4597  -27.9472  -46.4041 C.3       2 UNK         0.0481 
     23 CB         16.6547  -27.1707  -47.4611 C.3       2 UNK        -0.1831 
     24 N          16.6671  -28.0287  -45.1841 N.am      2 UNK        -0.4498 
     25 C          17.1610  -28.2993  -43.9689 C.2       1 UNK         0.5027 
     26 O          18.3244  -28.6351  -43.7507 O.2       1 UNK        -0.4969 
     27 C          21.2573  -30.2318  -46.1309 C.2       3 UNK         0.5005 
     28 O          21.1319  -31.3210  -46.7029 O.2       3 UNK        -0.5279 
     29 N          22.1613  -30.0084  -45.1726 N.am      4 UNK        -0.4463 
     30 CA         23.0981  -31.0040  -44.6521 C.3       4 UNK         0.0283 
     31 CB         22.3844  -31.9238  -43.6359 C.3       4 UNK        -0.1875 
     32 C          24.3236  -30.2969  -44.0507 C.2       4 UNK         0.4949 
     33 O          24.4804  -29.0824  -44.2060 O.2       4 UNK        -0.5039 
     34 N          25.1830  -31.0722  -43.3803 N.am      5 UNK        -0.4663 
     35 CA         26.4081  -30.6169  -42.7227 C.3       5 UNK         0.0242 
     36 CB         27.3284  -31.8337  -42.5086 C.3       5 UNK        -0.1982 
     37 C          26.1319  -29.8580  -41.4085 C.2       5 UNK         0.5017 
     38 O          26.3771  -30.4005  -40.3291 O.2       5 UNK        -0.5012 
     39 N          25.6399  -28.6168  -41.5312 N.am      6 UNK        -0.4439 
     40 CA         25.4706  -27.5991  -40.4831 C.3       6 UNK         0.0297 
     41 CB         26.8449  -27.0371  -40.0585 C.3       6 UNK        -0.2006 
     42 C          24.6238  -28.0733  -39.2866 C.2       6 UNK         0.4892 
     43 O          23.4016  -27.9450  -39.3225 O.2       6 UNK        -0.5089 
     44 N          25.2754  -28.6271  -38.2538 N.am      7 UNK        -0.4243 
     45 CA         24.6376  -29.2166  -37.0715 C.3       7 UNK         0.0196 
     46 CB         25.7225  -29.6215  -36.0612 C.3       7 UNK        -0.2007 
     47 C          23.7285  -30.4168  -37.3969 C.2       7 UNK         0.5020 
     48 O          22.7836  -30.6777  -36.6519 O.2       7 UNK        -0.5147 
     49 N          23.9995  -31.1015  -38.5177 N.am      8 UNK        -0.4734 
     50 CA         23.1770  -32.1891  -39.0549 C.3       8 UNK         0.0238 
     51 CB         23.9532  -32.8906  -40.1807 C.3       8 UNK        -0.1912 
     52 C          21.7893  -31.7420  -39.5581 C.2       8 UNK         0.5038 
     53 O          20.9213  -32.5986  -39.7294 O.2       8 UNK        -0.5046 
     54 N          21.5987  -30.4359  -39.7929 N.am      9 UNK        -0.4200 
     55 CA         20.3318  -29.8404  -40.2509 C.3       9 UNK         0.0839 
     56 C          19.2265  -29.7594  -39.1581 C.2       9 UNK         0.5513 
     57 N          19.5233  -30.0100  -37.8874 N.am      9 UNK        -0.7519 
     58 O          18.0760  -29.4647  -39.4702 O.2       9 UNK        -0.4960 
     59 C59        20.5456  -28.4543  -40.9128 C.3       10 UNK        -0.0876 
     60 S60        21.8279  -28.4913  -42.2069 S.3       10 UNK        -0.2414 
     61 C61        22.1843  -26.7291  -42.4479 C.3       10 UNK         0.0169 
     62 H62        12.8852  -30.3976  -43.4252 H         1 UNK         0.0903 
     63 H63        13.4504  -31.7301  -42.4162 H         1 UNK         0.0903 
     64 H64        13.8017  -31.7218  -44.1464 H         1 UNK         0.0903 
     65 H65        14.1203  -28.5613  -43.1781 H         1 UNK         0.3096 
     66 H66        16.6694  -28.4952  -41.8956 H         1 UNK         0.1121 
     67 H67        15.3697  -26.2363  -43.5391 H         1 UNK         0.0849 
     68 H68        14.8573  -26.6585  -41.9403 H         1 UNK         0.0849 
     69 H69        16.8976  -24.5724  -44.0154 H         1 UNK         0.0865 
     70 H70        17.7823  -23.6079  -42.8660 H         1 UNK         0.0865 
     71 H71        19.7554  -25.7086  -41.8378 H         1 UNK         0.1346 
     72 H72        22.3948  -26.3628  -45.1372 H         1 UNK         0.1412 
     73 H73        18.5349  -24.6165  -45.8069 H         1 UNK         0.1426 
     74 H74        21.9111  -25.2834  -47.2624 H         1 UNK         0.0716 
     75 H75        20.4313  -24.3931  -47.4861 H         1 UNK         0.0716 
     76 H76        22.0452  -27.8050  -47.1538 H         1 UNK         0.0695 
     77 H77        21.3536  -28.7261  -48.4567 H         1 UNK         0.0695 
     78 H78        20.1244  -28.4923  -45.6378 H         1 UNK         0.0983 
     79 H79        19.3403  -30.6123  -47.4219 H         1 UNK         0.3095 
     80 H80        18.3421  -27.3623  -46.1696 H         1 UNK         0.0454 
     81 H81        15.7002  -27.6512  -47.6792 H         1 UNK         0.0851 
     82 H82        17.2034  -27.1050  -48.4011 H         1 UNK         0.0851 
     83 H83        16.4524  -26.1507  -47.1347 H         1 UNK         0.0851 
     84 H84        15.6799  -27.8413  -45.2741 H         1 UNK         0.2976 
     85 H85        22.2592  -29.0896  -44.7565 H         1 UNK         0.3116 
     86 H86        23.4622  -31.6103  -45.4842 H         1 UNK         0.0646 
     87 H87        22.0875  -31.3821  -42.7379 H         1 UNK         0.0847 
     88 H88        23.0214  -32.7515  -43.3245 H         1 UNK         0.0847 
     89 H89        21.4854  -32.3684  -44.0626 H         1 UNK         0.0847 
     90 H90        24.9788  -32.0576  -43.3027 H         1 UNK         0.3040 
     91 H91        26.9269  -29.9267  -43.3922 H         1 UNK         0.1015 
     92 H92        27.5884  -32.3068  -43.4557 H         1 UNK         0.0786 
     93 H93        26.8634  -32.5882  -41.8725 H         1 UNK         0.0786 
     94 H94        28.2629  -31.5365  -42.0304 H         1 UNK         0.0786 
     95 H95        25.3517  -28.3406  -42.4649 H         1 UNK         0.3172 
     96 H96        24.9144  -26.7800  -40.9412 H         1 UNK         0.0595 
     97 H97        27.5192  -27.8132  -39.6950 H         1 UNK         0.0839 
     98 H98        26.7389  -26.2938  -39.2669 H         1 UNK         0.0839 
     99 H99        27.3384  -26.5427  -40.8953 H         1 UNK         0.0839 
    100 H100       26.2756  -28.7417  -38.3351 H         1 UNK         0.2998 
    101 H101       24.0099  -28.4478  -36.6160 H         1 UNK         0.0822 
    102 H102       26.3216  -28.7634  -35.7559 H         1 UNK         0.0787 
    103 H103       25.2773  -30.0417  -35.1580 H         1 UNK         0.0787 
    104 H104       26.3962  -30.3740  -36.4734 H         1 UNK         0.0787 
    105 H105       24.8064  -30.8216  -39.0679 H         1 UNK         0.3055 
    106 H106       23.0085  -32.9099  -38.2518 H         1 UNK         0.1106 
    107 H107       23.3939  -33.7413  -40.5725 H         1 UNK         0.0828 
    108 H108       24.9133  -33.2681  -39.8284 H         1 UNK         0.0828 
    109 H109       24.1436  -32.2138  -41.0123 H         1 UNK         0.0828 
    110 H110       22.3538  -29.7810  -39.6259 H         1 UNK         0.2931 
    111 H111       19.9346  -30.4997  -41.0256 H         1 UNK         0.0412 
    112 H112       18.7971  -29.9559  -37.1907 H         1 UNK         0.3472 
    113 H113       20.4665  -30.2491  -37.6179 H         1 UNK         0.3472 
    114 H114       19.6160  -28.1054  -41.3661 H         1 UNK         0.0970 
    115 H115       20.8236  -27.7135  -40.1612 H         1 UNK         0.0970 
    116 H116       22.1933  -26.2100  -41.4883 H         1 UNK         0.0612 
    117 H117       23.1895  -26.6308  -42.8603 H         1 UNK         0.0612 
@<TRIPOS>BOND
     1    1    2 1    
     2    1   62 1    
     3    1   63 1    
     4    1   64 1    
     5    2    3 2    
     6    2    4 am   BACKBONE|DICT|INTERRES
     7    4    5 1    
     8    4   65 1    
     9    5    6 1    
    10    5   25 1    
    11    5   66 1    
    12    6    7 1    
    13    6   67 1    
    14    6   68 1    
    15    7    8 1    
    16    8    9 1    
    17    8   69 1    
    18    8   70 1    
    19    9   10 ar   
    20    9   14 ar   
    21   10   11 ar   
    22   10   71 1    
    23   11   12 ar   
    24   11   61 1    
    25   12   13 ar   
    26   12   72 1    
    27   13   14 ar   
    28   13   15 1    
    29   14   73 1    
    30   15   16 1    
    31   15   74 1    
    32   15   75 1    
    33   16   17 1    
    34   17   18 1    
    35   17   76 1    
    36   17   77 1    
    37   18   19 1    
    38   18   27 1    
    39   18   78 1    
    40   19   20 am   BACKBONE|DICT|INTERRES
    41   19   79 1    
    42   20   21 2    
    43   20   22 1    
    44   22   23 1    
    45   22   24 1    
    46   22   80 1    
    47   23   81 1    
    48   23   82 1    
    49   23   83 1    
    50   24   25 am   BACKBONE|DICT|INTERRES
    51   24   84 1    
    52   25   26 2    
    53   27   28 2    
    54   27   29 am   BACKBONE|DICT|INTERRES
    55   29   30 1    
    56   29   85 1    
    57   30   31 1    
    58   30   32 1    
    59   30   86 1    
    60   31   87 1    
    61   31   88 1    
    62   31   89 1    
    63   32   33 2    
    64   32   34 am   BACKBONE|DICT|INTERRES
    65   34   35 1    
    66   34   90 1    
    67   35   36 1    
    68   35   37 1    
    69   35   91 1    
    70   36   92 1    
    71   36   93 1    
    72   36   94 1    
    73   37   38 2    
    74   37   39 am   BACKBONE|DICT|INTERRES
    75   39   40 1    
    76   39   95 1    
    77   40   41 1    
    78   40   42 1    
    79   40   96 1    
    80   41   97 1    
    81   41   98 1    
    82   41   99 1    
    83   42   43 2    
    84   42   44 am   BACKBONE|DICT|INTERRES
    85   44   45 1    
    86   44  100 1    
    87   45   46 1    
    88   45   47 1    
    89   45  101 1    
    90   46  102 1    
    91   46  103 1    
    92   46  104 1    
    93   47   48 2    
    94   47   49 am   BACKBONE|DICT|INTERRES
    95   49   50 1    
    96   49  105 1    
    97   50   51 1    
    98   50   52 1    
    99   50  106 1    
   100   51  107 1    
   101   51  108 1    
   102   51  109 1    
   103   52   53 2    
   104   52   54 am   BACKBONE|DICT|INTERRES
   105   54   55 1    
   106   54  110 1    
   107   55   56 1    
   108   55   59 1    
   109   55  111 1    
   110   56   57 am   BACKBONE|DICT|INTERRES
   111   56   58 2    
   112   57  112 1    
   113   57  113 1    
   114   59   60 1    
   115   59  114 1    
   116   59  115 1    
   117   60   61 1    
   118   61  116 1    
   119   61  117 1    
@<TRIPOS>SUBSTRUCTURE
     1 UNK         1 GROUP             0       ****    0 ROOT    
