@<TRIPOS>MOLECULE
3R8
117   119    1
SMALL
USER_CHARGES


@<TRIPOS>ATOM
      1 CA         23.6183  -25.3555  -46.9109 C.3       0 UNK        -0.2013 
      2 C          22.3664  -25.2450  -47.7773 C.2       0 UNK         0.4866 
      3 O          22.3644  -24.4700  -48.7317 O.2       0 UNK        -0.5176 
      4 N          21.2881  -25.9981  -47.5155 N.am      1 UNK        -0.4884 
      5 CA         21.0778  -26.8921  -46.3733 C.3       1 UNK         0.0853 
      6 C6         20.0212  -27.9809  -46.7115 C.3       10 UNK        -0.0849 
      7 S7         19.6869  -29.1471  -45.3453 S.3       10 UNK        -0.2776 
      8 C8         17.9477  -29.5787  -45.6706 C.3       10 UNK         0.0316 
      9 C9         17.4040  -30.4613  -44.5592 C.ar      10 UNK        -0.0863 
     10 C10        17.5311  -31.8509  -44.6348 C.ar      10 UNK        -0.1009 
     11 C11        17.0871  -32.6611  -43.5850 C.ar      10 UNK        -0.0712 
     12 C12        16.5207  -32.0697  -42.4513 C.ar      10 UNK        -0.0894 
     13 C13        16.3738  -30.6814  -42.3714 C.ar      10 UNK        -0.0745 
     14 C14        16.7942  -29.8859  -43.4413 C.ar      10 UNK        -0.0972 
     15 C15        15.7617  -30.0453  -41.1301 C.3       10 UNK         0.0209 
     16 S16        17.0375  -29.4454  -39.9708 S.3       10 UNK        -0.2568 
     17 C17        17.5264  -27.8618  -40.7336 C.3       10 UNK        -0.0983 
     18 CA         18.8629  -27.9663  -41.5267 C.3       3 UNK         0.0876 
     19 N          18.9110  -27.0109  -42.6344 N.am      3 UNK        -0.4424 
     20 C          18.9753  -25.6742  -42.5430 C.2       2 UNK         0.4918 
     21 O          19.0700  -25.0644  -41.4763 O.2       2 UNK        -0.4875 
     22 CA         18.8893  -24.8982  -43.8780 C.3       2 UNK         0.0481 
     23 CB         19.4372  -23.4578  -43.7958 C.3       2 UNK        -0.1831 
     24 N          19.4718  -25.6180  -45.0192 N.am      2 UNK        -0.4498 
     25 C          20.7365  -26.0565  -45.1226 C.2       1 UNK         0.5027 
     26 O          21.6086  -25.8361  -44.2835 O.2       1 UNK        -0.4969 
     27 C          20.1519  -27.9009  -40.6813 C.2       3 UNK         0.5005 
     28 O          21.2338  -28.1331  -41.2259 O.2       3 UNK        -0.5279 
     29 N          20.0307  -27.5727  -39.3870 N.am      4 UNK        -0.4463 
     30 CA         21.1101  -27.4754  -38.3970 C.3       4 UNK         0.0283 
     31 CB         20.4995  -27.1269  -37.0299 C.3       4 UNK        -0.1875 
     32 C          22.2448  -26.4910  -38.7425 C.2       4 UNK         0.4949 
     33 O          23.3184  -26.5962  -38.1500 O.2       4 UNK        -0.5039 
     34 N          22.0108  -25.5728  -39.6922 N.am      5 UNK        -0.4663 
     35 CA         23.0347  -24.6961  -40.2671 C.3       5 UNK         0.0242 
     36 CB         22.3639  -23.6715  -41.1918 C.3       5 UNK        -0.1982 
     37 C          24.1237  -25.4755  -41.0288 C.2       5 UNK         0.5017 
     38 O          25.2972  -25.1145  -40.9325 O.2       5 UNK        -0.5012 
     39 N          23.7195  -26.5359  -41.7419 N.am      6 UNK        -0.4439 
     40 CA         24.6195  -27.5066  -42.3660 C.3       6 UNK         0.0297 
     41 CB         24.0186  -27.9936  -43.6948 C.3       6 UNK        -0.2006 
     42 C          24.8755  -28.6952  -41.4281 C.2       6 UNK         0.4892 
     43 O          26.0199  -29.1396  -41.3267 O.2       6 UNK        -0.5089 
     44 N          23.8036  -29.1635  -40.7681 N.am      7 UNK        -0.4243 
     45 CA         23.6856  -30.3503  -39.9139 C.3       7 UNK         0.0196 
     46 CB         24.6998  -30.3277  -38.7528 C.3       7 UNK        -0.2007 
     47 C          23.7521  -31.6655  -40.7105 C.2       7 UNK         0.5020 
     48 O          24.2770  -31.7056  -41.8251 O.2       7 UNK        -0.5147 
     49 N          23.1738  -32.7262  -40.1260 N.am      8 UNK        -0.4734 
     50 CA         23.0918  -34.0963  -40.6633 C.3       8 UNK         0.0238 
     51 CB         24.4786  -34.7722  -40.6030 C.3       8 UNK        -0.1912 
     52 C          22.4526  -34.1856  -42.0678 C.2       8 UNK         0.5038 
     53 O          22.8356  -35.0483  -42.8605 O.2       8 UNK        -0.5046 
     54 N          21.5070  -33.2769  -42.3471 N.am      9 UNK        -0.4200 
     55 CA         20.8445  -33.0715  -43.6470 C.3       9 UNK         0.0839 
     56 C          21.7821  -32.5311  -44.7717 C.2       9 UNK         0.5513 
     57 N          22.9613  -32.0016  -44.4645 N.am      9 UNK        -0.7519 
     58 O          21.4285  -32.5712  -45.9475 O.2       9 UNK        -0.4960 
     59 C59        20.0021  -34.2979  -44.1073 C.3       10 UNK        -0.0876 
     60 S60        18.7324  -34.7864  -42.8884 S.3       10 UNK        -0.2414 
     61 C61        17.2086  -34.1755  -43.6741 C.3       10 UNK         0.0169 
     62 H62        23.9412  -26.3905  -46.8089 H         1 UNK         0.0903 
     63 H63        24.4416  -24.8036  -47.3640 H         1 UNK         0.0903 
     64 H64        23.4483  -24.9346  -45.9210 H         1 UNK         0.0903 
     65 H65        20.4905  -25.8913  -48.1264 H         1 UNK         0.3096 
     66 H66        22.0078  -27.4204  -46.1565 H         1 UNK         0.1121 
     67 H67        20.3681  -28.5689  -47.5631 H         1 UNK         0.0849 
     68 H68        19.0853  -27.5231  -47.0358 H         1 UNK         0.0849 
     69 H69        17.3475  -28.6712  -45.7540 H         1 UNK         0.0865 
     70 H70        17.8728  -30.0898  -46.6318 H         1 UNK         0.0865 
     71 H71        17.9901  -32.2987  -45.5055 H         1 UNK         0.1346 
     72 H72        16.1930  -32.6935  -41.6307 H         1 UNK         0.1412 
     73 H73        16.6769  -28.8129  -43.3902 H         1 UNK         0.1426 
     74 H74        15.0922  -29.2311  -41.4109 H         1 UNK         0.0716 
     75 H75        15.1398  -30.7749  -40.6090 H         1 UNK         0.0716 
     76 H76        17.5518  -27.0788  -39.9745 H         1 UNK         0.0695 
     77 H77        16.7221  -27.5537  -41.4025 H         1 UNK         0.0695 
     78 H78        18.9009  -28.9472  -42.0019 H         1 UNK         0.0983 
     79 H79        18.9230  -27.4212  -43.5572 H         1 UNK         0.3095 
     80 H80        17.8221  -24.8192  -44.0897 H         1 UNK         0.0454 
     81 H81        19.2030  -22.8996  -44.7020 H         1 UNK         0.0851 
     82 H82        20.5180  -23.4351  -43.6695 H         1 UNK         0.0851 
     83 H83        18.9973  -22.9102  -42.9615 H         1 UNK         0.0851 
     84 H84        18.8317  -25.8295  -45.7715 H         1 UNK         0.2976 
     85 H85        19.0980  -27.3971  -39.0412 H         1 UNK         0.3116 
     86 H86        21.5648  -28.4644  -38.3210 H         1 UNK         0.0646 
     87 H87        19.7727  -27.8758  -36.7147 H         1 UNK         0.0847 
     88 H88        21.2684  -27.0825  -36.2572 H         1 UNK         0.0847 
     89 H89        20.0000  -26.1574  -37.0470 H         1 UNK         0.0847 
     90 H90        21.0927  -25.5443  -40.1169 H         1 UNK         0.3040 
     91 H91        23.5189  -24.1603  -39.4476 H         1 UNK         0.1015 
     92 H92        21.8798  -24.1655  -42.0333 H         1 UNK         0.0786 
     93 H93        23.0955  -22.9724  -41.5990 H         1 UNK         0.0786 
     94 H94        21.6100  -23.0867  -40.6643 H         1 UNK         0.0786 
     95 H95        22.7317  -26.7672  -41.7469 H         1 UNK         0.3172 
     96 H96        25.5803  -27.0367  -42.5867 H         1 UNK         0.0595 
     97 H97        23.0194  -28.4118  -43.5625 H         1 UNK         0.0839 
     98 H98        24.6402  -28.7684  -44.1458 H         1 UNK         0.0839 
     99 H99        23.9488  -27.1767  -44.4114 H         1 UNK         0.0839 
    100 H100       22.9096  -28.7229  -40.9800 H         1 UNK         0.2998 
    101 H101       22.6849  -30.2898  -39.4840 H         1 UNK         0.0822 
    102 H102       24.4875  -31.1179  -38.0321 H         1 UNK         0.0787 
    103 H103       25.7222  -30.4782  -39.1002 H         1 UNK         0.0787 
    104 H104       24.6633  -29.3800  -38.2146 H         1 UNK         0.0787 
    105 H105       22.7509  -32.5945  -39.2166 H         1 UNK         0.3055 
    106 H106       22.4257  -34.6517  -40.0007 H         1 UNK         0.1106 
    107 H107       24.4154  -35.8268  -40.8742 H         1 UNK         0.0828 
    108 H108       25.1856  -34.3020  -41.2875 H         1 UNK         0.0828 
    109 H109       24.9011  -34.7238  -39.5995 H         1 UNK         0.0828 
    110 H110       21.2720  -32.6071  -41.6306 H         1 UNK         0.2931 
    111 H111       20.1455  -32.2529  -43.4731 H         1 UNK         0.0412 
    112 H112       23.5459  -31.6539  -45.2067 H         1 UNK         0.3472 
    113 H113       23.2934  -31.9647  -43.5056 H         1 UNK         0.3472 
    114 H114       20.6472  -35.1574  -44.2935 H         1 UNK         0.0970 
    115 H115       19.5137  -34.0950  -45.0610 H         1 UNK         0.0970 
    116 H116       16.3536  -34.6388  -43.1794 H         1 UNK         0.0612 
    117 H117       17.1691  -34.5053  -44.7134 H         1 UNK         0.0612 
@<TRIPOS>BOND
     1    1    2 1    
     2    1   62 1    
     3    1   63 1    
     4    1   64 1    
     5    2    3 2    
     6    2    4 am   BACKBONE|DICT|INTERRES
     7    4    5 1    
     8    4   65 1    
     9    5    6 1    
    10    5   25 1    
    11    5   66 1    
    12    6    7 1    
    13    6   67 1    
    14    6   68 1    
    15    7    8 1    
    16    8    9 1    
    17    8   69 1    
    18    8   70 1    
    19    9   10 ar   
    20    9   14 ar   
    21   10   11 ar   
    22   10   71 1    
    23   11   12 ar   
    24   11   61 1    
    25   12   13 ar   
    26   12   72 1    
    27   13   14 ar   
    28   13   15 1    
    29   14   73 1    
    30   15   16 1    
    31   15   74 1    
    32   15   75 1    
    33   16   17 1    
    34   17   18 1    
    35   17   76 1    
    36   17   77 1    
    37   18   19 1    
    38   18   27 1    
    39   18   78 1    
    40   19   20 am   BACKBONE|DICT|INTERRES
    41   19   79 1    
    42   20   21 2    
    43   20   22 1    
    44   22   23 1    
    45   22   24 1    
    46   22   80 1    
    47   23   81 1    
    48   23   82 1    
    49   23   83 1    
    50   24   25 am   BACKBONE|DICT|INTERRES
    51   24   84 1    
    52   25   26 2    
    53   27   28 2    
    54   27   29 am   BACKBONE|DICT|INTERRES
    55   29   30 1    
    56   29   85 1    
    57   30   31 1    
    58   30   32 1    
    59   30   86 1    
    60   31   87 1    
    61   31   88 1    
    62   31   89 1    
    63   32   33 2    
    64   32   34 am   BACKBONE|DICT|INTERRES
    65   34   35 1    
    66   34   90 1    
    67   35   36 1    
    68   35   37 1    
    69   35   91 1    
    70   36   92 1    
    71   36   93 1    
    72   36   94 1    
    73   37   38 2    
    74   37   39 am   BACKBONE|DICT|INTERRES
    75   39   40 1    
    76   39   95 1    
    77   40   41 1    
    78   40   42 1    
    79   40   96 1    
    80   41   97 1    
    81   41   98 1    
    82   41   99 1    
    83   42   43 2    
    84   42   44 am   BACKBONE|DICT|INTERRES
    85   44   45 1    
    86   44  100 1    
    87   45   46 1    
    88   45   47 1    
    89   45  101 1    
    90   46  102 1    
    91   46  103 1    
    92   46  104 1    
    93   47   48 2    
    94   47   49 am   BACKBONE|DICT|INTERRES
    95   49   50 1    
    96   49  105 1    
    97   50   51 1    
    98   50   52 1    
    99   50  106 1    
   100   51  107 1    
   101   51  108 1    
   102   51  109 1    
   103   52   53 2    
   104   52   54 am   BACKBONE|DICT|INTERRES
   105   54   55 1    
   106   54  110 1    
   107   55   56 1    
   108   55   59 1    
   109   55  111 1    
   110   56   57 am   BACKBONE|DICT|INTERRES
   111   56   58 2    
   112   57  112 1    
   113   57  113 1    
   114   59   60 1    
   115   59  114 1    
   116   59  115 1    
   117   60   61 1    
   118   61  116 1    
   119   61  117 1    
@<TRIPOS>SUBSTRUCTURE
     1 UNK         1 GROUP             0       ****    0 ROOT    
