@<TRIPOS>MOLECULE
3R8
117   119    1
SMALL
USER_CHARGES


@<TRIPOS>ATOM
      1 CA         18.7714  -24.6803  -38.8505 C.3       0 UNK        -0.2013 
      2 C          18.2659  -24.5993  -40.2834 C.2       0 UNK         0.4866 
      3 O          17.5769  -23.6413  -40.6367 O.2       0 UNK        -0.5176 
      4 N          18.5960  -25.5993  -41.1076 N.am      1 UNK        -0.4884 
      5 CA         18.2669  -25.6502  -42.5351 C.3       1 UNK         0.0853 
      6 C6         18.3683  -27.0925  -43.0889 C.3       10 UNK        -0.0849 
      7 S7         17.0295  -28.1669  -42.4734 S.3       10 UNK        -0.2776 
      8 C8         17.9443  -29.6810  -42.0147 C.3       10 UNK         0.0316 
      9 C9         18.7272  -30.3601  -43.1434 C.ar      10 UNK        -0.0863 
     10 C10        19.7214  -31.2757  -42.7935 C.ar      10 UNK        -0.1009 
     11 C11        20.4974  -31.9105  -43.7647 C.ar      10 UNK        -0.0712 
     12 C12        20.2921  -31.6069  -45.1122 C.ar      10 UNK        -0.0894 
     13 C13        19.3035  -30.6908  -45.4860 C.ar      10 UNK        -0.0745 
     14 C14        18.5028  -30.0998  -44.5023 C.ar      10 UNK        -0.0972 
     15 C15        19.1295  -30.3078  -46.9508 C.3       10 UNK         0.0209 
     16 S16        19.3873  -28.5229  -47.2457 S.3       10 UNK        -0.2568 
     17 C17        20.9930  -28.2306  -46.4257 C.3       10 UNK        -0.0983 
     18 CA         21.5057  -26.7765  -46.5810 C.3       3 UNK         0.0876 
     19 N          20.5082  -25.8007  -46.1313 N.am      3 UNK        -0.4424 
     20 C          20.5976  -24.4677  -46.2409 C.2       2 UNK         0.4918 
     21 O          21.5039  -23.8887  -46.8414 O.2       2 UNK        -0.4875 
     22 CA         19.4809  -23.6328  -45.5802 C.3       2 UNK         0.0481 
     23 CB         18.5151  -23.0926  -46.6473 C.3       2 UNK        -0.1831 
     24 N          18.7155  -24.3778  -44.5733 N.am      2 UNK        -0.4498 
     25 C          19.1714  -24.7064  -43.3550 C.2       1 UNK         0.5027 
     26 O          20.2617  -24.3394  -42.9104 O.2       1 UNK        -0.4969 
     27 C          22.8237  -26.6062  -45.7968 C.2       3 UNK         0.5005 
     28 O          22.7845  -26.2515  -44.6164 O.2       3 UNK        -0.5279 
     29 N          23.9592  -26.9107  -46.4424 N.am      4 UNK        -0.4463 
     30 CA         25.3197  -26.7265  -45.9126 C.3       4 UNK         0.0283 
     31 CB         26.3391  -27.1444  -46.9851 C.3       4 UNK        -0.1875 
     32 C          25.6220  -27.4455  -44.5823 C.2       4 UNK         0.4949 
     33 O          26.5034  -26.9998  -43.8473 O.2       4 UNK        -0.5039 
     34 N          24.8895  -28.5286  -44.2901 N.am      5 UNK        -0.4663 
     35 CA         24.9574  -29.2621  -43.0240 C.3       5 UNK         0.0242 
     36 CB         24.2376  -30.6086  -43.1910 C.3       5 UNK        -0.1982 
     37 C          24.3595  -28.4916  -41.8314 C.2       5 UNK         0.5017 
     38 O          24.7976  -28.7174  -40.7023 O.2       5 UNK        -0.5012 
     39 N          23.3789  -27.6138  -42.0995 N.am      6 UNK        -0.4439 
     40 CA         22.5762  -26.8057  -41.1717 C.3       6 UNK         0.0297 
     41 CB         23.4396  -25.7541  -40.4486 C.3       6 UNK        -0.2006 
     42 C          21.7277  -27.6214  -40.1781 C.2       6 UNK         0.4892 
     43 O          20.5017  -27.5056  -40.1942 O.2       6 UNK        -0.5089 
     44 N          22.3889  -28.4084  -39.3229 N.am      7 UNK        -0.4243 
     45 CA         21.7763  -29.2911  -38.3320 C.3       7 UNK         0.0196 
     46 CB         22.8390  -29.6787  -37.2911 C.3       7 UNK        -0.2007 
     47 C          21.1850  -30.5473  -38.9892 C.2       7 UNK         0.5020 
     48 O          21.6643  -30.9739  -40.0412 O.2       7 UNK        -0.5147 
     49 N          20.1674  -31.1260  -38.3382 N.am      8 UNK        -0.4734 
     50 CA         19.4521  -32.3277  -38.7749 C.3       8 UNK         0.0238 
     51 CB         18.2749  -32.5909  -37.8204 C.3       8 UNK        -0.1912 
     52 C          20.3698  -33.5608  -38.8674 C.2       8 UNK         0.5038 
     53 O          20.8942  -34.0052  -37.8439 O.2       8 UNK        -0.5046 
     54 N          20.5283  -34.0859  -40.0866 N.am      9 UNK        -0.4200 
     55 CA         21.2795  -35.3097  -40.4074 C.3       9 UNK         0.0839 
     56 C          20.4521  -36.6214  -40.2684 C.2       9 UNK         0.5513 
     57 N          19.1574  -36.5693  -39.9767 N.am      9 UNK        -0.7519 
     58 O          21.0016  -37.7111  -40.4087 O.2       9 UNK        -0.4960 
     59 C59        21.9889  -35.2003  -41.7881 C.3       10 UNK        -0.0876 
     60 S60        20.9110  -34.5722  -43.1285 S.3       10 UNK        -0.2414 
     61 C61        21.5778  -32.8915  -43.3405 C.3       10 UNK         0.0169 
     62 H62        19.2871  -25.6198  -38.6526 H         1 UNK         0.0903 
     63 H63        19.4648  -23.8637  -38.6512 H         1 UNK         0.0903 
     64 H64        17.9383  -24.5997  -38.1527 H         1 UNK         0.0903 
     65 H65        19.2034  -26.3448  -40.7698 H         1 UNK         0.3096 
     66 H66        17.2389  -25.3007  -42.6579 H         1 UNK         0.1121 
     67 H67        18.2949  -27.1056  -44.1775 H         1 UNK         0.0849 
     68 H68        19.3415  -27.5262  -42.8479 H         1 UNK         0.0849 
     69 H69        18.6278  -29.4273  -41.2018 H         1 UNK         0.0865 
     70 H70        17.2342  -30.4006  -41.6053 H         1 UNK         0.0865 
     71 H71        19.9053  -31.4885  -41.7529 H         1 UNK         0.1346 
     72 H72        20.9108  -32.0747  -45.8658 H         1 UNK         0.1412 
     73 H73        17.7345  -29.4049  -44.8087 H         1 UNK         0.1426 
     74 H74        18.1244  -30.5802  -47.2754 H         1 UNK         0.0716 
     75 H75        19.8203  -30.8682  -47.5827 H         1 UNK         0.0716 
     76 H76        20.8858  -28.4765  -45.3670 H         1 UNK         0.0695 
     77 H77        21.7160  -28.9387  -46.8353 H         1 UNK         0.0695 
     78 H78        21.7023  -26.5803  -47.6372 H         1 UNK         0.0983 
     79 H79        19.7207  -26.1840  -45.6355 H         1 UNK         0.3095 
     80 H80        19.9557  -22.7804  -45.0897 H         1 UNK         0.0454 
     81 H81        19.0490  -22.5021  -47.3933 H         1 UNK         0.0851 
     82 H82        18.0036  -23.8978  -47.1762 H         1 UNK         0.0851 
     83 H83        17.7579  -22.4438  -46.2069 H         1 UNK         0.0851 
     84 H84        17.8010  -24.7012  -44.8571 H         1 UNK         0.2976 
     85 H85        23.8975  -27.2242  -47.4011 H         1 UNK         0.3116 
     86 H86        25.4446  -25.6577  -45.7264 H         1 UNK         0.0646 
     87 H87        27.3609  -26.9919  -46.6341 H         1 UNK         0.0847 
     88 H88        26.2237  -26.5573  -47.8963 H         1 UNK         0.0847 
     89 H89        26.2401  -28.1985  -47.2473 H         1 UNK         0.0847 
     90 H90        24.1999  -28.8322  -44.9615 H         1 UNK         0.3040 
     91 H91        26.0077  -29.4570  -42.7950 H         1 UNK         0.1015 
     92 H92        24.6976  -31.2144  -43.9719 H         1 UNK         0.0786 
     93 H93        23.1866  -30.4675  -43.4458 H         1 UNK         0.0786 
     94 H94        24.2729  -31.1883  -42.2671 H         1 UNK         0.0786 
     95 H95        23.1570  -27.4500  -43.0778 H         1 UNK         0.3172 
     96 H96        21.8725  -26.2619  -41.8037 H         1 UNK         0.0595 
     97 H97        23.9429  -25.1026  -41.1631 H         1 UNK         0.0839 
     98 H98        24.2027  -26.2090  -39.8166 H         1 UNK         0.0839 
     99 H99        22.8238  -25.1192  -39.8102 H         1 UNK         0.0839 
    100 H100       23.3859  -28.5207  -39.4863 H         1 UNK         0.2998 
    101 H101       20.9738  -28.7434  -37.8329 H         1 UNK         0.0822 
    102 H102       23.2470  -28.7984  -36.7941 H         1 UNK         0.0787 
    103 H103       22.4163  -30.3208  -36.5171 H         1 UNK         0.0787 
    104 H104       23.6685  -30.2208  -37.7477 H         1 UNK         0.0787 
    105 H105       19.8707  -30.7269  -37.4591 H         1 UNK         0.3055 
    106 H106       19.0319  -32.1227  -39.7604 H         1 UNK         0.1106 
    107 H107       18.6130  -32.7601  -36.7971 H         1 UNK         0.0828 
    108 H108       17.5762  -31.7541  -37.8093 H         1 UNK         0.0828 
    109 H109       17.7134  -33.4746  -38.1266 H         1 UNK         0.0828 
    110 H110       20.0701  -33.6580  -40.8773 H         1 UNK         0.2931 
    111 H111       22.0747  -35.4091  -39.6660 H         1 UNK         0.0412 
    112 H112       18.6384  -37.4286  -39.8831 H         1 UNK         0.3472 
    113 H113       18.6930  -35.6843  -39.8565 H         1 UNK         0.3472 
    114 H114       22.4008  -36.1629  -42.0971 H         1 UNK         0.0970 
    115 H115       22.8585  -34.5492  -41.6901 H         1 UNK         0.0970 
    116 H116       22.3864  -32.9166  -44.0724 H         1 UNK         0.0612 
    117 H117       22.0189  -32.5432  -42.4051 H         1 UNK         0.0612 
@<TRIPOS>BOND
     1    1    2 1    
     2    1   62 1    
     3    1   63 1    
     4    1   64 1    
     5    2    3 2    
     6    2    4 am   BACKBONE|DICT|INTERRES
     7    4    5 1    
     8    4   65 1    
     9    5    6 1    
    10    5   25 1    
    11    5   66 1    
    12    6    7 1    
    13    6   67 1    
    14    6   68 1    
    15    7    8 1    
    16    8    9 1    
    17    8   69 1    
    18    8   70 1    
    19    9   10 ar   
    20    9   14 ar   
    21   10   11 ar   
    22   10   71 1    
    23   11   12 ar   
    24   11   61 1    
    25   12   13 ar   
    26   12   72 1    
    27   13   14 ar   
    28   13   15 1    
    29   14   73 1    
    30   15   16 1    
    31   15   74 1    
    32   15   75 1    
    33   16   17 1    
    34   17   18 1    
    35   17   76 1    
    36   17   77 1    
    37   18   19 1    
    38   18   27 1    
    39   18   78 1    
    40   19   20 am   BACKBONE|DICT|INTERRES
    41   19   79 1    
    42   20   21 2    
    43   20   22 1    
    44   22   23 1    
    45   22   24 1    
    46   22   80 1    
    47   23   81 1    
    48   23   82 1    
    49   23   83 1    
    50   24   25 am   BACKBONE|DICT|INTERRES
    51   24   84 1    
    52   25   26 2    
    53   27   28 2    
    54   27   29 am   BACKBONE|DICT|INTERRES
    55   29   30 1    
    56   29   85 1    
    57   30   31 1    
    58   30   32 1    
    59   30   86 1    
    60   31   87 1    
    61   31   88 1    
    62   31   89 1    
    63   32   33 2    
    64   32   34 am   BACKBONE|DICT|INTERRES
    65   34   35 1    
    66   34   90 1    
    67   35   36 1    
    68   35   37 1    
    69   35   91 1    
    70   36   92 1    
    71   36   93 1    
    72   36   94 1    
    73   37   38 2    
    74   37   39 am   BACKBONE|DICT|INTERRES
    75   39   40 1    
    76   39   95 1    
    77   40   41 1    
    78   40   42 1    
    79   40   96 1    
    80   41   97 1    
    81   41   98 1    
    82   41   99 1    
    83   42   43 2    
    84   42   44 am   BACKBONE|DICT|INTERRES
    85   44   45 1    
    86   44  100 1    
    87   45   46 1    
    88   45   47 1    
    89   45  101 1    
    90   46  102 1    
    91   46  103 1    
    92   46  104 1    
    93   47   48 2    
    94   47   49 am   BACKBONE|DICT|INTERRES
    95   49   50 1    
    96   49  105 1    
    97   50   51 1    
    98   50   52 1    
    99   50  106 1    
   100   51  107 1    
   101   51  108 1    
   102   51  109 1    
   103   52   53 2    
   104   52   54 am   BACKBONE|DICT|INTERRES
   105   54   55 1    
   106   54  110 1    
   107   55   56 1    
   108   55   59 1    
   109   55  111 1    
   110   56   57 am   BACKBONE|DICT|INTERRES
   111   56   58 2    
   112   57  112 1    
   113   57  113 1    
   114   59   60 1    
   115   59  114 1    
   116   59  115 1    
   117   60   61 1    
   118   61  116 1    
   119   61  117 1    
@<TRIPOS>SUBSTRUCTURE
     1 UNK         1 GROUP             0       ****    0 ROOT    
