@<TRIPOS>MOLECULE
3R8
117   119    1
SMALL
USER_CHARGES


@<TRIPOS>ATOM
      1 CA         16.8620  -27.1385  -42.1943 C.3       0 UNK        -0.2013 
      2 C          16.4209  -25.7058  -42.4815 C.2       0 UNK         0.4866 
      3 O          15.6401  -25.1664  -41.6996 O.2       0 UNK        -0.5176 
      4 N          16.8449  -25.0336  -43.5633 N.am      1 UNK        -0.4884 
      5 CA         17.7994  -25.3889  -44.6266 C.3       1 UNK         0.0853 
      6 C6         17.5137  -26.7261  -45.3610 C.3       10 UNK        -0.0849 
      7 S7         15.8914  -26.7870  -46.1995 S.3       10 UNK        -0.2776 
      8 C8         15.0871  -28.2814  -45.5064 C.3       10 UNK         0.0316 
      9 C9         16.0012  -29.4975  -45.3404 C.ar      10 UNK        -0.0863 
     10 C10        15.8645  -30.3063  -44.2066 C.ar      10 UNK        -0.1009 
     11 C11        16.7194  -31.3901  -43.9817 C.ar      10 UNK        -0.0712 
     12 C12        17.7130  -31.6703  -44.9285 C.ar      10 UNK        -0.0894 
     13 C13        17.8850  -30.8546  -46.0484 C.ar      10 UNK        -0.0745 
     14 C14        17.0017  -29.7969  -46.2729 C.ar      10 UNK        -0.0972 
     15 C15        19.0785  -31.0718  -46.9672 C.3       10 UNK         0.0209 
     16 S16        20.3931  -29.8346  -46.6754 S.3       10 UNK        -0.2568 
     17 C17        20.6774  -29.9646  -44.8723 C.3       10 UNK        -0.0983 
     18 CA         21.7183  -28.9532  -44.3290 C.3       3 UNK         0.0876 
     19 N          21.4357  -27.5836  -44.7693 N.am      3 UNK        -0.4424 
     20 C          22.1858  -26.5037  -44.5116 C.2       2 UNK         0.4918 
     21 O          23.2547  -26.5472  -43.9064 O.2       2 UNK        -0.4875 
     22 CA         21.6308  -25.1376  -44.9561 C.3       2 UNK         0.0481 
     23 CB         22.3141  -24.6838  -46.2548 C.3       2 UNK        -0.1831 
     24 N          20.1735  -25.1190  -45.1366 N.am      2 UNK        -0.4498 
     25 C          19.2711  -25.3311  -44.1658 C.2       1 UNK         0.5027 
     26 O          19.5801  -25.5422  -42.9903 O.2       1 UNK        -0.4969 
     27 C          21.8103  -29.0663  -42.7902 C.2       3 UNK         0.5005 
     28 O          22.6247  -29.8411  -42.2870 O.2       3 UNK        -0.5279 
     29 N          20.9958  -28.2836  -42.0641 N.am      4 UNK        -0.4463 
     30 CA         21.0331  -28.2098  -40.6021 C.3       4 UNK         0.0283 
     31 CB         19.7061  -27.6595  -40.0619 C.3       4 UNK        -0.1875 
     32 C          22.2220  -27.3829  -40.0925 C.2       4 UNK         0.4949 
     33 O          22.8371  -27.7703  -39.1006 O.2       4 UNK        -0.5039 
     34 N          22.5606  -26.2925  -40.7971 N.am      5 UNK        -0.4663 
     35 CA         23.7350  -25.4570  -40.5127 C.3       5 UNK         0.0242 
     36 CB         23.6703  -24.1670  -41.3461 C.3       5 UNK        -0.1982 
     37 C          25.0605  -26.2027  -40.7530 C.2       5 UNK         0.5017 
     38 O          26.0061  -26.0287  -39.9846 O.2       5 UNK        -0.5012 
     39 N          25.0798  -27.0581  -41.7841 N.am      6 UNK        -0.4439 
     40 CA         26.1580  -27.9981  -42.1007 C.3       6 UNK         0.0297 
     41 CB         25.9731  -28.4842  -43.5484 C.3       6 UNK        -0.2006 
     42 C          26.2399  -29.2037  -41.1410 C.2       6 UNK         0.4892 
     43 O          27.2016  -29.9670  -41.2354 O.2       6 UNK        -0.5089 
     44 N          25.2385  -29.3675  -40.2611 N.am      7 UNK        -0.4243 
     45 CA         25.0605  -30.4544  -39.2900 C.3       7 UNK         0.0196 
     46 CB         26.2009  -30.4680  -38.2496 C.3       7 UNK        -0.2007 
     47 C          24.8211  -31.8334  -39.9372 C.2       7 UNK         0.5020 
     48 O          25.0763  -32.8579  -39.3028 O.2       7 UNK        -0.5147 
     49 N          24.3033  -31.8441  -41.1721 N.am      8 UNK        -0.4734 
     50 CA         23.8943  -33.0500  -41.8949 C.3       8 UNK         0.0238 
     51 CB         24.0636  -32.8110  -43.4048 C.3       8 UNK        -0.1912 
     52 C          22.4427  -33.4440  -41.5744 C.2       8 UNK         0.5038 
     53 O          22.1001  -34.6198  -41.7024 O.2       8 UNK        -0.5046 
     54 N          21.6257  -32.4620  -41.1728 N.am      9 UNK        -0.4200 
     55 CA         20.1970  -32.6056  -40.8561 C.3       9 UNK         0.0839 
     56 C          19.7854  -31.8483  -39.5613 C.2       9 UNK         0.5513 
     57 N          20.7162  -31.5279  -38.6698 N.am      9 UNK        -0.7519 
     58 O          18.6134  -31.5487  -39.3523 O.2       9 UNK        -0.4960 
     59 C59        19.3205  -32.2604  -42.0923 C.3       10 UNK        -0.0876 
     60 S60        17.8848  -33.3732  -42.2828 S.3       10 UNK        -0.2414 
     61 C61        16.5437  -32.1986  -42.6913 C.3       10 UNK         0.0169 
     62 H62        16.2269  -27.8415  -42.7281 H         1 UNK         0.0903 
     63 H63        17.8968  -27.3294  -42.4622 H         1 UNK         0.0903 
     64 H64        16.7609  -27.3507  -41.1305 H         1 UNK         0.0903 
     65 H65        16.4938  -24.0906  -43.6565 H         1 UNK         0.3096 
     66 H66        17.6883  -24.5902  -45.3626 H         1 UNK         0.1121 
     67 H67        17.6361  -27.5726  -44.6901 H         1 UNK         0.0849 
     68 H68        18.2527  -26.8891  -46.1479 H         1 UNK         0.0849 
     69 H69        14.6453  -28.0069  -44.5476 H         1 UNK         0.0865 
     70 H70        14.2541  -28.5592  -46.1533 H         1 UNK         0.0865 
     71 H71        15.0982  -30.0791  -43.4776 H         1 UNK         0.1346 
     72 H72        18.3924  -32.4967  -44.7847 H         1 UNK         0.1412 
     73 H73        17.1370  -29.1695  -47.1433 H         1 UNK         0.1426 
     74 H74        18.7561  -31.0115  -48.0076 H         1 UNK         0.0716 
     75 H75        19.4944  -32.0715  -46.8322 H         1 UNK         0.0716 
     76 H76        20.9915  -30.9864  -44.6520 H         1 UNK         0.0695 
     77 H77        19.7232  -29.8133  -44.3649 H         1 UNK         0.0695 
     78 H78        22.6975  -29.2227  -44.7300 H         1 UNK         0.0983 
     79 H79        20.6016  -27.4670  -45.3236 H         1 UNK         0.3095 
     80 H80        21.8756  -24.4175  -44.1728 H         1 UNK         0.0454 
     81 H81        23.3986  -24.6616  -46.1373 H         1 UNK         0.0851 
     82 H82        22.0022  -23.6786  -46.5386 H         1 UNK         0.0851 
     83 H83        22.0911  -25.3538  -47.0861 H         1 UNK         0.0851 
     84 H84        19.8462  -24.9509  -46.0779 H         1 UNK         0.2976 
     85 H85        20.3870  -27.6304  -42.5404 H         1 UNK         0.3116 
     86 H86        21.1531  -29.2206  -40.2097 H         1 UNK         0.0646 
     87 H87        19.4804  -26.6699  -40.4608 H         1 UNK         0.0847 
     88 H88        18.8795  -28.3261  -40.3067 H         1 UNK         0.0847 
     89 H89        19.7342  -27.5742  -38.9748 H         1 UNK         0.0847 
     90 H90        22.0072  -26.0464  -41.6055 H         1 UNK         0.3040 
     91 H91        23.7010  -25.1821  -39.4559 H         1 UNK         0.1015 
     92 H92        24.4996  -23.5035  -41.0970 H         1 UNK         0.0786 
     93 H93        22.7483  -23.6168  -41.1571 H         1 UNK         0.0786 
     94 H94        23.7287  -24.3686  -42.4157 H         1 UNK         0.0786 
     95 H95        24.2841  -27.0515  -42.4183 H         1 UNK         0.3172 
     96 H96        27.1074  -27.4630  -42.0358 H         1 UNK         0.0595 
     97 H97        25.0443  -29.0430  -43.6688 H         1 UNK         0.0839 
     98 H98        26.7898  -29.1417  -43.8495 H         1 UNK         0.0839 
     99 H99        25.9551  -27.6496  -44.2496 H         1 UNK         0.0839 
    100 H100       24.4985  -28.6766  -40.2620 H         1 UNK         0.2998 
    101 H101       24.1393  -30.2200  -38.7547 H         1 UNK         0.0822 
    102 H102       25.9808  -31.1608  -37.4365 H         1 UNK         0.0787 
    103 H103       27.1492  -30.7772  -38.6898 H         1 UNK         0.0787 
    104 H104       26.3419  -29.4832  -37.8040 H         1 UNK         0.0787 
    105 H105       24.0549  -30.9577  -41.6037 H         1 UNK         0.3055 
    106 H106       24.5371  -33.8848  -41.6056 H         1 UNK         0.1106 
    107 H107       25.0955  -32.5616  -43.6524 H         1 UNK         0.0828 
    108 H108       23.8010  -33.7047  -43.9725 H         1 UNK         0.0828 
    109 H109       23.4283  -32.0000  -43.7624 H         1 UNK         0.0828 
    110 H110       21.9936  -31.5187  -41.1437 H         1 UNK         0.2931 
    111 H111       20.0282  -33.6536  -40.6021 H         1 UNK         0.0412 
    112 H112       20.4427  -31.0437  -37.8292 H         1 UNK         0.3472 
    113 H113       21.6709  -31.8218  -38.7945 H         1 UNK         0.3472 
    114 H114       19.9067  -32.3688  -43.0048 H         1 UNK         0.0970 
    115 H115       19.0013  -31.2162  -42.0749 H         1 UNK         0.0970 
    116 H116       15.6114  -32.7601  -42.7616 H         1 UNK         0.0612 
    117 H117       16.4293  -31.5130  -41.8499 H         1 UNK         0.0612 
@<TRIPOS>BOND
     1    1    2 1    
     2    1   62 1    
     3    1   63 1    
     4    1   64 1    
     5    2    3 2    
     6    2    4 am   BACKBONE|DICT|INTERRES
     7    4    5 1    
     8    4   65 1    
     9    5    6 1    
    10    5   25 1    
    11    5   66 1    
    12    6    7 1    
    13    6   67 1    
    14    6   68 1    
    15    7    8 1    
    16    8    9 1    
    17    8   69 1    
    18    8   70 1    
    19    9   10 ar   
    20    9   14 ar   
    21   10   11 ar   
    22   10   71 1    
    23   11   12 ar   
    24   11   61 1    
    25   12   13 ar   
    26   12   72 1    
    27   13   14 ar   
    28   13   15 1    
    29   14   73 1    
    30   15   16 1    
    31   15   74 1    
    32   15   75 1    
    33   16   17 1    
    34   17   18 1    
    35   17   76 1    
    36   17   77 1    
    37   18   19 1    
    38   18   27 1    
    39   18   78 1    
    40   19   20 am   BACKBONE|DICT|INTERRES
    41   19   79 1    
    42   20   21 2    
    43   20   22 1    
    44   22   23 1    
    45   22   24 1    
    46   22   80 1    
    47   23   81 1    
    48   23   82 1    
    49   23   83 1    
    50   24   25 am   BACKBONE|DICT|INTERRES
    51   24   84 1    
    52   25   26 2    
    53   27   28 2    
    54   27   29 am   BACKBONE|DICT|INTERRES
    55   29   30 1    
    56   29   85 1    
    57   30   31 1    
    58   30   32 1    
    59   30   86 1    
    60   31   87 1    
    61   31   88 1    
    62   31   89 1    
    63   32   33 2    
    64   32   34 am   BACKBONE|DICT|INTERRES
    65   34   35 1    
    66   34   90 1    
    67   35   36 1    
    68   35   37 1    
    69   35   91 1    
    70   36   92 1    
    71   36   93 1    
    72   36   94 1    
    73   37   38 2    
    74   37   39 am   BACKBONE|DICT|INTERRES
    75   39   40 1    
    76   39   95 1    
    77   40   41 1    
    78   40   42 1    
    79   40   96 1    
    80   41   97 1    
    81   41   98 1    
    82   41   99 1    
    83   42   43 2    
    84   42   44 am   BACKBONE|DICT|INTERRES
    85   44   45 1    
    86   44  100 1    
    87   45   46 1    
    88   45   47 1    
    89   45  101 1    
    90   46  102 1    
    91   46  103 1    
    92   46  104 1    
    93   47   48 2    
    94   47   49 am   BACKBONE|DICT|INTERRES
    95   49   50 1    
    96   49  105 1    
    97   50   51 1    
    98   50   52 1    
    99   50  106 1    
   100   51  107 1    
   101   51  108 1    
   102   51  109 1    
   103   52   53 2    
   104   52   54 am   BACKBONE|DICT|INTERRES
   105   54   55 1    
   106   54  110 1    
   107   55   56 1    
   108   55   59 1    
   109   55  111 1    
   110   56   57 am   BACKBONE|DICT|INTERRES
   111   56   58 2    
   112   57  112 1    
   113   57  113 1    
   114   59   60 1    
   115   59  114 1    
   116   59  115 1    
   117   60   61 1    
   118   61  116 1    
   119   61  117 1    
@<TRIPOS>SUBSTRUCTURE
     1 UNK         1 GROUP             0       ****    0 ROOT    
