@<TRIPOS>MOLECULE
3R8
117   119    1
SMALL
USER_CHARGES


@<TRIPOS>ATOM
      1 CA         24.1925  -26.5710  -45.5947 C.3       0 UNK        -0.2013 
      2 C          22.7122  -26.3531  -45.8678 C.2       0 UNK         0.4866 
      3 O          22.3089  -25.2368  -46.1960 O.2       0 UNK        -0.5176 
      4 N          21.9113  -27.4181  -45.7383 N.am      1 UNK        -0.4884 
      5 CA         20.4534  -27.4451  -45.9108 C.3       1 UNK         0.0853 
      6 C6         19.9814  -27.1480  -47.3694 C.3       10 UNK        -0.0849 
      7 S7         20.3642  -28.5217  -48.5017 S.3       10 UNK        -0.2776 
      8 C8         18.7825  -29.4416  -48.4794 C.3       10 UNK         0.0316 
      9 C9         18.4811  -30.0434  -47.1102 C.ar      10 UNK        -0.0863 
     10 C10        19.3781  -30.9530  -46.5481 C.ar      10 UNK        -0.1009 
     11 C11        19.1419  -31.4976  -45.2868 C.ar      10 UNK        -0.0712 
     12 C12        17.9706  -31.1629  -44.5996 C.ar      10 UNK        -0.0894 
     13 C13        17.0469  -30.2599  -45.1484 C.ar      10 UNK        -0.0745 
     14 C14        17.3202  -29.7003  -46.4048 C.ar      10 UNK        -0.0972 
     15 C15        15.7251  -29.8940  -44.4548 C.3       10 UNK         0.0209 
     16 S16        15.4967  -30.5341  -42.7517 S.3       10 UNK        -0.2568 
     17 C17        15.9403  -29.1509  -41.6371 C.3       10 UNK        -0.0983 
     18 CA         17.3900  -28.6220  -41.8283 C.3       3 UNK         0.0876 
     19 N          17.5047  -27.6894  -42.9550 N.am      3 UNK        -0.4424 
     20 C          17.0449  -26.4291  -43.0174 C.2       2 UNK         0.4918 
     21 O          16.3142  -25.9232  -42.1652 O.2       2 UNK        -0.4875 
     22 CA         17.4916  -25.5757  -44.2234 C.3       2 UNK         0.0481 
     23 CB         18.0060  -24.1915  -43.7762 C.3       2 UNK        -0.1831 
     24 N          18.4681  -26.2320  -45.1068 N.am      2 UNK        -0.4498 
     25 C          19.7171  -26.6362  -44.8180 C.2       1 UNK         0.5027 
     26 O          20.2329  -26.4921  -43.7061 O.2       1 UNK        -0.4969 
     27 C          18.0589  -28.0410  -40.5531 C.2       3 UNK         0.5005 
     28 O          17.6043  -28.2867  -39.4339 O.2       3 UNK        -0.5279 
     29 N          19.1338  -27.2645  -40.7599 N.am      4 UNK        -0.4463 
     30 CA         19.9743  -26.6629  -39.7275 C.3       4 UNK         0.0283 
     31 CB         20.4869  -25.3121  -40.2599 C.3       4 UNK        -0.1875 
     32 C          21.1472  -27.5942  -39.3835 C.2       4 UNK         0.4949 
     33 O          21.3341  -28.6203  -40.0351 O.2       4 UNK        -0.5039 
     34 N          21.9510  -27.2035  -38.3850 N.am      5 UNK        -0.4663 
     35 CA         23.1511  -27.9337  -37.9513 C.3       5 UNK         0.0242 
     36 CB         23.6909  -27.2956  -36.6613 C.3       5 UNK        -0.1982 
     37 C          24.2641  -28.0189  -39.0159 C.2       5 UNK         0.5017 
     38 O          25.1063  -28.9150  -38.9343 O.2       5 UNK        -0.5012 
     39 N          24.2456  -27.1009  -39.9937 N.am      6 UNK        -0.4439 
     40 CA         25.1240  -27.0856  -41.1641 C.3       6 UNK         0.0297 
     41 CB         24.8196  -25.8396  -42.0105 C.3       6 UNK        -0.2006 
     42 C          24.9613  -28.3655  -42.0017 C.2       6 UNK         0.4892 
     43 O          23.8325  -28.7565  -42.3014 O.2       6 UNK        -0.5089 
     44 N          26.0944  -29.0026  -42.3286 N.am      7 UNK        -0.4243 
     45 CA         26.2111  -30.3033  -43.0067 C.3       7 UNK         0.0196 
     46 CB         25.6543  -30.2301  -44.4457 C.3       7 UNK        -0.2007 
     47 C          25.6190  -31.4864  -42.2067 C.2       7 UNK         0.5020 
     48 O          25.3716  -32.5421  -42.7904 O.2       7 UNK        -0.5147 
     49 N          25.4207  -31.3008  -40.8904 N.am      8 UNK        -0.4734 
     50 CA         24.8319  -32.2455  -39.9313 C.3       8 UNK         0.0238 
     51 CB         25.7359  -33.4839  -39.7476 C.3       8 UNK        -0.1912 
     52 C          23.3661  -32.6122  -40.2452 C.2       8 UNK         0.5038 
     53 O          22.9306  -33.7172  -39.9160 O.2       8 UNK        -0.5046 
     54 N          22.6279  -31.6787  -40.8590 N.am      9 UNK        -0.4200 
     55 CA         21.2119  -31.8251  -41.2309 C.3       9 UNK         0.0839 
     56 C          20.1970  -31.6754  -40.0569 C.2       9 UNK         0.5513 
     57 N          20.6234  -31.4947  -38.8126 N.am      9 UNK        -0.7519 
     58 O          18.9914  -31.7532  -40.2787 O.2       9 UNK        -0.4960 
     59 C59        20.8603  -30.9127  -42.4349 C.3       10 UNK        -0.0876 
     60 S60        21.5842  -31.5352  -43.9868 S.3       10 UNK        -0.2414 
     61 C61        20.1652  -32.4451  -44.6789 C.3       10 UNK         0.0169 
     62 H62        24.6268  -25.6833  -45.1363 H         1 UNK         0.0903 
     63 H63        24.3555  -27.4128  -44.9222 H         1 UNK         0.0903 
     64 H64        24.7222  -26.7657  -46.5268 H         1 UNK         0.0903 
     65 H65        22.3142  -28.2924  -45.4304 H         1 UNK         0.3096 
     66 H66        20.1776  -28.4720  -45.6760 H         1 UNK         0.1121 
     67 H67        20.4440  -26.2376  -47.7524 H         1 UNK         0.0849 
     68 H68        18.9082  -26.9795  -47.4486 H         1 UNK         0.0849 
     69 H69        17.9746  -28.7858  -48.8076 H         1 UNK         0.0865 
     70 H70        18.8352  -30.2475  -49.2127 H         1 UNK         0.0865 
     71 H71        20.2808  -31.2162  -47.0832 H         1 UNK         0.1346 
     72 H72        17.7883  -31.6196  -43.6378 H         1 UNK         0.1412 
     73 H73        16.6139  -29.0080  -46.8431 H         1 UNK         0.1426 
     74 H74        14.9168  -30.3047  -45.0611 H         1 UNK         0.0716 
     75 H75        15.5776  -28.8140  -44.4626 H         1 UNK         0.0716 
     76 H76        15.2058  -28.3519  -41.7443 H         1 UNK         0.0695 
     77 H77        15.7977  -29.5435  -40.6293 H         1 UNK         0.0695 
     78 H78        18.0133  -29.4797  -42.0768 H         1 UNK         0.0983 
     79 H79        18.0796  -28.0068  -43.7201 H         1 UNK         0.3095 
     80 H80        16.5977  -25.4176  -44.8282 H         1 UNK         0.0454 
     81 H81        18.8635  -24.2724  -43.1075 H         1 UNK         0.0851 
     82 H82        17.2322  -23.6388  -43.2422 H         1 UNK         0.0851 
     83 H83        18.3035  -23.5834  -44.6303 H         1 UNK         0.0851 
     84 H84        18.1233  -26.4209  -46.0374 H         1 UNK         0.2976 
     85 H85        19.4630  -27.1435  -41.7108 H         1 UNK         0.3116 
     86 H86        19.3877  -26.4918  -38.8226 H         1 UNK         0.0646 
     87 H87        21.1181  -25.4388  -41.1411 H         1 UNK         0.0847 
     88 H88        21.0729  -24.7807  -39.5095 H         1 UNK         0.0847 
     89 H89        19.6591  -24.6592  -40.5376 H         1 UNK         0.0847 
     90 H90        21.7342  -26.3512  -37.8876 H         1 UNK         0.3040 
     91 H91        22.8504  -28.9596  -37.7268 H         1 UNK         0.1015 
     92 H92        23.9884  -26.2579  -36.8175 H         1 UNK         0.0786 
     93 H93        24.5670  -27.8340  -36.2962 H         1 UNK         0.0786 
     94 H94        22.9465  -27.3172  -35.8651 H         1 UNK         0.0786 
     95 H95        23.4887  -26.4348  -39.9871 H         1 UNK         0.3172 
     96 H96        26.1524  -27.0174  -40.8033 H         1 UNK         0.0595 
     97 H97        25.5101  -25.7663  -42.8512 H         1 UNK         0.0839 
     98 H98        24.9257  -24.9244  -41.4278 H         1 UNK         0.0839 
     99 H99        23.8074  -25.8650  -42.4179 H         1 UNK         0.0839 
    100 H100       26.9695  -28.5973  -42.0242 H         1 UNK         0.2998 
    101 H101       27.2805  -30.5060  -43.0815 H         1 UNK         0.0822 
    102 H102       25.8897  -31.1376  -45.0030 H         1 UNK         0.0787 
    103 H103       24.5694  -30.1204  -44.4556 H         1 UNK         0.0787 
    104 H104       26.0838  -29.3938  -44.9969 H         1 UNK         0.0787 
    105 H105       25.6309  -30.3865  -40.5055 H         1 UNK         0.3055 
    106 H106       24.8030  -31.7211  -38.9746 H         1 UNK         0.1106 
    107 H107       25.3822  -34.1084  -38.9263 H         1 UNK         0.0828 
    108 H108       25.7567  -34.1076  -40.6417 H         1 UNK         0.0828 
    109 H109       26.7609  -33.1965  -39.5141 H         1 UNK         0.0828 
    110 H110       23.0535  -30.7923  -41.0977 H         1 UNK         0.2931 
    111 H111       21.0741  -32.8559  -41.5634 H         1 UNK         0.0412 
    112 H112       21.6077  -31.4193  -38.6204 H         1 UNK         0.3472 
    113 H113       19.9501  -31.4052  -38.0688 H         1 UNK         0.3472 
    114 H114       21.2172  -29.8952  -42.2698 H         1 UNK         0.0970 
    115 H115       19.7845  -30.8284  -42.5668 H         1 UNK         0.0970 
    116 H116       20.5283  -33.1294  -45.4471 H         1 UNK         0.0612 
    117 H117       19.7123  -33.0668  -43.9050 H         1 UNK         0.0612 
@<TRIPOS>BOND
     1    1    2 1    
     2    1   62 1    
     3    1   63 1    
     4    1   64 1    
     5    2    3 2    
     6    2    4 am   BACKBONE|DICT|INTERRES
     7    4    5 1    
     8    4   65 1    
     9    5    6 1    
    10    5   25 1    
    11    5   66 1    
    12    6    7 1    
    13    6   67 1    
    14    6   68 1    
    15    7    8 1    
    16    8    9 1    
    17    8   69 1    
    18    8   70 1    
    19    9   10 ar   
    20    9   14 ar   
    21   10   11 ar   
    22   10   71 1    
    23   11   12 ar   
    24   11   61 1    
    25   12   13 ar   
    26   12   72 1    
    27   13   14 ar   
    28   13   15 1    
    29   14   73 1    
    30   15   16 1    
    31   15   74 1    
    32   15   75 1    
    33   16   17 1    
    34   17   18 1    
    35   17   76 1    
    36   17   77 1    
    37   18   19 1    
    38   18   27 1    
    39   18   78 1    
    40   19   20 am   BACKBONE|DICT|INTERRES
    41   19   79 1    
    42   20   21 2    
    43   20   22 1    
    44   22   23 1    
    45   22   24 1    
    46   22   80 1    
    47   23   81 1    
    48   23   82 1    
    49   23   83 1    
    50   24   25 am   BACKBONE|DICT|INTERRES
    51   24   84 1    
    52   25   26 2    
    53   27   28 2    
    54   27   29 am   BACKBONE|DICT|INTERRES
    55   29   30 1    
    56   29   85 1    
    57   30   31 1    
    58   30   32 1    
    59   30   86 1    
    60   31   87 1    
    61   31   88 1    
    62   31   89 1    
    63   32   33 2    
    64   32   34 am   BACKBONE|DICT|INTERRES
    65   34   35 1    
    66   34   90 1    
    67   35   36 1    
    68   35   37 1    
    69   35   91 1    
    70   36   92 1    
    71   36   93 1    
    72   36   94 1    
    73   37   38 2    
    74   37   39 am   BACKBONE|DICT|INTERRES
    75   39   40 1    
    76   39   95 1    
    77   40   41 1    
    78   40   42 1    
    79   40   96 1    
    80   41   97 1    
    81   41   98 1    
    82   41   99 1    
    83   42   43 2    
    84   42   44 am   BACKBONE|DICT|INTERRES
    85   44   45 1    
    86   44  100 1    
    87   45   46 1    
    88   45   47 1    
    89   45  101 1    
    90   46  102 1    
    91   46  103 1    
    92   46  104 1    
    93   47   48 2    
    94   47   49 am   BACKBONE|DICT|INTERRES
    95   49   50 1    
    96   49  105 1    
    97   50   51 1    
    98   50   52 1    
    99   50  106 1    
   100   51  107 1    
   101   51  108 1    
   102   51  109 1    
   103   52   53 2    
   104   52   54 am   BACKBONE|DICT|INTERRES
   105   54   55 1    
   106   54  110 1    
   107   55   56 1    
   108   55   59 1    
   109   55  111 1    
   110   56   57 am   BACKBONE|DICT|INTERRES
   111   56   58 2    
   112   57  112 1    
   113   57  113 1    
   114   59   60 1    
   115   59  114 1    
   116   59  115 1    
   117   60   61 1    
   118   61  116 1    
   119   61  117 1    
@<TRIPOS>SUBSTRUCTURE
     1 UNK         1 GROUP             0       ****    0 ROOT    
