@<TRIPOS>MOLECULE
3R8
117   119    1
SMALL
USER_CHARGES


@<TRIPOS>ATOM
      1 CA         21.0593  -23.0569  -48.3748 C.3       0 UNK        -0.2013 
      2 C          21.0933  -24.3065  -47.5085 C.2       0 UNK         0.4866 
      3 O          22.0907  -24.5566  -46.8301 O.2       0 UNK        -0.5176 
      4 N          20.0082  -25.0924  -47.5123 N.am      1 UNK        -0.4884 
      5 CA         19.8501  -26.3292  -46.7358 C.3       1 UNK         0.0853 
      6 C6         18.8646  -27.3091  -47.4382 C.3       10 UNK        -0.0849 
      7 S7         19.4102  -29.0462  -47.3212 S.3       10 UNK        -0.2776 
      8 C8         17.8684  -29.9318  -46.9203 C.3       10 UNK         0.0316 
      9 C9         17.7472  -30.2278  -45.4321 C.ar      10 UNK        -0.0863 
     10 C10        18.5429  -31.2219  -44.8559 C.ar      10 UNK        -0.1009 
     11 C11        18.4331  -31.5262  -43.4962 C.ar      10 UNK        -0.0712 
     12 C12        17.5001  -30.8426  -42.7125 C.ar      10 UNK        -0.0894 
     13 C13        16.6913  -29.8528  -43.2780 C.ar      10 UNK        -0.0745 
     14 C14        16.8247  -29.5423  -44.6362 C.ar      10 UNK        -0.0972 
     15 C15        15.6555  -29.1335  -42.4288 C.3       10 UNK         0.0209 
     16 S16        16.2231  -27.4827  -41.9242 S.3       10 UNK        -0.2568 
     17 C17        17.3992  -27.8532  -40.5736 C.3       10 UNK        -0.0983 
     18 CA         18.8965  -27.7238  -40.9702 C.3       3 UNK         0.0876 
     19 N          19.1441  -26.5242  -41.7735 N.am      3 UNK        -0.4424 
     20 C          20.3170  -26.0799  -42.2368 C.2       2 UNK         0.4918 
     21 O          21.4124  -26.5946  -41.9977 O.2       2 UNK        -0.4875 
     22 CA         20.2394  -24.8733  -43.1827 C.3       2 UNK         0.0481 
     23 CB         21.3094  -23.8187  -42.8551 C.3       2 UNK        -0.1831 
     24 N          20.3885  -25.3074  -44.5710 N.am      2 UNK        -0.4498 
     25 C          19.4780  -25.9996  -45.2712 C.2       1 UNK         0.5027 
     26 O          18.3739  -26.3092  -44.8218 O.2       1 UNK        -0.4969 
     27 C          19.7822  -27.7507  -39.7082 C.2       3 UNK         0.5005 
     28 O          19.7001  -26.8233  -38.8988 O.2       3 UNK        -0.5279 
     29 N          20.6355  -28.7758  -39.5819 N.am      4 UNK        -0.4463 
     30 CA         21.6249  -29.0301  -38.5237 C.3       4 UNK         0.0283 
     31 CB         20.9642  -29.1395  -37.1358 C.3       4 UNK        -0.1875 
     32 C          22.8126  -28.0489  -38.4993 C.2       4 UNK         0.4949 
     33 O          23.9271  -28.4731  -38.1948 O.2       4 UNK        -0.5039 
     34 N          22.5702  -26.7718  -38.8194 N.am      5 UNK        -0.4663 
     35 CA         23.5670  -25.7003  -38.8776 C.3       5 UNK         0.0242 
     36 CB         22.8479  -24.3520  -39.0367 C.3       5 UNK        -0.1982 
     37 C          24.6082  -25.8940  -39.9928 C.2       5 UNK         0.5017 
     38 O          25.7761  -25.5623  -39.7854 O.2       5 UNK        -0.5012 
     39 N          24.1720  -26.4323  -41.1379 N.am      6 UNK        -0.4439 
     40 CA         25.0256  -26.7921  -42.2709 C.3       6 UNK         0.0297 
     41 CB         24.9521  -25.7074  -43.3593 C.3       6 UNK        -0.2006 
     42 C          24.6316  -28.1613  -42.8355 C.2       6 UNK         0.4892 
     43 O          25.5101  -28.9889  -43.0806 O.2       6 UNK        -0.5089 
     44 N          23.3253  -28.3834  -43.0266 N.am      7 UNK        -0.4243 
     45 CA         22.7604  -29.6336  -43.5182 C.3       7 UNK         0.0196 
     46 CB         21.4826  -29.3200  -44.3112 C.3       7 UNK        -0.2007 
     47 C          22.4894  -30.5537  -42.3227 C.2       7 UNK         0.5020 
     48 O          21.4612  -30.4087  -41.6598 O.2       7 UNK        -0.5147 
     49 N          23.4370  -31.4535  -42.0385 N.am      8 UNK        -0.4734 
     50 CA         23.3891  -32.3598  -40.8873 C.3       8 UNK         0.0238 
     51 CB         24.8234  -32.7706  -40.5158 C.3       8 UNK        -0.1912 
     52 C          22.5138  -33.6077  -41.1018 C.2       8 UNK         0.5038 
     53 O          22.0701  -34.1894  -40.1115 O.2       8 UNK        -0.5046 
     54 N          22.3044  -34.0120  -42.3654 N.am      9 UNK        -0.4200 
     55 CA         21.5987  -35.2451  -42.7768 C.3       9 UNK         0.0839 
     56 C          22.3313  -36.5645  -42.3692 C.2       9 UNK         0.5513 
     57 N          23.6201  -36.5345  -42.0503 N.am      9 UNK        -0.7519 
     58 O          21.7404  -37.6415  -42.3780 O.2       9 UNK        -0.4960 
     59 C59        20.0820  -35.2422  -42.3990 C.3       10 UNK        -0.0876 
     60 S60        19.0527  -34.2329  -43.5174 S.3       10 UNK        -0.2414 
     61 C61        19.3490  -32.5644  -42.8686 C.3       10 UNK         0.0169 
     62 H62        20.1210  -22.9638  -48.9212 H         1 UNK         0.0903 
     63 H63        21.1815  -22.1684  -47.7558 H         1 UNK         0.0903 
     64 H64        21.8726  -23.0816  -49.0996 H         1 UNK         0.0903 
     65 H65        19.2039  -24.8157  -48.0583 H         1 UNK         0.3096 
     66 H66        20.8297  -26.8121  -46.7006 H         1 UNK         0.1121 
     67 H67        18.8169  -27.0913  -48.5065 H         1 UNK         0.0849 
     68 H68        17.8384  -27.1964  -47.0848 H         1 UNK         0.0849 
     69 H69        17.0024  -29.3766  -47.2835 H         1 UNK         0.0865 
     70 H70        17.8627  -30.8766  -47.4659 H         1 UNK         0.0865 
     71 H71        19.2596  -31.7545  -45.4662 H         1 UNK         0.1346 
     72 H72        17.4063  -31.0775  -41.6612 H         1 UNK         0.1412 
     73 H73        16.2045  -28.7705  -45.0715 H         1 UNK         0.1426 
     74 H74        15.3921  -29.7210  -41.5480 H         1 UNK         0.0716 
     75 H75        14.7348  -29.0237  -43.0037 H         1 UNK         0.0716 
     76 H76        17.1998  -28.8505  -40.1779 H         1 UNK         0.0695 
     77 H77        17.1570  -27.1601  -39.7651 H         1 UNK         0.0695 
     78 H78        19.1569  -28.5765  -41.6011 H         1 UNK         0.0983 
     79 H79        18.3052  -26.0575  -42.0883 H         1 UNK         0.3095 
     80 H80        19.2622  -24.3970  -43.0768 H         1 UNK         0.0454 
     81 H81        22.3180  -24.2290  -42.8879 H         1 UNK         0.0851 
     82 H82        21.1553  -23.4116  -41.8558 H         1 UNK         0.0851 
     83 H83        21.2673  -22.9810  -43.5514 H         1 UNK         0.0851 
     84 H84        21.2486  -25.0543  -45.0467 H         1 UNK         0.2976 
     85 H85        20.7136  -29.4247  -40.3670 H         1 UNK         0.3116 
     86 H86        22.0442  -30.0091  -38.7580 H         1 UNK         0.0646 
     87 H87        20.5464  -28.1887  -36.8039 H         1 UNK         0.0847 
     88 H88        21.6917  -29.4497  -36.3847 H         1 UNK         0.0847 
     89 H89        20.1627  -29.8780  -37.1347 H         1 UNK         0.0847 
     90 H90        21.6030  -26.5214  -39.0051 H         1 UNK         0.3040 
     91 H91        24.1049  -25.6935  -37.9270 H         1 UNK         0.1015 
     92 H92        22.2510  -24.3227  -39.9479 H         1 UNK         0.0786 
     93 H93        23.5626  -23.5291  -39.0851 H         1 UNK         0.0786 
     94 H94        22.1836  -24.1554  -38.1950 H         1 UNK         0.0786 
     95 H95        23.1819  -26.6456  -41.2198 H         1 UNK         0.3172 
     96 H96        26.0628  -26.8723  -41.9384 H         1 UNK         0.0595 
     97 H97        23.9540  -25.6318  -43.7914 H         1 UNK         0.0839 
     98 H98        25.6404  -25.9311  -44.1753 H         1 UNK         0.0839 
     99 H99        25.2242  -24.7285  -42.9646 H         1 UNK         0.0839 
    100 H100       22.6503  -27.6727  -42.7550 H         1 UNK         0.2998 
    101 H101       23.4638  -30.1198  -44.1978 H         1 UNK         0.0822 
    102 H102       21.6825  -28.6183  -45.1202 H         1 UNK         0.0787 
    103 H103       21.0880  -30.2272  -44.7656 H         1 UNK         0.0787 
    104 H104       20.6954  -28.8942  -43.6874 H         1 UNK         0.0787 
    105 H105       24.2765  -31.4696  -42.6021 H         1 UNK         0.3055 
    106 H106       22.9662  -31.8206  -40.0370 H         1 UNK         0.1106 
    107 H107       24.8291  -33.4312  -39.6473 H         1 UNK         0.0828 
    108 H108       25.3196  -33.2988  -41.3307 H         1 UNK         0.0828 
    109 H109       25.4298  -31.9010  -40.2608 H         1 UNK         0.0828 
    110 H110       22.7229  -33.4760  -43.1109 H         1 UNK         0.2931 
    111 H111       21.6572  -35.2537  -43.8658 H         1 UNK         0.0412 
    112 H112       24.0861  -37.3935  -41.8024 H         1 UNK         0.3472 
    113 H113       24.1314  -35.6671  -42.0580 H         1 UNK         0.3472 
    114 H114       19.6611  -36.2469  -42.4595 H         1 UNK         0.0970 
    115 H115       19.9224  -34.9320  -41.3661 H         1 UNK         0.0970 
    116 H116       19.2553  -32.5653  -41.7815 H         1 UNK         0.0612 
    117 H117       20.3757  -32.2920  -43.0990 H         1 UNK         0.0612 
@<TRIPOS>BOND
     1    1    2 1    
     2    1   62 1    
     3    1   63 1    
     4    1   64 1    
     5    2    3 2    
     6    2    4 am   BACKBONE|DICT|INTERRES
     7    4    5 1    
     8    4   65 1    
     9    5    6 1    
    10    5   25 1    
    11    5   66 1    
    12    6    7 1    
    13    6   67 1    
    14    6   68 1    
    15    7    8 1    
    16    8    9 1    
    17    8   69 1    
    18    8   70 1    
    19    9   10 ar   
    20    9   14 ar   
    21   10   11 ar   
    22   10   71 1    
    23   11   12 ar   
    24   11   61 1    
    25   12   13 ar   
    26   12   72 1    
    27   13   14 ar   
    28   13   15 1    
    29   14   73 1    
    30   15   16 1    
    31   15   74 1    
    32   15   75 1    
    33   16   17 1    
    34   17   18 1    
    35   17   76 1    
    36   17   77 1    
    37   18   19 1    
    38   18   27 1    
    39   18   78 1    
    40   19   20 am   BACKBONE|DICT|INTERRES
    41   19   79 1    
    42   20   21 2    
    43   20   22 1    
    44   22   23 1    
    45   22   24 1    
    46   22   80 1    
    47   23   81 1    
    48   23   82 1    
    49   23   83 1    
    50   24   25 am   BACKBONE|DICT|INTERRES
    51   24   84 1    
    52   25   26 2    
    53   27   28 2    
    54   27   29 am   BACKBONE|DICT|INTERRES
    55   29   30 1    
    56   29   85 1    
    57   30   31 1    
    58   30   32 1    
    59   30   86 1    
    60   31   87 1    
    61   31   88 1    
    62   31   89 1    
    63   32   33 2    
    64   32   34 am   BACKBONE|DICT|INTERRES
    65   34   35 1    
    66   34   90 1    
    67   35   36 1    
    68   35   37 1    
    69   35   91 1    
    70   36   92 1    
    71   36   93 1    
    72   36   94 1    
    73   37   38 2    
    74   37   39 am   BACKBONE|DICT|INTERRES
    75   39   40 1    
    76   39   95 1    
    77   40   41 1    
    78   40   42 1    
    79   40   96 1    
    80   41   97 1    
    81   41   98 1    
    82   41   99 1    
    83   42   43 2    
    84   42   44 am   BACKBONE|DICT|INTERRES
    85   44   45 1    
    86   44  100 1    
    87   45   46 1    
    88   45   47 1    
    89   45  101 1    
    90   46  102 1    
    91   46  103 1    
    92   46  104 1    
    93   47   48 2    
    94   47   49 am   BACKBONE|DICT|INTERRES
    95   49   50 1    
    96   49  105 1    
    97   50   51 1    
    98   50   52 1    
    99   50  106 1    
   100   51  107 1    
   101   51  108 1    
   102   51  109 1    
   103   52   53 2    
   104   52   54 am   BACKBONE|DICT|INTERRES
   105   54   55 1    
   106   54  110 1    
   107   55   56 1    
   108   55   59 1    
   109   55  111 1    
   110   56   57 am   BACKBONE|DICT|INTERRES
   111   56   58 2    
   112   57  112 1    
   113   57  113 1    
   114   59   60 1    
   115   59  114 1    
   116   59  115 1    
   117   60   61 1    
   118   61  116 1    
   119   61  117 1    
@<TRIPOS>SUBSTRUCTURE
     1 UNK         1 GROUP             0       ****    0 ROOT    
