@<TRIPOS>MOLECULE
3R8
117   119    1
SMALL
USER_CHARGES


@<TRIPOS>ATOM
      1 CA         13.5545  -22.7576  -46.2006 C.3       0 UNK        -0.2013 
      2 C          14.7351  -23.7146  -46.1402 C.2       0 UNK         0.4866 
      3 O          15.2288  -24.1477  -47.1824 O.2       0 UNK        -0.5176 
      4 N          15.2034  -24.0426  -44.9294 N.am      1 UNK        -0.4884 
      5 CA         16.3179  -24.9616  -44.6602 C.3       1 UNK         0.0853 
      6 C6         16.2124  -25.5878  -43.2442 C.3       10 UNK        -0.0849 
      7 S7         14.7408  -26.6571  -43.0856 S.3       10 UNK        -0.2776 
      8 C8         15.4025  -28.0811  -42.1450 C.3       10 UNK         0.0316 
      9 C9         16.4461  -28.9505  -42.8555 C.ar      10 UNK        -0.0863 
     10 C10        17.1313  -29.9077  -42.0993 C.ar      10 UNK        -0.1009 
     11 C11        18.0879  -30.7414  -42.6869 C.ar      10 UNK        -0.0712 
     12 C12        18.3843  -30.5959  -44.0445 C.ar      10 UNK        -0.0894 
     13 C13        17.7086  -29.6473  -44.8183 C.ar      10 UNK        -0.0745 
     14 C14        16.7294  -28.8449  -44.2240 C.ar      10 UNK        -0.0972 
     15 C15        18.0207  -29.5013  -46.3024 C.3       10 UNK         0.0209 
     16 S16        18.6333  -27.8375  -46.7236 S.3       10 UNK        -0.2568 
     17 C17        20.1624  -27.7540  -45.7309 C.3       10 UNK        -0.0983 
     18 CA         21.0995  -26.5867  -46.1537 C.3       3 UNK         0.0876 
     19 N          20.4152  -25.3003  -46.0391 N.am      3 UNK        -0.4424 
     20 C          20.0980  -24.4740  -47.0379 C.2       2 UNK         0.4918 
     21 O          20.4427  -24.6401  -48.2095 O.2       2 UNK        -0.4875 
     22 CA         19.1795  -23.2969  -46.6513 C.3       2 UNK         0.0481 
     23 CB         18.9031  -22.3444  -47.8288 C.3       2 UNK        -0.1831 
     24 N          17.9023  -23.8012  -46.1377 N.am      2 UNK        -0.4498 
     25 C          17.6852  -24.2857  -44.9076 C.2       1 UNK         0.5027 
     26 O          18.5268  -24.2324  -44.0079 O.2       1 UNK        -0.4969 
     27 C          22.3841  -26.5507  -45.3004 C.2       3 UNK         0.5005 
     28 O          22.7524  -25.4990  -44.7662 O.2       3 UNK        -0.5279 
     29 N          23.0489  -27.7078  -45.1841 N.am      4 UNK        -0.4463 
     30 CA         24.1890  -27.9417  -44.2948 C.3       4 UNK         0.0283 
     31 CB         24.8060  -29.3069  -44.6437 C.3       4 UNK        -0.1875 
     32 C          23.7995  -27.8807  -42.8029 C.2       4 UNK         0.4949 
     33 O          22.6149  -27.9284  -42.4629 O.2       4 UNK        -0.5039 
     34 N          24.8198  -27.7807  -41.9415 N.am      5 UNK        -0.4663 
     35 CA         24.6967  -27.7314  -40.4810 C.3       5 UNK         0.0242 
     36 CB         26.0861  -27.4423  -39.8860 C.3       5 UNK        -0.1982 
     37 C          24.1158  -29.0214  -39.8723 C.2       5 UNK         0.5017 
     38 O          24.1407  -30.0762  -40.5101 O.2       5 UNK        -0.5012 
     39 N          23.6651  -28.9264  -38.6127 N.am      6 UNK        -0.4439 
     40 CA         23.0561  -30.0147  -37.8345 C.3       6 UNK         0.0297 
     41 CB         22.6650  -29.4903  -36.4440 C.3       6 UNK        -0.2006 
     42 C          23.9170  -31.2866  -37.7023 C.2       6 UNK         0.4892 
     43 O          23.3603  -32.3757  -37.5657 O.2       6 UNK        -0.5089 
     44 N          25.2463  -31.1375  -37.7897 N.am      7 UNK        -0.4243 
     45 CA         26.2124  -32.2372  -37.8430 C.3       7 UNK         0.0196 
     46 CB         27.6343  -31.6634  -37.7334 C.3       7 UNK        -0.2007 
     47 C          26.0826  -33.1148  -39.1036 C.2       7 UNK         0.5020 
     48 O          26.4146  -34.2986  -39.0403 O.2       7 UNK        -0.5147 
     49 N          25.6038  -32.5380  -40.2160 N.am      8 UNK        -0.4734 
     50 CA         25.3058  -33.2640  -41.4526 C.3       8 UNK         0.0238 
     51 CB         25.4419  -32.3174  -42.6552 C.3       8 UNK        -0.1912 
     52 C          23.9042  -33.8930  -41.4153 C.2       8 UNK         0.5038 
     53 O          23.7232  -34.9764  -41.9729 O.2       8 UNK        -0.5046 
     54 N          22.9481  -33.2181  -40.7597 N.am      9 UNK        -0.4200 
     55 CA         21.5956  -33.7368  -40.4997 C.3       9 UNK         0.0839 
     56 C          21.5940  -34.9665  -39.5501 C.2       9 UNK         0.5513 
     57 N          22.3530  -34.9397  -38.4619 N.am      9 UNK        -0.7519 
     58 O          20.8984  -35.9464  -39.8034 O.2       9 UNK        -0.4960 
     59 C59        20.6350  -32.6461  -39.9614 C.3       10 UNK        -0.0876 
     60 S60        20.3387  -31.2857  -41.1425 S.3       10 UNK        -0.2414 
     61 C61        18.7586  -31.8308  -41.8627 C.3       10 UNK         0.0169 
     62 H62        13.2211  -22.4574  -45.2074 H         1 UNK         0.0903 
     63 H63        13.8279  -21.8591  -46.7531 H         1 UNK         0.0903 
     64 H64        12.7156  -23.2298  -46.7113 H         1 UNK         0.0903 
     65 H65        14.7660  -23.6461  -44.1094 H         1 UNK         0.3096 
     66 H66        16.2649  -25.7808  -45.3812 H         1 UNK         0.1121 
     67 H67        16.1727  -24.8123  -42.4771 H         1 UNK         0.0849 
     68 H68        17.0997  -26.1848  -43.0240 H         1 UNK         0.0849 
     69 H69        14.5626  -28.7188  -41.8659 H         1 UNK         0.0865 
     70 H70        15.8234  -27.7057  -41.2108 H         1 UNK         0.0865 
     71 H71        16.9078  -30.0169  -41.0464 H         1 UNK         0.1346 
     72 H72        19.1297  -31.2341  -44.4992 H         1 UNK         0.1412 
     73 H73        16.2018  -28.1334  -44.8415 H         1 UNK         0.1426 
     74 H74        17.1142  -29.6982  -46.8763 H         1 UNK         0.0716 
     75 H75        18.7545  -30.2421  -46.6238 H         1 UNK         0.0716 
     76 H76        20.6667  -28.7163  -45.8297 H         1 UNK         0.0695 
     77 H77        19.8823  -27.6597  -44.6793 H         1 UNK         0.0695 
     78 H78        21.4155  -26.7496  -47.1864 H         1 UNK         0.0983 
     79 H79        20.1126  -25.0490  -45.1050 H         1 UNK         0.3095 
     80 H80        19.6821  -22.7252  -45.8684 H         1 UNK         0.0454 
     81 H81        18.3903  -22.8509  -48.6475 H         1 UNK         0.0851 
     82 H82        19.8328  -21.9366  -48.2275 H         1 UNK         0.0851 
     83 H83        18.2867  -21.5004  -47.5192 H         1 UNK         0.0851 
     84 H84        17.1434  -23.8956  -46.8071 H         1 UNK         0.2976 
     85 H85        22.6714  -28.5244  -45.6416 H         1 UNK         0.3116 
     86 H86        24.9312  -27.1629  -44.4832 H         1 UNK         0.0646 
     87 H87        24.0929  -30.1186  -44.4957 H         1 UNK         0.0847 
     88 H88        25.6771  -29.5200  -44.0230 H         1 UNK         0.0847 
     89 H89        25.1391  -29.3390  -45.6812 H         1 UNK         0.0847 
     90 H90        25.7599  -27.7765  -42.3094 H         1 UNK         0.3040 
     91 H91        24.0231  -26.9081  -40.2331 H         1 UNK         0.1015 
     92 H92        26.7940  -28.2423  -40.1083 H         1 UNK         0.0786 
     93 H93        26.0419  -27.3391  -38.8010 H         1 UNK         0.0786 
     94 H94        26.4992  -26.5117  -40.2763 H         1 UNK         0.0786 
     95 H95        23.7058  -28.0252  -38.1578 H         1 UNK         0.3172 
     96 H96        22.1413  -30.2977  -38.3570 H         1 UNK         0.0595 
     97 H97        21.9595  -28.6621  -36.5138 H         1 UNK         0.0839 
     98 H98        23.5344  -29.1472  -35.8817 H         1 UNK         0.0839 
     99 H99        22.1837  -30.2716  -35.8536 H         1 UNK         0.0839 
    100 H100       25.6126  -30.2034  -37.8978 H         1 UNK         0.2998 
    101 H101       26.0328  -32.8800  -36.9784 H         1 UNK         0.0822 
    102 H102       28.3784  -32.4612  -37.7434 H         1 UNK         0.0787 
    103 H103       27.8643  -30.9930  -38.5626 H         1 UNK         0.0787 
    104 H104       27.7690  -31.1093  -36.8042 H         1 UNK         0.0787 
    105 H105       25.3067  -31.5662  -40.1856 H         1 UNK         0.3055 
    106 H106       26.0299  -34.0727  -41.5774 H         1 UNK         0.1106 
    107 H107       25.2881  -32.8539  -43.5923 H         1 UNK         0.0828 
    108 H108       24.7072  -31.5137  -42.6177 H         1 UNK         0.0828 
    109 H109       26.4332  -31.8662  -42.6974 H         1 UNK         0.0828 
    110 H110       23.1762  -32.3212  -40.3553 H         1 UNK         0.2931 
    111 H111       21.1956  -34.0773  -41.4572 H         1 UNK         0.0412 
    112 H112       22.8597  -34.0951  -38.2103 H         1 UNK         0.3472 
    113 H113       22.3605  -35.7340  -37.8422 H         1 UNK         0.3472 
    114 H114       21.0281  -32.2205  -39.0381 H         1 UNK         0.0970 
    115 H115       19.6753  -33.0872  -39.6853 H         1 UNK         0.0970 
    116 H116       18.0824  -32.1453  -41.0663 H         1 UNK         0.0612 
    117 H117       18.9344  -32.7132  -42.4800 H         1 UNK         0.0612 
@<TRIPOS>BOND
     1    1    2 1    
     2    1   62 1    
     3    1   63 1    
     4    1   64 1    
     5    2    3 2    
     6    2    4 am   BACKBONE|DICT|INTERRES
     7    4    5 1    
     8    4   65 1    
     9    5    6 1    
    10    5   25 1    
    11    5   66 1    
    12    6    7 1    
    13    6   67 1    
    14    6   68 1    
    15    7    8 1    
    16    8    9 1    
    17    8   69 1    
    18    8   70 1    
    19    9   10 ar   
    20    9   14 ar   
    21   10   11 ar   
    22   10   71 1    
    23   11   12 ar   
    24   11   61 1    
    25   12   13 ar   
    26   12   72 1    
    27   13   14 ar   
    28   13   15 1    
    29   14   73 1    
    30   15   16 1    
    31   15   74 1    
    32   15   75 1    
    33   16   17 1    
    34   17   18 1    
    35   17   76 1    
    36   17   77 1    
    37   18   19 1    
    38   18   27 1    
    39   18   78 1    
    40   19   20 am   BACKBONE|DICT|INTERRES
    41   19   79 1    
    42   20   21 2    
    43   20   22 1    
    44   22   23 1    
    45   22   24 1    
    46   22   80 1    
    47   23   81 1    
    48   23   82 1    
    49   23   83 1    
    50   24   25 am   BACKBONE|DICT|INTERRES
    51   24   84 1    
    52   25   26 2    
    53   27   28 2    
    54   27   29 am   BACKBONE|DICT|INTERRES
    55   29   30 1    
    56   29   85 1    
    57   30   31 1    
    58   30   32 1    
    59   30   86 1    
    60   31   87 1    
    61   31   88 1    
    62   31   89 1    
    63   32   33 2    
    64   32   34 am   BACKBONE|DICT|INTERRES
    65   34   35 1    
    66   34   90 1    
    67   35   36 1    
    68   35   37 1    
    69   35   91 1    
    70   36   92 1    
    71   36   93 1    
    72   36   94 1    
    73   37   38 2    
    74   37   39 am   BACKBONE|DICT|INTERRES
    75   39   40 1    
    76   39   95 1    
    77   40   41 1    
    78   40   42 1    
    79   40   96 1    
    80   41   97 1    
    81   41   98 1    
    82   41   99 1    
    83   42   43 2    
    84   42   44 am   BACKBONE|DICT|INTERRES
    85   44   45 1    
    86   44  100 1    
    87   45   46 1    
    88   45   47 1    
    89   45  101 1    
    90   46  102 1    
    91   46  103 1    
    92   46  104 1    
    93   47   48 2    
    94   47   49 am   BACKBONE|DICT|INTERRES
    95   49   50 1    
    96   49  105 1    
    97   50   51 1    
    98   50   52 1    
    99   50  106 1    
   100   51  107 1    
   101   51  108 1    
   102   51  109 1    
   103   52   53 2    
   104   52   54 am   BACKBONE|DICT|INTERRES
   105   54   55 1    
   106   54  110 1    
   107   55   56 1    
   108   55   59 1    
   109   55  111 1    
   110   56   57 am   BACKBONE|DICT|INTERRES
   111   56   58 2    
   112   57  112 1    
   113   57  113 1    
   114   59   60 1    
   115   59  114 1    
   116   59  115 1    
   117   60   61 1    
   118   61  116 1    
   119   61  117 1    
@<TRIPOS>SUBSTRUCTURE
     1 UNK         1 GROUP             0       ****    0 ROOT    
