@<TRIPOS>MOLECULE
3R8
117   119    1
SMALL
USER_CHARGES


@<TRIPOS>ATOM
      1 CA         15.6437  -23.2208  -43.4908 C.3       0 UNK        -0.2013 
      2 C          16.6231  -24.3663  -43.2830 C.2       0 UNK         0.4866 
      3 O          17.6488  -24.4241  -43.9607 O.2       0 UNK        -0.5176 
      4 N          16.3100  -25.2811  -42.3578 N.am      1 UNK        -0.4884 
      5 CA         17.1498  -26.4299  -42.0007 C.3       1 UNK         0.0853 
      6 C6         16.3569  -27.4920  -41.1991 C.3       10 UNK        -0.0849 
      7 S7         14.8806  -28.0925  -42.0844 S.3       10 UNK        -0.2776 
      8 C8         15.3009  -29.8432  -42.3651 C.3       10 UNK         0.0316 
      9 C9         16.4119  -30.0447  -43.3901 C.ar      10 UNK        -0.0863 
     10 C10        17.4835  -30.8966  -43.1040 C.ar      10 UNK        -0.1009 
     11 C11        18.4522  -31.1736  -44.0744 C.ar      10 UNK        -0.0712 
     12 C12        18.3571  -30.5707  -45.3330 C.ar      10 UNK        -0.0894 
     13 C13        17.3023  -29.7012  -45.6243 C.ar      10 UNK        -0.0745 
     14 C14        16.3319  -29.4469  -44.6517 C.ar      10 UNK        -0.0972 
     15 C15        17.1725  -29.0728  -47.0028 C.3       10 UNK         0.0209 
     16 S16        17.7938  -27.3637  -47.0299 S.3       10 UNK        -0.2568 
     17 C17        19.5931  -27.6163  -47.1881 C.3       10 UNK        -0.0983 
     18 CA         20.3873  -26.8808  -46.0800 C.3       3 UNK         0.0876 
     19 N          20.1190  -27.4409  -44.7518 N.am      3 UNK        -0.4424 
     20 C          20.3494  -26.8053  -43.5983 C.2       2 UNK         0.4918 
     21 O          20.8639  -25.6866  -43.5218 O.2       2 UNK        -0.4875 
     22 CA         19.9623  -27.5493  -42.3107 C.3       2 UNK         0.0481 
     23 CB         21.1652  -28.3381  -41.7787 C.3       2 UNK        -0.1831 
     24 N          19.5488  -26.5925  -41.2830 N.am      2 UNK        -0.4498 
     25 C          18.3689  -25.9675  -41.1658 C.2       1 UNK         0.5027 
     26 O          18.2126  -25.0626  -40.3435 O.2       1 UNK        -0.4969 
     27 C          21.9027  -26.8497  -46.3811 C.2       3 UNK         0.5005 
     28 O          22.4023  -27.7186  -47.0988 O.2       3 UNK        -0.5279 
     29 N          22.5945  -25.8423  -45.8247 N.am      4 UNK        -0.4463 
     30 CA         24.0243  -25.5388  -45.9773 C.3       4 UNK         0.0283 
     31 CB         24.3346  -25.0887  -47.4211 C.3       4 UNK        -0.1875 
     32 C          24.9270  -26.6921  -45.4994 C.2       4 UNK         0.4949 
     33 O          25.8189  -27.1308  -46.2283 O.2       4 UNK        -0.5039 
     34 N          24.6620  -27.1710  -44.2802 N.am      5 UNK        -0.4663 
     35 CA         25.3446  -28.2964  -43.6480 C.3       5 UNK         0.0242 
     36 CB         24.6773  -29.6093  -44.1055 C.3       5 UNK        -0.1982 
     37 C          25.3080  -28.1312  -42.1210 C.2       5 UNK         0.5017 
     38 O          24.7844  -27.1314  -41.6206 O.2       5 UNK        -0.5012 
     39 N          25.8661  -29.1225  -41.4137 N.am      6 UNK        -0.4439 
     40 CA         25.8317  -29.2632  -39.9539 C.3       6 UNK         0.0297 
     41 CB         26.7988  -30.3945  -39.5586 C.3       6 UNK        -0.2006 
     42 C          24.4131  -29.5463  -39.4182 C.2       6 UNK         0.4892 
     43 O          23.4774  -29.7117  -40.2025 O.2       6 UNK        -0.5089 
     44 N          24.2790  -29.6246  -38.0858 N.am      7 UNK        -0.4243 
     45 CA         23.0358  -29.9534  -37.3768 C.3       7 UNK         0.0196 
     46 CB         23.3106  -30.0185  -35.8655 C.3       7 UNK        -0.2007 
     47 C          22.4131  -31.2703  -37.8772 C.2       7 UNK         0.5020 
     48 O          23.0726  -32.3112  -37.8289 O.2       7 UNK        -0.5147 
     49 N          21.1852  -31.1751  -38.4095 N.am      8 UNK        -0.4734 
     50 CA         20.4256  -32.2390  -39.0872 C.3       8 UNK         0.0238 
     51 CB         19.9892  -33.3194  -38.0745 C.3       8 UNK        -0.1912 
     52 C          21.1444  -32.8408  -40.3168 C.2       8 UNK         0.5038 
     53 O          20.8686  -33.9854  -40.6802 O.2       8 UNK        -0.5046 
     54 N          22.0531  -32.0657  -40.9255 N.am      9 UNK        -0.4200 
     55 CA         22.9709  -32.4627  -42.0038 C.3       9 UNK         0.0839 
     56 C          24.0435  -33.5084  -41.5722 C.2       9 UNK         0.5513 
     57 N          24.3103  -33.6933  -40.2833 N.am      9 UNK        -0.7519 
     58 O          24.6723  -34.1408  -42.4167 O.2       9 UNK        -0.4960 
     59 C59        22.2555  -32.8212  -43.3384 C.3       10 UNK        -0.0876 
     60 S60        21.2148  -31.4563  -43.9632 S.3       10 UNK        -0.2414 
     61 C61        19.5577  -32.1791  -43.7834 C.3       10 UNK         0.0169 
     62 H62        15.2922  -23.2108  -44.5221 H         1 UNK         0.0903 
     63 H63        14.7751  -23.3027  -42.8375 H         1 UNK         0.0903 
     64 H64        16.1324  -22.2683  -43.2877 H         1 UNK         0.0903 
     65 H65        15.4593  -25.1824  -41.8225 H         1 UNK         0.3096 
     66 H66        17.4780  -26.8775  -42.9394 H         1 UNK         0.1121 
     67 H67        16.0259  -27.0838  -40.2418 H         1 UNK         0.0849 
     68 H68        17.0000  -28.3403  -40.9559 H         1 UNK         0.0849 
     69 H69        15.5570  -30.3054  -41.4103 H         1 UNK         0.0865 
     70 H70        14.4088  -30.3600  -42.7213 H         1 UNK         0.0865 
     71 H71        17.5410  -31.3795  -42.1380 H         1 UNK         0.1346 
     72 H72        19.0957  -30.7970  -46.0900 H         1 UNK         0.1412 
     73 H73        15.5003  -28.7955  -44.8850 H         1 UNK         0.1426 
     74 H74        16.1220  -29.0644  -47.2975 H         1 UNK         0.0716 
     75 H75        17.6895  -29.6698  -47.7558 H         1 UNK         0.0716 
     76 H76        19.8792  -27.2442  -48.1738 H         1 UNK         0.0695 
     77 H77        19.8293  -28.6816  -47.1880 H         1 UNK         0.0695 
     78 H78        20.0459  -25.8424  -46.0801 H         1 UNK         0.0983 
     79 H79        19.7139  -28.3661  -44.7375 H         1 UNK         0.3095 
     80 H80        19.1599  -28.2593  -42.5180 H         1 UNK         0.0454 
     81 H81        21.9846  -27.6816  -41.4825 H         1 UNK         0.0851 
     82 H82        21.5620  -29.0158  -42.5325 H         1 UNK         0.0851 
     83 H83        20.8925  -28.9429  -40.9142 H         1 UNK         0.0851 
     84 H84        20.3024  -26.2469  -40.7076 H         1 UNK         0.2976 
     85 H85        22.0900  -25.2601  -45.1635 H         1 UNK         0.3116 
     86 H86        24.2327  -24.6940  -45.3189 H         1 UNK         0.0646 
     87 H87        23.7081  -24.2481  -47.7188 H         1 UNK         0.0847 
     88 H88        24.1793  -25.8941  -48.1398 H         1 UNK         0.0847 
     89 H89        25.3725  -24.7669  -47.5147 H         1 UNK         0.0847 
     90 H90        23.9687  -26.7151  -43.7003 H         1 UNK         0.3040 
     91 H91        26.3947  -28.2971  -43.9495 H         1 UNK         0.1015 
     92 H92        23.6435  -29.6658  -43.7648 H         1 UNK         0.0786 
     93 H93        25.2014  -30.4854  -43.7234 H         1 UNK         0.0786 
     94 H94        24.6701  -29.6948  -45.1924 H         1 UNK         0.0786 
     95 H95        26.2578  -29.9020  -41.9204 H         1 UNK         0.3172 
     96 H96        26.1787  -28.3270  -39.5122 H         1 UNK         0.0595 
     97 H97        26.4648  -31.3610  -39.9397 H         1 UNK         0.0839 
     98 H98        26.8872  -30.4871  -38.4757 H         1 UNK         0.0839 
     99 H99        27.8030  -30.2118  -39.9419 H         1 UNK         0.0839 
    100 H100       25.0995  -29.4972  -37.5119 H         1 UNK         0.2998 
    101 H101       22.3341  -29.1371  -37.5601 H         1 UNK         0.0822 
    102 H102       23.6865  -29.0676  -35.4873 H         1 UNK         0.0787 
    103 H103       22.3983  -30.2480  -35.3131 H         1 UNK         0.0787 
    104 H104       24.0416  -30.7907  -35.6217 H         1 UNK         0.0787 
    105 H105       20.7472  -30.2638  -38.4173 H         1 UNK         0.3055 
    106 H106       19.5213  -31.7697  -39.4782 H         1 UNK         0.1106 
    107 H107       20.8411  -33.8830  -37.6927 H         1 UNK         0.0828 
    108 H108       19.3063  -34.0356  -38.5331 H         1 UNK         0.0828 
    109 H109       19.4691  -32.8798  -37.2236 H         1 UNK         0.0828 
    110 H110       22.2572  -31.1512  -40.5325 H         1 UNK         0.2931 
    111 H111       23.5563  -31.5654  -42.2001 H         1 UNK         0.0412 
    112 H112       25.0121  -34.3662  -40.0196 H         1 UNK         0.3472 
    113 H113       23.8099  -33.1811  -39.5654 H         1 UNK         0.3472 
    114 H114       21.6644  -33.7313  -43.2276 H         1 UNK         0.0970 
    115 H115       22.9912  -33.0381  -44.1147 H         1 UNK         0.0970 
    116 H116       19.4527  -32.5802  -42.7748 H         1 UNK         0.0612 
    117 H117       19.4604  -33.0244  -44.4659 H         1 UNK         0.0612 
@<TRIPOS>BOND
     1    1    2 1    
     2    1   62 1    
     3    1   63 1    
     4    1   64 1    
     5    2    3 2    
     6    2    4 am   BACKBONE|DICT|INTERRES
     7    4    5 1    
     8    4   65 1    
     9    5    6 1    
    10    5   25 1    
    11    5   66 1    
    12    6    7 1    
    13    6   67 1    
    14    6   68 1    
    15    7    8 1    
    16    8    9 1    
    17    8   69 1    
    18    8   70 1    
    19    9   10 ar   
    20    9   14 ar   
    21   10   11 ar   
    22   10   71 1    
    23   11   12 ar   
    24   11   61 1    
    25   12   13 ar   
    26   12   72 1    
    27   13   14 ar   
    28   13   15 1    
    29   14   73 1    
    30   15   16 1    
    31   15   74 1    
    32   15   75 1    
    33   16   17 1    
    34   17   18 1    
    35   17   76 1    
    36   17   77 1    
    37   18   19 1    
    38   18   27 1    
    39   18   78 1    
    40   19   20 am   BACKBONE|DICT|INTERRES
    41   19   79 1    
    42   20   21 2    
    43   20   22 1    
    44   22   23 1    
    45   22   24 1    
    46   22   80 1    
    47   23   81 1    
    48   23   82 1    
    49   23   83 1    
    50   24   25 am   BACKBONE|DICT|INTERRES
    51   24   84 1    
    52   25   26 2    
    53   27   28 2    
    54   27   29 am   BACKBONE|DICT|INTERRES
    55   29   30 1    
    56   29   85 1    
    57   30   31 1    
    58   30   32 1    
    59   30   86 1    
    60   31   87 1    
    61   31   88 1    
    62   31   89 1    
    63   32   33 2    
    64   32   34 am   BACKBONE|DICT|INTERRES
    65   34   35 1    
    66   34   90 1    
    67   35   36 1    
    68   35   37 1    
    69   35   91 1    
    70   36   92 1    
    71   36   93 1    
    72   36   94 1    
    73   37   38 2    
    74   37   39 am   BACKBONE|DICT|INTERRES
    75   39   40 1    
    76   39   95 1    
    77   40   41 1    
    78   40   42 1    
    79   40   96 1    
    80   41   97 1    
    81   41   98 1    
    82   41   99 1    
    83   42   43 2    
    84   42   44 am   BACKBONE|DICT|INTERRES
    85   44   45 1    
    86   44  100 1    
    87   45   46 1    
    88   45   47 1    
    89   45  101 1    
    90   46  102 1    
    91   46  103 1    
    92   46  104 1    
    93   47   48 2    
    94   47   49 am   BACKBONE|DICT|INTERRES
    95   49   50 1    
    96   49  105 1    
    97   50   51 1    
    98   50   52 1    
    99   50  106 1    
   100   51  107 1    
   101   51  108 1    
   102   51  109 1    
   103   52   53 2    
   104   52   54 am   BACKBONE|DICT|INTERRES
   105   54   55 1    
   106   54  110 1    
   107   55   56 1    
   108   55   59 1    
   109   55  111 1    
   110   56   57 am   BACKBONE|DICT|INTERRES
   111   56   58 2    
   112   57  112 1    
   113   57  113 1    
   114   59   60 1    
   115   59  114 1    
   116   59  115 1    
   117   60   61 1    
   118   61  116 1    
   119   61  117 1    
@<TRIPOS>SUBSTRUCTURE
     1 UNK         1 GROUP             0       ****    0 ROOT    
