@<TRIPOS>MOLECULE
3R8
117   119    1
SMALL
USER_CHARGES


@<TRIPOS>ATOM
      1 CA         17.7227  -22.9407  -42.4604 C.3       0 UNK        -0.2013 
      2 C          17.1455  -24.2025  -41.8223 C.2       0 UNK         0.4866 
      3 O          16.6608  -24.1348  -40.6943 O.2       0 UNK        -0.5176 
      4 N          17.1502  -25.3651  -42.4909 N.am      1 UNK        -0.4884 
      5 CA         17.7283  -25.6520  -43.8120 C.3       1 UNK         0.0853 
      6 C6         17.3783  -27.0886  -44.2802 C.3       10 UNK        -0.0849 
      7 S7         15.5854  -27.4388  -44.2898 S.3       10 UNK        -0.2776 
      8 C8         15.4157  -28.5793  -45.7068 C.3       10 UNK         0.0316 
      9 C9         16.4108  -29.7335  -45.6569 C.ar      10 UNK        -0.0863 
     10 C10        16.4048  -30.6312  -44.5825 C.ar      10 UNK        -0.1009 
     11 C11        17.3574  -31.6519  -44.5096 C.ar      10 UNK        -0.0712 
     12 C12        18.2868  -31.8022  -45.5396 C.ar      10 UNK        -0.0894 
     13 C13        18.3239  -30.8931  -46.5991 C.ar      10 UNK        -0.0745 
     14 C14        17.3716  -29.8725  -46.6653 C.ar      10 UNK        -0.0972 
     15 C15        19.4633  -30.9598  -47.6055 C.3       10 UNK         0.0209 
     16 S16        20.7728  -29.7374  -47.2358 S.3       10 UNK        -0.2568 
     17 C17        21.0900  -30.0078  -45.4523 C.3       10 UNK        -0.0983 
     18 CA         21.9218  -28.8934  -44.7751 C.3       3 UNK         0.0876 
     19 N          21.4314  -27.5560  -45.1181 N.am      3 UNK        -0.4424 
     20 C          22.0551  -26.4071  -44.8300 C.2       2 UNK         0.4918 
     21 O          23.1459  -26.3430  -44.2661 O.2       2 UNK        -0.4875 
     22 CA         21.3007  -25.1111  -45.1823 C.3       2 UNK         0.0481 
     23 CB         21.6029  -24.6901  -46.6286 C.3       2 UNK        -0.1831 
     24 N          19.8471  -25.2145  -44.9886 N.am      2 UNK        -0.4498 
     25 C          19.2626  -25.4830  -43.8117 C.2       1 UNK         0.5027 
     26 O          19.8963  -25.6550  -42.7680 O.2       1 UNK        -0.4969 
     27 C          21.9392  -29.1136  -43.2461 C.2       3 UNK         0.5005 
     28 O          22.8853  -29.7009  -42.7217 O.2       3 UNK        -0.5279 
     29 N          20.9010  -28.6201  -42.5533 N.am      4 UNK        -0.4463 
     30 CA         20.7743  -28.6742  -41.0960 C.3       4 UNK         0.0283 
     31 CB         19.3349  -28.3411  -40.6730 C.3       4 UNK        -0.1875 
     32 C          21.7860  -27.7502  -40.4035 C.2       4 UNK         0.4949 
     33 O          22.3892  -28.1569  -39.4121 O.2       4 UNK        -0.5039 
     34 N          22.0099  -26.5568  -40.9737 N.am      5 UNK        -0.4663 
     35 CA         23.0586  -25.6176  -40.5587 C.3       5 UNK         0.0242 
     36 CB         22.8873  -24.2900  -41.3134 C.3       5 UNK        -0.1982 
     37 C          24.4797  -26.1828  -40.7498 C.2       5 UNK         0.5017 
     38 O          25.3523  -25.9179  -39.9232 O.2       5 UNK        -0.5012 
     39 N          24.6689  -26.9926  -41.8016 N.am      6 UNK        -0.4439 
     40 CA         25.8774  -27.7791  -42.0706 C.3       6 UNK         0.0297 
     41 CB         25.9375  -28.1057  -43.5728 C.3       6 UNK        -0.2006 
     42 C          25.9881  -29.0657  -41.2216 C.2       6 UNK         0.4892 
     43 O          26.9697  -29.7930  -41.3780 O.2       6 UNK        -0.5089 
     44 N          25.0045  -29.3223  -40.3452 N.am      7 UNK        -0.4243 
     45 CA         24.9040  -30.4379  -39.3988 C.3       7 UNK         0.0196 
     46 CB         26.0806  -30.4336  -38.3982 C.3       7 UNK        -0.2007 
     47 C          24.6743  -31.8131  -40.0548 C.2       7 UNK         0.5020 
     48 O          25.0180  -32.8310  -39.4518 O.2       7 UNK        -0.5147 
     49 N          24.0597  -31.8457  -41.2469 N.am      8 UNK        -0.4734 
     50 CA         23.6507  -33.0905  -41.9116 C.3       8 UNK         0.0238 
     51 CB         23.4625  -32.8387  -43.4156 C.3       8 UNK        -0.1912 
     52 C          22.3667  -33.6871  -41.3061 C.2       8 UNK         0.5038 
     53 O          22.1869  -34.9044  -41.3558 O.2       8 UNK        -0.5046 
     54 N          21.5076  -32.8260  -40.7490 N.am      9 UNK        -0.4200 
     55 CA         20.2281  -33.1756  -40.1124 C.3       9 UNK         0.0839 
     56 C          19.8478  -32.2337  -38.9333 C.2       9 UNK         0.5513 
     57 N          20.7637  -31.4272  -38.4083 N.am      9 UNK        -0.7519 
     58 O          18.7121  -32.2477  -38.4660 O.2       9 UNK        -0.4960 
     59 C59        19.0851  -33.3836  -41.1466 C.3       10 UNK        -0.0876 
     60 S60        18.7753  -31.9206  -42.1899 S.3       10 UNK        -0.2414 
     61 C61        17.4601  -32.5422  -43.2840 C.3       10 UNK         0.0169 
     62 H62        18.8073  -22.9231  -42.3557 H         1 UNK         0.0903 
     63 H63        17.4678  -22.8621  -43.5161 H         1 UNK         0.0903 
     64 H64        17.3276  -22.0536  -41.9656 H         1 UNK         0.0903 
     65 H65        16.7376  -26.1678  -42.0384 H         1 UNK         0.3096 
     66 H66        17.3019  -24.9462  -44.5273 H         1 UNK         0.1121 
     67 H67        17.8535  -27.8354  -43.6402 H         1 UNK         0.0849 
     68 H68        17.7675  -27.2579  -45.2860 H         1 UNK         0.0849 
     69 H69        15.5280  -28.0094  -46.6306 H         1 UNK         0.0865 
     70 H70        14.4020  -28.9819  -45.7189 H         1 UNK         0.0865 
     71 H71        15.6903  -30.5029  -43.7807 H         1 UNK         0.1346 
     72 H72        19.0418  -32.5733  -45.4663 H         1 UNK         0.1412 
     73 H73        17.4109  -29.1615  -47.4795 H         1 UNK         0.1426 
     74 H74        19.0794  -30.7798  -48.6106 H         1 UNK         0.0716 
     75 H75        19.9035  -31.9581  -47.6199 H         1 UNK         0.0716 
     76 H76        21.5755  -30.9775  -45.3357 H         1 UNK         0.0695 
     77 H77        20.1343  -30.0761  -44.9353 H         1 UNK         0.0695 
     78 H78        22.9508  -28.9695  -45.1328 H         1 UNK         0.0983 
     79 H79        20.5621  -27.5215  -45.6286 H         1 UNK         0.3095 
     80 H80        21.6669  -24.3261  -44.5175 H         1 UNK         0.0454 
     81 H81        21.2364  -25.4212  -47.3503 H         1 UNK         0.0851 
     82 H82        22.6774  -24.5873  -46.7873 H         1 UNK         0.0851 
     83 H83        21.1503  -23.7271  -46.8653 H         1 UNK         0.0851 
     84 H84        19.2723  -25.0839  -45.8094 H         1 UNK         0.2976 
     85 H85        20.1908  -28.1048  -43.0498 H         1 UNK         0.3116 
     86 H86        20.9858  -29.6976  -40.7813 H         1 UNK         0.0646 
     87 H87        18.6147  -29.0022  -41.1548 H         1 UNK         0.0847 
     88 H88        19.0622  -27.3136  -40.9132 H         1 UNK         0.0847 
     89 H89        19.2133  -28.4644  -39.5961 H         1 UNK         0.0847 
     90 H90        21.4165  -26.2741  -41.7495 H         1 UNK         0.3040 
     91 H91        22.9247  -25.4244  -39.4920 H         1 UNK         0.1015 
     92 H92        23.6156  -23.5526  -40.9735 H         1 UNK         0.0786 
     93 H93        21.8956  -23.8665  -41.1519 H         1 UNK         0.0786 
     94 H94        23.0268  -24.4136  -42.3872 H         1 UNK         0.0786 
     95 H95        23.9119  -27.0878  -42.4698 H         1 UNK         0.3172 
     96 H96        26.7456  -27.1630  -41.8283 H         1 UNK         0.0595 
     97 H97        25.1206  -28.7597  -43.8765 H         1 UNK         0.0839 
     98 H98        26.8694  -28.6122  -43.8273 H         1 UNK         0.0839 
     99 H99        25.8865  -27.2013  -44.1793 H         1 UNK         0.0839 
    100 H100       24.2262  -28.6741  -40.3109 H         1 UNK         0.2998 
    101 H101       24.0003  -30.2434  -38.8204 H         1 UNK         0.0822 
    102 H102       26.2087  -29.4524  -37.9409 H         1 UNK         0.0787 
    103 H103       25.9098  -31.1452  -37.5895 H         1 UNK         0.0787 
    104 H104       27.0215  -30.7080  -38.8759 H         1 UNK         0.0787 
    105 H105       23.7951  -30.9735  -41.7038 H         1 UNK         0.3055 
    106 H106       24.4474  -33.8283  -41.7905 H         1 UNK         0.1106 
    107 H107       23.2887  -33.7754  -43.9467 H         1 UNK         0.0828 
    108 H108       24.3426  -32.3711  -43.8573 H         1 UNK         0.0828 
    109 H109       22.6048  -32.1957  -43.6088 H         1 UNK         0.0828 
    110 H110       21.7215  -31.8412  -40.7896 H         1 UNK         0.2931 
    111 H111       20.3757  -34.1382  -39.6193 H         1 UNK         0.0412 
    112 H112       20.4996  -30.8298  -37.6406 H         1 UNK         0.3472 
    113 H113       21.7226  -31.4590  -38.7077 H         1 UNK         0.3472 
    114 H114       19.3383  -34.2203  -41.7993 H         1 UNK         0.0970 
    115 H115       18.1570  -33.6695  -40.6484 H         1 UNK         0.0970 
    116 H116       16.5147  -32.5718  -42.7404 H         1 UNK         0.0612 
    117 H117       17.6824  -33.5655  -43.5906 H         1 UNK         0.0612 
@<TRIPOS>BOND
     1    1    2 1    
     2    1   62 1    
     3    1   63 1    
     4    1   64 1    
     5    2    3 2    
     6    2    4 am   BACKBONE|DICT|INTERRES
     7    4    5 1    
     8    4   65 1    
     9    5    6 1    
    10    5   25 1    
    11    5   66 1    
    12    6    7 1    
    13    6   67 1    
    14    6   68 1    
    15    7    8 1    
    16    8    9 1    
    17    8   69 1    
    18    8   70 1    
    19    9   10 ar   
    20    9   14 ar   
    21   10   11 ar   
    22   10   71 1    
    23   11   12 ar   
    24   11   61 1    
    25   12   13 ar   
    26   12   72 1    
    27   13   14 ar   
    28   13   15 1    
    29   14   73 1    
    30   15   16 1    
    31   15   74 1    
    32   15   75 1    
    33   16   17 1    
    34   17   18 1    
    35   17   76 1    
    36   17   77 1    
    37   18   19 1    
    38   18   27 1    
    39   18   78 1    
    40   19   20 am   BACKBONE|DICT|INTERRES
    41   19   79 1    
    42   20   21 2    
    43   20   22 1    
    44   22   23 1    
    45   22   24 1    
    46   22   80 1    
    47   23   81 1    
    48   23   82 1    
    49   23   83 1    
    50   24   25 am   BACKBONE|DICT|INTERRES
    51   24   84 1    
    52   25   26 2    
    53   27   28 2    
    54   27   29 am   BACKBONE|DICT|INTERRES
    55   29   30 1    
    56   29   85 1    
    57   30   31 1    
    58   30   32 1    
    59   30   86 1    
    60   31   87 1    
    61   31   88 1    
    62   31   89 1    
    63   32   33 2    
    64   32   34 am   BACKBONE|DICT|INTERRES
    65   34   35 1    
    66   34   90 1    
    67   35   36 1    
    68   35   37 1    
    69   35   91 1    
    70   36   92 1    
    71   36   93 1    
    72   36   94 1    
    73   37   38 2    
    74   37   39 am   BACKBONE|DICT|INTERRES
    75   39   40 1    
    76   39   95 1    
    77   40   41 1    
    78   40   42 1    
    79   40   96 1    
    80   41   97 1    
    81   41   98 1    
    82   41   99 1    
    83   42   43 2    
    84   42   44 am   BACKBONE|DICT|INTERRES
    85   44   45 1    
    86   44  100 1    
    87   45   46 1    
    88   45   47 1    
    89   45  101 1    
    90   46  102 1    
    91   46  103 1    
    92   46  104 1    
    93   47   48 2    
    94   47   49 am   BACKBONE|DICT|INTERRES
    95   49   50 1    
    96   49  105 1    
    97   50   51 1    
    98   50   52 1    
    99   50  106 1    
   100   51  107 1    
   101   51  108 1    
   102   51  109 1    
   103   52   53 2    
   104   52   54 am   BACKBONE|DICT|INTERRES
   105   54   55 1    
   106   54  110 1    
   107   55   56 1    
   108   55   59 1    
   109   55  111 1    
   110   56   57 am   BACKBONE|DICT|INTERRES
   111   56   58 2    
   112   57  112 1    
   113   57  113 1    
   114   59   60 1    
   115   59  114 1    
   116   59  115 1    
   117   60   61 1    
   118   61  116 1    
   119   61  117 1    
@<TRIPOS>SUBSTRUCTURE
     1 UNK         1 GROUP             0       ****    0 ROOT    
