@<TRIPOS>MOLECULE
3R8
117   119    1
SMALL
USER_CHARGES


@<TRIPOS>ATOM
      1 CA         21.9616  -24.0569  -48.0939 C.3       0 UNK        -0.2013 
      2 C          21.1294  -24.9682  -47.2052 C.2       0 UNK         0.4866 
      3 O          21.6861  -25.7620  -46.4460 O.2       0 UNK        -0.5176 
      4 N          19.7964  -24.8607  -47.2809 N.am      1 UNK        -0.4884 
      5 CA         18.8380  -25.6409  -46.4907 C.3       1 UNK         0.0853 
      6 C6         17.4789  -25.7576  -47.2289 C.3       10 UNK        -0.0849 
      7 S7         16.3352  -26.9590  -46.4660 S.3       10 UNK        -0.2776 
      8 C8         16.9903  -28.5612  -47.0533 C.3       10 UNK         0.0316 
      9 C9         17.2289  -29.5943  -45.9485 C.ar      10 UNK        -0.0863 
     10 C10        18.1475  -30.6248  -46.1778 C.ar      10 UNK        -0.1009 
     11 C11        18.3565  -31.6248  -45.2235 C.ar      10 UNK        -0.0712 
     12 C12        17.6401  -31.5913  -44.0237 C.ar      10 UNK        -0.0894 
     13 C13        16.7275  -30.5645  -43.7706 C.ar      10 UNK        -0.0745 
     14 C14        16.5222  -29.5754  -44.7370 C.ar      10 UNK        -0.0972 
     15 C15        15.9410  -30.5400  -42.4658 C.3       10 UNK         0.0209 
     16 S16        17.0014  -30.2352  -41.0152 S.3       10 UNK        -0.2568 
     17 C17        17.6334  -28.5544  -41.3439 C.3       10 UNK        -0.0983 
     18 CA         19.0730  -28.5728  -41.9275 C.3       3 UNK         0.0876 
     19 N          19.4276  -27.2988  -42.5590 N.am      3 UNK        -0.4424 
     20 C          19.6894  -26.1284  -41.9554 C.2       2 UNK         0.4918 
     21 O          19.7479  -25.9881  -40.7331 O.2       2 UNK        -0.4875 
     22 CA         19.9191  -24.9015  -42.8642 C.3       2 UNK         0.0481 
     23 CB         21.2784  -24.2350  -42.5951 C.3       2 UNK        -0.1831 
     24 N          19.8256  -25.2388  -44.2885 N.am      2 UNK        -0.4498 
     25 C          18.7345  -25.0869  -45.0499 C.2       1 UNK         0.5027 
     26 O          17.7042  -24.5332  -44.6620 O.2       1 UNK        -0.4969 
     27 C          20.1728  -29.0459  -40.9517 C.2       3 UNK         0.5005 
     28 O          21.2547  -29.4231  -41.4045 O.2       3 UNK        -0.5279 
     29 N          19.9106  -29.0015  -39.6381 N.am      4 UNK        -0.4463 
     30 CA         20.8608  -29.3581  -38.5802 C.3       4 UNK         0.0283 
     31 CB         20.1761  -29.2339  -37.2108 C.3       4 UNK        -0.1875 
     32 C          22.1568  -28.5275  -38.6122 C.2       4 UNK         0.4949 
     33 O          23.2271  -29.0645  -38.3279 O.2       4 UNK        -0.5039 
     34 N          22.0475  -27.2512  -39.0048 N.am      5 UNK        -0.4663 
     35 CA         23.1869  -26.3491  -39.1762 C.3       5 UNK         0.0242 
     36 CB         22.7133  -24.8982  -39.0011 C.3       5 UNK        -0.1982 
     37 C          23.9268  -26.5458  -40.5127 C.2       5 UNK         0.5017 
     38 O          25.0465  -26.0514  -40.6441 O.2       5 UNK        -0.5012 
     39 N          23.3386  -27.2851  -41.4668 N.am      6 UNK        -0.4439 
     40 CA         23.9573  -27.6472  -42.7462 C.3       6 UNK         0.0297 
     41 CB         22.8794  -27.7279  -43.8446 C.3       6 UNK        -0.2006 
     42 C          24.7553  -28.9556  -42.6021 C.2       6 UNK         0.4892 
     43 O          24.5105  -29.9128  -43.3372 O.2       6 UNK        -0.5089 
     44 N          25.6837  -28.9681  -41.6336 N.am      7 UNK        -0.4243 
     45 CA         26.5580  -30.0832  -41.2499 C.3       7 UNK         0.0196 
     46 CB         27.6056  -30.3513  -42.3520 C.3       7 UNK        -0.2007 
     47 C          25.7785  -31.3491  -40.8373 C.2       7 UNK         0.5020 
     48 O          26.1426  -32.4525  -41.2475 O.2       7 UNK        -0.5147 
     49 N          24.7254  -31.1597  -40.0255 N.am      8 UNK        -0.4734 
     50 CA         23.8225  -32.1901  -39.4970 C.3       8 UNK         0.0238 
     51 CB         24.5646  -33.1110  -38.5036 C.3       8 UNK        -0.1912 
     52 C          23.0830  -32.9643  -40.6055 C.2       8 UNK         0.5038 
     53 O          23.1225  -34.1967  -40.6226 O.2       8 UNK        -0.5046 
     54 N          22.4268  -32.2279  -41.5144 N.am      9 UNK        -0.4200 
     55 CA         21.6117  -32.7937  -42.6024 C.3       9 UNK         0.0839 
     56 C          20.3695  -33.5786  -42.0923 C.2       9 UNK         0.5513 
     57 N          19.7009  -33.1151  -41.0421 N.am      9 UNK        -0.7519 
     58 O          20.0226  -34.6225  -42.6370 O.2       9 UNK        -0.4960 
     59 C59        21.2105  -31.7011  -43.6297 C.3       10 UNK        -0.0876 
     60 S60        21.0753  -32.2961  -45.3498 S.3       10 UNK        -0.2414 
     61 C61        19.3206  -32.7688  -45.5065 C.3       10 UNK         0.0169 
     62 H62        22.6034  -23.4228  -47.4829 H         1 UNK         0.0903 
     63 H63        22.5958  -24.6520  -48.7503 H         1 UNK         0.0903 
     64 H64        21.3395  -23.4129  -48.7152 H         1 UNK         0.0903 
     65 H65        19.3932  -24.1679  -47.8967 H         1 UNK         0.3096 
     66 H66        19.2346  -26.6551  -46.4017 H         1 UNK         0.1121 
     67 H67        16.9812  -24.7869  -47.2723 H         1 UNK         0.0849 
     68 H68        17.6382  -26.0540  -48.2672 H         1 UNK         0.0849 
     69 H69        16.2836  -28.9796  -47.7711 H         1 UNK         0.0865 
     70 H70        17.9183  -28.3971  -47.6028 H         1 UNK         0.0865 
     71 H71        18.6924  -30.6635  -47.1115 H         1 UNK         0.1346 
     72 H72        17.7890  -32.3656  -43.2833 H         1 UNK         0.1412 
     73 H73        15.7944  -28.8004  -44.5428 H         1 UNK         0.1426 
     74 H74        15.4387  -31.4997  -42.3366 H         1 UNK         0.0716 
     75 H75        15.1527  -29.7862  -42.4967 H         1 UNK         0.0716 
     76 H76        16.9576  -28.0689  -42.0499 H         1 UNK         0.0695 
     77 H77        17.5718  -27.9559  -40.4337 H         1 UNK         0.0695 
     78 H78        19.0796  -29.2938  -42.7448 H         1 UNK         0.0983 
     79 H79        19.4329  -27.3072  -43.5672 H         1 UNK         0.3095 
     80 H80        19.1459  -24.1730  -42.6130 H         1 UNK         0.0454 
     81 H81        22.1018  -24.9475  -42.6043 H         1 UNK         0.0851 
     82 H82        21.4964  -23.4628  -43.3330 H         1 UNK         0.0851 
     83 H83        21.2780  -23.7452  -41.6225 H         1 UNK         0.0851 
     84 H84        20.6579  -25.6110  -44.7379 H         1 UNK         0.2976 
     85 H85        18.9995  -28.6788  -39.3449 H         1 UNK         0.3116 
     86 H86        21.1313  -30.4040  -38.7290 H         1 UNK         0.0646 
     87 H87        20.8573  -29.5184  -36.4074 H         1 UNK         0.0847 
     88 H88        19.3057  -29.8866  -37.1403 H         1 UNK         0.0847 
     89 H89        19.8484  -28.2125  -37.0129 H         1 UNK         0.0847 
     90 H90        21.1362  -26.8937  -39.2700 H         1 UNK         0.3040 
     91 H91        23.9163  -26.5525  -38.3884 H         1 UNK         0.1015 
     92 H92        22.3724  -24.7187  -37.9813 H         1 UNK         0.0786 
     93 H93        21.8888  -24.6594  -39.6692 H         1 UNK         0.0786 
     94 H94        23.5183  -24.1894  -39.2010 H         1 UNK         0.0786 
     95 H95        22.4709  -27.7629  -41.2486 H         1 UNK         0.3172 
     96 H96        24.6643  -26.8705  -43.0453 H         1 UNK         0.0595 
     97 H97        22.3651  -26.7782  -43.9691 H         1 UNK         0.0839 
     98 H98        22.1314  -28.4908  -43.6345 H         1 UNK         0.0839 
     99 H99        23.3249  -27.9723  -44.8098 H         1 UNK         0.0839 
    100 H100       25.7919  -28.1168  -41.0950 H         1 UNK         0.2998 
    101 H101       27.0967  -29.7582  -40.3584 H         1 UNK         0.0822 
    102 H102       28.1609  -29.4470  -42.6005 H         1 UNK         0.0787 
    103 H103       28.3325  -31.0974  -42.0282 H         1 UNK         0.0787 
    104 H104       27.1435  -30.7235  -43.2671 H         1 UNK         0.0787 
    105 H105       24.5038  -30.2135  -39.7369 H         1 UNK         0.3055 
    106 H106       23.0524  -31.6704  -38.9288 H         1 UNK         0.1106 
    107 H107       23.8739  -33.8093  -38.0292 H         1 UNK         0.0828 
    108 H108       25.3371  -33.7038  -38.9944 H         1 UNK         0.0828 
    109 H109       25.0379  -32.5355  -37.7081 H         1 UNK         0.0828 
    110 H110       22.4230  -31.2176  -41.4360 H         1 UNK         0.2931 
    111 H111       22.2565  -33.5114  -43.1140 H         1 UNK         0.0412 
    112 H112       18.9039  -33.6286  -40.7004 H         1 UNK         0.3472 
    113 H113       19.9855  -32.2648  -40.5849 H         1 UNK         0.3472 
    114 H114       21.9801  -30.9286  -43.6562 H         1 UNK         0.0970 
    115 H115       20.3028  -31.1811  -43.3292 H         1 UNK         0.0970 
    116 H116       19.1534  -33.1301  -46.5221 H         1 UNK         0.0612 
    117 H117       19.1111  -33.6171  -44.8559 H         1 UNK         0.0612 
@<TRIPOS>BOND
     1    1    2 1    
     2    1   62 1    
     3    1   63 1    
     4    1   64 1    
     5    2    3 2    
     6    2    4 am   BACKBONE|DICT|INTERRES
     7    4    5 1    
     8    4   65 1    
     9    5    6 1    
    10    5   25 1    
    11    5   66 1    
    12    6    7 1    
    13    6   67 1    
    14    6   68 1    
    15    7    8 1    
    16    8    9 1    
    17    8   69 1    
    18    8   70 1    
    19    9   10 ar   
    20    9   14 ar   
    21   10   11 ar   
    22   10   71 1    
    23   11   12 ar   
    24   11   61 1    
    25   12   13 ar   
    26   12   72 1    
    27   13   14 ar   
    28   13   15 1    
    29   14   73 1    
    30   15   16 1    
    31   15   74 1    
    32   15   75 1    
    33   16   17 1    
    34   17   18 1    
    35   17   76 1    
    36   17   77 1    
    37   18   19 1    
    38   18   27 1    
    39   18   78 1    
    40   19   20 am   BACKBONE|DICT|INTERRES
    41   19   79 1    
    42   20   21 2    
    43   20   22 1    
    44   22   23 1    
    45   22   24 1    
    46   22   80 1    
    47   23   81 1    
    48   23   82 1    
    49   23   83 1    
    50   24   25 am   BACKBONE|DICT|INTERRES
    51   24   84 1    
    52   25   26 2    
    53   27   28 2    
    54   27   29 am   BACKBONE|DICT|INTERRES
    55   29   30 1    
    56   29   85 1    
    57   30   31 1    
    58   30   32 1    
    59   30   86 1    
    60   31   87 1    
    61   31   88 1    
    62   31   89 1    
    63   32   33 2    
    64   32   34 am   BACKBONE|DICT|INTERRES
    65   34   35 1    
    66   34   90 1    
    67   35   36 1    
    68   35   37 1    
    69   35   91 1    
    70   36   92 1    
    71   36   93 1    
    72   36   94 1    
    73   37   38 2    
    74   37   39 am   BACKBONE|DICT|INTERRES
    75   39   40 1    
    76   39   95 1    
    77   40   41 1    
    78   40   42 1    
    79   40   96 1    
    80   41   97 1    
    81   41   98 1    
    82   41   99 1    
    83   42   43 2    
    84   42   44 am   BACKBONE|DICT|INTERRES
    85   44   45 1    
    86   44  100 1    
    87   45   46 1    
    88   45   47 1    
    89   45  101 1    
    90   46  102 1    
    91   46  103 1    
    92   46  104 1    
    93   47   48 2    
    94   47   49 am   BACKBONE|DICT|INTERRES
    95   49   50 1    
    96   49  105 1    
    97   50   51 1    
    98   50   52 1    
    99   50  106 1    
   100   51  107 1    
   101   51  108 1    
   102   51  109 1    
   103   52   53 2    
   104   52   54 am   BACKBONE|DICT|INTERRES
   105   54   55 1    
   106   54  110 1    
   107   55   56 1    
   108   55   59 1    
   109   55  111 1    
   110   56   57 am   BACKBONE|DICT|INTERRES
   111   56   58 2    
   112   57  112 1    
   113   57  113 1    
   114   59   60 1    
   115   59  114 1    
   116   59  115 1    
   117   60   61 1    
   118   61  116 1    
   119   61  117 1    
@<TRIPOS>SUBSTRUCTURE
     1 UNK         1 GROUP             0       ****    0 ROOT    
