@<TRIPOS>MOLECULE
3R8
117   119    1
SMALL
USER_CHARGES


@<TRIPOS>ATOM
      1 CA         15.7179  -31.8211  -42.7720 C.3       0 UNK        -0.2013 
      2 C          15.6465  -30.3840  -42.2785 C.2       0 UNK         0.4866 
      3 O          15.5661  -30.1479  -41.0734 O.2       0 UNK        -0.5176 
      4 N          15.6486  -29.4214  -43.2096 N.am      1 UNK        -0.4884 
      5 CA         15.5287  -27.9854  -42.9312 C.3       1 UNK         0.0853 
      6 C6         15.0441  -27.2081  -44.1881 C.3       10 UNK        -0.0849 
      7 S7         16.3106  -26.6910  -45.4054 S.3       10 UNK        -0.2776 
      8 C8         16.7228  -28.2275  -46.2929 C.3       10 UNK         0.0316 
      9 C9         18.1641  -28.6466  -46.0279 C.ar      10 UNK        -0.0863 
     10 C10        18.4579  -29.7946  -45.2849 C.ar      10 UNK        -0.1009 
     11 C11        19.7845  -30.1748  -45.0536 C.ar      10 UNK        -0.0712 
     12 C12        20.8237  -29.4084  -45.5938 C.ar      10 UNK        -0.0894 
     13 C13        20.5425  -28.2783  -46.3701 C.ar      10 UNK        -0.0745 
     14 C14        19.2128  -27.8963  -46.5684 C.ar      10 UNK        -0.0972 
     15 C15        21.6627  -27.5195  -47.0719 C.3       10 UNK         0.0209 
     16 S16        22.8100  -26.6894  -45.9316 S.3       10 UNK        -0.2568 
     17 C17        21.8187  -25.2924  -45.2979 C.3       10 UNK        -0.0983 
     18 CA         21.8218  -25.1614  -43.7469 C.3       3 UNK         0.0876 
     19 N          21.1302  -26.2630  -43.0837 N.am      3 UNK        -0.4424 
     20 C          19.8092  -26.3410  -42.9120 C.2       2 UNK         0.4918 
     21 O          19.0234  -25.4807  -43.3134 O.2       2 UNK        -0.4875 
     22 CA         19.3141  -27.5769  -42.1383 C.3       2 UNK         0.0481 
     23 CB         19.4634  -27.3895  -40.6148 C.3       2 UNK        -0.1831 
     24 N          17.9540  -27.9868  -42.5077 N.am      2 UNK        -0.4498 
     25 C          16.7839  -27.3718  -42.2656 C.2       1 UNK         0.5027 
     26 O          16.6483  -26.3751  -41.5534 O.2       1 UNK        -0.4969 
     27 C          23.2078  -24.9809  -43.0933 C.2       3 UNK         0.5005 
     28 O          23.3885  -25.3578  -41.9323 O.2       3 UNK        -0.5279 
     29 N          24.1642  -24.4069  -43.8362 N.am      4 UNK        -0.4463 
     30 CA         25.5453  -24.1695  -43.4029 C.3       4 UNK         0.0283 
     31 CB         26.2203  -23.2104  -44.3975 C.3       4 UNK        -0.1875 
     32 C          26.3906  -25.4487  -43.2357 C.2       4 UNK         0.4949 
     33 O          27.4473  -25.3830  -42.6065 O.2       4 UNK        -0.5039 
     34 N          25.9336  -26.5752  -43.7945 N.am      5 UNK        -0.4663 
     35 CA         26.5572  -27.8908  -43.6824 C.3       5 UNK         0.0242 
     36 CB         27.3480  -28.1876  -44.9678 C.3       5 UNK        -0.1982 
     37 C          25.4625  -28.9404  -43.4596 C.2       5 UNK         0.5017 
     38 O          24.3172  -28.7170  -43.8539 O.2       5 UNK        -0.5012 
     39 N          25.8370  -30.0687  -42.8385 N.am      6 UNK        -0.4439 
     40 CA         24.9872  -31.2354  -42.5493 C.3       6 UNK         0.0297 
     41 CB         24.6085  -31.9644  -43.8570 C.3       6 UNK        -0.2006 
     42 C          23.7492  -30.9216  -41.6813 C.2       6 UNK         0.4892 
     43 O          22.7498  -31.6339  -41.7709 O.2       6 UNK        -0.5089 
     44 N          23.8438  -29.8827  -40.8355 N.am      7 UNK        -0.4243 
     45 CA         22.7573  -29.3301  -40.0141 C.3       7 UNK         0.0196 
     46 CB         23.2629  -28.0667  -39.2998 C.3       7 UNK        -0.2007 
     47 C          22.1274  -30.3072  -39.0039 C.2       7 UNK         0.5020 
     48 O          21.0181  -30.0570  -38.5317 O.2       7 UNK        -0.5147 
     49 N          22.8149  -31.4235  -38.7271 N.am      8 UNK        -0.4734 
     50 CA         22.3166  -32.5718  -37.9656 C.3       8 UNK         0.0238 
     51 CB         23.4687  -33.5697  -37.7614 C.3       8 UNK        -0.1912 
     52 C          21.0971  -33.2742  -38.5999 C.2       8 UNK         0.5038 
     53 O          20.4531  -34.0665  -37.9104 O.2       8 UNK        -0.5046 
     54 N          20.7889  -32.9780  -39.8730 N.am      9 UNK        -0.4200 
     55 CA         19.5595  -33.4038  -40.5570 C.3       9 UNK         0.0839 
     56 C          18.2349  -32.8865  -39.9185 C.2       9 UNK         0.5513 
     57 N          18.2497  -31.8055  -39.1457 N.am      9 UNK        -0.7519 
     58 O          17.1846  -33.4906  -40.1189 O.2       9 UNK        -0.4960 
     59 C59        19.6222  -33.1212  -42.0828 C.3       10 UNK        -0.0876 
     60 S60        19.5496  -31.3515  -42.5439 S.3       10 UNK        -0.2414 
     61 C61        20.0853  -31.4519  -44.2794 C.3       10 UNK         0.0169 
     62 H62        16.6924  -32.2479  -42.5449 H         1 UNK         0.0903 
     63 H63        14.9608  -32.4271  -42.2750 H         1 UNK         0.0903 
     64 H64        15.5562  -31.8942  -43.8471 H         1 UNK         0.0903 
     65 H65        15.6774  -29.6767  -44.1844 H         1 UNK         0.3096 
     66 H66        14.7341  -27.8897  -42.1867 H         1 UNK         0.1121 
     67 H67        14.2591  -27.7634  -44.7042 H         1 UNK         0.0849 
     68 H68        14.5588  -26.2894  -43.8537 H         1 UNK         0.0849 
     69 H69        16.0237  -29.0232  -46.0359 H         1 UNK         0.0865 
     70 H70        16.5954  -28.0554  -47.3627 H         1 UNK         0.0865 
     71 H71        17.6604  -30.4087  -44.8929 H         1 UNK         0.1346 
     72 H72        21.8528  -29.7054  -45.4398 H         1 UNK         0.1412 
     73 H73        18.9872  -27.0233  -47.1658 H         1 UNK         0.1426 
     74 H74        21.2617  -26.7828  -47.7697 H         1 UNK         0.0716 
     75 H75        22.2328  -28.2265  -47.6761 H         1 UNK         0.0716 
     76 H76        20.7906  -25.3957  -45.6482 H         1 UNK         0.0695 
     77 H77        22.1838  -24.3748  -45.7613 H         1 UNK         0.0695 
     78 H78        21.2879  -24.2406  -43.5013 H         1 UNK         0.0983 
     79 H79        21.7392  -26.9684  -42.6922 H         1 UNK         0.3095 
     80 H80        19.9553  -28.4087  -42.4322 H         1 UNK         0.0454 
     81 H81        20.4952  -27.1628  -40.3471 H         1 UNK         0.0851 
     82 H82        19.1798  -28.2939  -40.0759 H         1 UNK         0.0851 
     83 H83        18.8556  -26.5670  -40.2387 H         1 UNK         0.0851 
     84 H84        17.9165  -28.7871  -43.1225 H         1 UNK         0.2976 
     85 H85        23.9420  -24.1545  -44.7889 H         1 UNK         0.3116 
     86 H86        25.5102  -23.6787  -42.4280 H         1 UNK         0.0646 
     87 H87        25.6834  -22.2642  -44.4663 H         1 UNK         0.0847 
     88 H88        26.2769  -23.6405  -45.3983 H         1 UNK         0.0847 
     89 H89        27.2399  -22.9781  -44.0861 H         1 UNK         0.0847 
     90 H90        25.0214  -26.5761  -44.2357 H         1 UNK         0.3040 
     91 H91        27.2334  -27.9140  -42.8246 H         1 UNK         0.1015 
     92 H92        26.7013  -28.1847  -45.8465 H         1 UNK         0.0786 
     93 H93        27.8285  -29.1656  -44.9181 H         1 UNK         0.0786 
     94 H94        28.1333  -27.4487  -45.1282 H         1 UNK         0.0786 
     95 H95        26.8021  -30.1542  -42.5481 H         1 UNK         0.3172 
     96 H96        25.5996  -31.9182  -41.9587 H         1 UNK         0.0595 
     97 H97        24.1017  -32.9077  -43.6491 H         1 UNK         0.0839 
     98 H98        25.4905  -32.1978  -44.4531 H         1 UNK         0.0839 
     99 H99        23.9359  -31.3652  -44.4719 H         1 UNK         0.0839 
    100 H100       24.7152  -29.3736  -40.8214 H         1 UNK         0.2998 
    101 H101       21.9612  -29.0434  -40.7032 H         1 UNK         0.0822 
    102 H102       23.6038  -27.3161  -40.0133 H         1 UNK         0.0787 
    103 H103       22.4712  -27.6080  -38.7055 H         1 UNK         0.0787 
    104 H104       24.0894  -28.2897  -38.6242 H         1 UNK         0.0787 
    105 H105       23.7122  -31.5364  -39.1755 H         1 UNK         0.3055 
    106 H106       21.9965  -32.2061  -36.9875 H         1 UNK         0.1106 
    107 H107       24.3058  -33.1098  -37.2360 H         1 UNK         0.0828 
    108 H108       23.1456  -34.4236  -37.1641 H         1 UNK         0.0828 
    109 H109       23.8383  -33.9586  -38.7111 H         1 UNK         0.0828 
    110 H110       21.3881  -32.3457  -40.3937 H         1 UNK         0.2931 
    111 H111       19.5289  -34.4899  -40.4493 H         1 UNK         0.0412 
    112 H112       19.1101  -31.2983  -38.9893 H         1 UNK         0.3472 
    113 H113       17.3852  -31.4714  -38.7508 H         1 UNK         0.3472 
    114 H114       20.5398  -33.5479  -42.4916 H         1 UNK         0.0970 
    115 H115       18.8067  -33.6399  -42.5897 H         1 UNK         0.0970 
    116 H116       19.5767  -32.2846  -44.7672 H         1 UNK         0.0612 
    117 H117       21.1522  -31.6804  -44.3027 H         1 UNK         0.0612 
@<TRIPOS>BOND
     1    1    2 1    
     2    1   62 1    
     3    1   63 1    
     4    1   64 1    
     5    2    3 2    
     6    2    4 am   BACKBONE|DICT|INTERRES
     7    4    5 1    
     8    4   65 1    
     9    5    6 1    
    10    5   25 1    
    11    5   66 1    
    12    6    7 1    
    13    6   67 1    
    14    6   68 1    
    15    7    8 1    
    16    8    9 1    
    17    8   69 1    
    18    8   70 1    
    19    9   10 ar   
    20    9   14 ar   
    21   10   11 ar   
    22   10   71 1    
    23   11   12 ar   
    24   11   61 1    
    25   12   13 ar   
    26   12   72 1    
    27   13   14 ar   
    28   13   15 1    
    29   14   73 1    
    30   15   16 1    
    31   15   74 1    
    32   15   75 1    
    33   16   17 1    
    34   17   18 1    
    35   17   76 1    
    36   17   77 1    
    37   18   19 1    
    38   18   27 1    
    39   18   78 1    
    40   19   20 am   BACKBONE|DICT|INTERRES
    41   19   79 1    
    42   20   21 2    
    43   20   22 1    
    44   22   23 1    
    45   22   24 1    
    46   22   80 1    
    47   23   81 1    
    48   23   82 1    
    49   23   83 1    
    50   24   25 am   BACKBONE|DICT|INTERRES
    51   24   84 1    
    52   25   26 2    
    53   27   28 2    
    54   27   29 am   BACKBONE|DICT|INTERRES
    55   29   30 1    
    56   29   85 1    
    57   30   31 1    
    58   30   32 1    
    59   30   86 1    
    60   31   87 1    
    61   31   88 1    
    62   31   89 1    
    63   32   33 2    
    64   32   34 am   BACKBONE|DICT|INTERRES
    65   34   35 1    
    66   34   90 1    
    67   35   36 1    
    68   35   37 1    
    69   35   91 1    
    70   36   92 1    
    71   36   93 1    
    72   36   94 1    
    73   37   38 2    
    74   37   39 am   BACKBONE|DICT|INTERRES
    75   39   40 1    
    76   39   95 1    
    77   40   41 1    
    78   40   42 1    
    79   40   96 1    
    80   41   97 1    
    81   41   98 1    
    82   41   99 1    
    83   42   43 2    
    84   42   44 am   BACKBONE|DICT|INTERRES
    85   44   45 1    
    86   44  100 1    
    87   45   46 1    
    88   45   47 1    
    89   45  101 1    
    90   46  102 1    
    91   46  103 1    
    92   46  104 1    
    93   47   48 2    
    94   47   49 am   BACKBONE|DICT|INTERRES
    95   49   50 1    
    96   49  105 1    
    97   50   51 1    
    98   50   52 1    
    99   50  106 1    
   100   51  107 1    
   101   51  108 1    
   102   51  109 1    
   103   52   53 2    
   104   52   54 am   BACKBONE|DICT|INTERRES
   105   54   55 1    
   106   54  110 1    
   107   55   56 1    
   108   55   59 1    
   109   55  111 1    
   110   56   57 am   BACKBONE|DICT|INTERRES
   111   56   58 2    
   112   57  112 1    
   113   57  113 1    
   114   59   60 1    
   115   59  114 1    
   116   59  115 1    
   117   60   61 1    
   118   61  116 1    
   119   61  117 1    
@<TRIPOS>SUBSTRUCTURE
     1 UNK         1 GROUP             0       ****    0 ROOT    
