@<TRIPOS>MOLECULE
3R8
117   119    1
SMALL
USER_CHARGES


@<TRIPOS>ATOM
      1 CA         15.5771  -24.9332  -44.2244 C.3       0 UNK        -0.2013 
      2 C          16.6467  -25.1536  -45.2831 C.2       0 UNK         0.4866 
      3 O          17.2766  -24.1946  -45.7294 O.2       0 UNK        -0.5176 
      4 N          16.8731  -26.4101  -45.6850 N.am      1 UNK        -0.4884 
      5 CA         17.7285  -26.8113  -46.8133 C.3       1 UNK         0.0853 
      6 C6         17.2468  -28.1381  -47.4796 C.3       10 UNK        -0.0849 
      7 S7         15.4258  -28.3457  -47.5117 S.3       10 UNK        -0.2776 
      8 C8         15.1607  -29.8795  -46.5503 C.3       10 UNK         0.0316 
      9 C9         15.8815  -29.9005  -45.2043 C.ar      10 UNK        -0.0863 
     10 C10        17.0354  -30.6761  -45.0500 C.ar      10 UNK        -0.1009 
     11 C11        17.7075  -30.7171  -43.8275 C.ar      10 UNK        -0.0712 
     12 C12        17.2026  -30.0003  -42.7425 C.ar      10 UNK        -0.0894 
     13 C13        16.0523  -29.2140  -42.8755 C.ar      10 UNK        -0.0745 
     14 C14        15.3932  -29.1736  -44.1119 C.ar      10 UNK        -0.0972 
     15 C15        15.4880  -28.4346  -41.6873 C.3       10 UNK         0.0209 
     16 S16        16.7511  -27.7851  -40.5321 S.3       10 UNK        -0.2568 
     17 C17        17.6372  -26.5802  -41.5742 C.3       10 UNK        -0.0983 
     18 CA         19.1240  -26.9386  -41.8385 C.3       3 UNK         0.0876 
     19 N          19.5795  -26.2924  -43.0760 N.am      3 UNK        -0.4424 
     20 C          20.7843  -26.3904  -43.6575 C.2       2 UNK         0.4918 
     21 O          21.7364  -26.9999  -43.1708 O.2       2 UNK        -0.4875 
     22 CA         20.9315  -25.6433  -44.9997 C.3       2 UNK         0.0481 
     23 CB         22.2022  -26.0401  -45.7816 C.3       2 UNK        -0.1831 
     24 N          19.7089  -25.7571  -45.8106 N.am      2 UNK        -0.4498 
     25 C          19.2149  -26.8660  -46.3839 C.2       1 UNK         0.5027 
     26 O          19.8597  -27.9047  -46.5241 O.2       1 UNK        -0.4969 
     27 C          20.0101  -26.6244  -40.6112 C.2       3 UNK         0.5005 
     28 O          20.1578  -27.4730  -39.7310 O.2       3 UNK        -0.5279 
     29 N          20.6074  -25.4224  -40.5888 N.am      4 UNK        -0.4463 
     30 CA         21.5452  -24.9643  -39.5600 C.3       4 UNK         0.0283 
     31 CB         21.8198  -23.4650  -39.7570 C.3       4 UNK        -0.1875 
     32 C          22.8695  -25.7505  -39.5291 C.2       4 UNK         0.4949 
     33 O          23.4928  -25.8279  -38.4707 O.2       4 UNK        -0.5039 
     34 N          23.2684  -26.3439  -40.6628 N.am      5 UNK        -0.4663 
     35 CA         24.4522  -27.1951  -40.7943 C.3       5 UNK         0.0242 
     36 CB         25.1089  -26.9315  -42.1629 C.3       5 UNK        -0.1982 
     37 C          24.0648  -28.6715  -40.6028 C.2       5 UNK         0.5017 
     38 O          24.4178  -29.5122  -41.4305 O.2       5 UNK        -0.5012 
     39 N          23.3312  -28.9631  -39.5187 N.am      6 UNK        -0.4439 
     40 CA         22.7122  -30.2571  -39.2047 C.3       6 UNK         0.0297 
     41 CB         21.9964  -30.1608  -37.8486 C.3       6 UNK        -0.2006 
     42 C          23.6654  -31.4652  -39.2221 C.2       6 UNK         0.4892 
     43 O          23.2463  -32.5522  -39.6195 O.2       6 UNK        -0.5089 
     44 N          24.9292  -31.2489  -38.8308 N.am      7 UNK        -0.4243 
     45 CA         25.9969  -32.2527  -38.8630 C.3       7 UNK         0.0196 
     46 CB         27.2283  -31.7045  -38.1241 C.3       7 UNK        -0.2007 
     47 C          26.3801  -32.7043  -40.2852 C.2       7 UNK         0.5020 
     48 O          26.8073  -33.8466  -40.4546 O.2       7 UNK        -0.5147 
     49 N          26.2217  -31.8146  -41.2742 N.am      8 UNK        -0.4734 
     50 CA         26.4243  -32.1095  -42.6936 C.3       8 UNK         0.0238 
     51 CB         27.0346  -30.8803  -43.3880 C.3       8 UNK        -0.1912 
     52 C          25.1045  -32.5104  -43.3699 C.2       8 UNK         0.5038 
     53 O          25.1102  -33.4060  -44.2153 O.2       8 UNK        -0.5046 
     54 N          24.0091  -31.8361  -42.9941 N.am      9 UNK        -0.4200 
     55 CA         22.6521  -32.0623  -43.5083 C.3       9 UNK         0.0839 
     56 C          22.0690  -33.4609  -43.1615 C.2       9 UNK         0.5513 
     57 N          22.2975  -33.9815  -41.9619 N.am      9 UNK        -0.7519 
     58 O          21.4130  -34.0841  -43.9917 O.2       9 UNK        -0.4960 
     59 C59        21.6958  -30.9198  -43.0728 C.3       10 UNK        -0.0876 
     60 S60        20.4046  -30.5623  -44.3059 S.3       10 UNK        -0.2414 
     61 C61        18.9895  -31.5188  -43.6805 C.3       10 UNK         0.0169 
     62 H62        15.1153  -25.8685  -43.9093 H         1 UNK         0.0903 
     63 H63        16.0044  -24.4475  -43.3477 H         1 UNK         0.0903 
     64 H64        14.7925  -24.2881  -44.6187 H         1 UNK         0.0903 
     65 H65        16.3472  -27.1709  -45.2766 H         1 UNK         0.3096 
     66 H66        17.6570  -26.0331  -47.5770 H         1 UNK         0.1121 
     67 H67        17.6086  -28.1780  -48.5083 H         1 UNK         0.0849 
     68 H68        17.6859  -29.0098  -46.9984 H         1 UNK         0.0849 
     69 H69        14.0900  -30.0097  -46.3867 H         1 UNK         0.0865 
     70 H70        15.4728  -30.7292  -47.1598 H         1 UNK         0.0865 
     71 H71        17.4265  -31.2369  -45.8882 H         1 UNK         0.1346 
     72 H72        17.7175  -30.0520  -41.7935 H         1 UNK         0.1412 
     73 H73        14.4921  -28.5856  -44.2243 H         1 UNK         0.1426 
     74 H74        14.8216  -29.0954  -41.1317 H         1 UNK         0.0716 
     75 H75        14.8748  -27.6015  -42.0339 H         1 UNK         0.0716 
     76 H76        17.5401  -25.5877  -41.1295 H         1 UNK         0.0695 
     77 H77        17.1042  -26.5291  -42.5220 H         1 UNK         0.0695 
     78 H78        19.2025  -28.0129  -42.0176 H         1 UNK         0.0983 
     79 H79        18.8820  -25.7544  -43.5654 H         1 UNK         0.3095 
     80 H80        21.0248  -24.5859  -44.7488 H         1 UNK         0.0454 
     81 H81        23.0988  -25.7718  -45.2217 H         1 UNK         0.0851 
     82 H82        22.2527  -27.1137  -45.9648 H         1 UNK         0.0851 
     83 H83        22.2548  -25.5301  -46.7431 H         1 UNK         0.0851 
     84 H84        19.0794  -24.9587  -45.7783 H         1 UNK         0.2976 
     85 H85        20.4278  -24.7891  -41.3542 H         1 UNK         0.3116 
     86 H86        21.0640  -25.0986  -38.5889 H         1 UNK         0.0646 
     87 H87        22.4928  -23.0876  -38.9856 H         1 UNK         0.0847 
     88 H88        20.9020  -22.8800  -39.6957 H         1 UNK         0.0847 
     89 H89        22.2862  -23.2620  -40.7220 H         1 UNK         0.0847 
     90 H90        22.6576  -26.3172  -41.4733 H         1 UNK         0.3040 
     91 H91        25.1828  -26.9481  -40.0209 H         1 UNK         0.1015 
     92 H92        25.3698  -25.8798  -42.2817 H         1 UNK         0.0786 
     93 H93        24.4509  -27.2090  -42.9874 H         1 UNK         0.0786 
     94 H94        26.0289  -27.5072  -42.2725 H         1 UNK         0.0786 
     95 H95        23.0918  -28.1942  -38.9071 H         1 UNK         0.3172 
     96 H96        21.9540  -30.4342  -39.9682 H         1 UNK         0.0595 
     97 H97        21.2250  -29.3902  -37.8616 H         1 UNK         0.0839 
     98 H98        22.6905  -29.9294  -37.0397 H         1 UNK         0.0839 
     99 H99        21.5048  -31.1021  -37.5981 H         1 UNK         0.0839 
    100 H100       25.1810  -30.3210  -38.5226 H         1 UNK         0.2998 
    101 H101       25.6399  -33.1348  -38.3268 H         1 UNK         0.0822 
    102 H102       26.9942  -31.4601  -37.0877 H         1 UNK         0.0787 
    103 H103       28.0328  -32.4413  -38.1073 H         1 UNK         0.0787 
    104 H104       27.6198  -30.8058  -38.6026 H         1 UNK         0.0787 
    105 H105       25.8130  -30.9118  -41.0574 H         1 UNK         0.3055 
    106 H106       27.1225  -32.9423  -42.8058 H         1 UNK         0.1106 
    107 H107       26.3814  -30.0091  -43.3240 H         1 UNK         0.0828 
    108 H108       27.9940  -30.6120  -42.9455 H         1 UNK         0.0828 
    109 H109       27.2104  -31.0784  -44.4463 H         1 UNK         0.0828 
    110 H110       24.1162  -31.0785  -42.3255 H         1 UNK         0.2931 
    111 H111       22.7474  -32.0217  -44.5955 H         1 UNK         0.0412 
    112 H112       22.7898  -33.4568  -41.2443 H         1 UNK         0.3472 
    113 H113       21.9261  -34.8921  -41.7440 H         1 UNK         0.3472 
    114 H114       22.2515  -29.9868  -42.9634 H         1 UNK         0.0970 
    115 H115       21.2567  -31.1078  -42.0924 H         1 UNK         0.0970 
    116 H116       19.1402  -31.7946  -42.6361 H         1 UNK         0.0612 
    117 H117       18.9163  -32.4545  -44.2367 H         1 UNK         0.0612 
@<TRIPOS>BOND
     1    1    2 1    
     2    1   62 1    
     3    1   63 1    
     4    1   64 1    
     5    2    3 2    
     6    2    4 am   BACKBONE|DICT|INTERRES
     7    4    5 1    
     8    4   65 1    
     9    5    6 1    
    10    5   25 1    
    11    5   66 1    
    12    6    7 1    
    13    6   67 1    
    14    6   68 1    
    15    7    8 1    
    16    8    9 1    
    17    8   69 1    
    18    8   70 1    
    19    9   10 ar   
    20    9   14 ar   
    21   10   11 ar   
    22   10   71 1    
    23   11   12 ar   
    24   11   61 1    
    25   12   13 ar   
    26   12   72 1    
    27   13   14 ar   
    28   13   15 1    
    29   14   73 1    
    30   15   16 1    
    31   15   74 1    
    32   15   75 1    
    33   16   17 1    
    34   17   18 1    
    35   17   76 1    
    36   17   77 1    
    37   18   19 1    
    38   18   27 1    
    39   18   78 1    
    40   19   20 am   BACKBONE|DICT|INTERRES
    41   19   79 1    
    42   20   21 2    
    43   20   22 1    
    44   22   23 1    
    45   22   24 1    
    46   22   80 1    
    47   23   81 1    
    48   23   82 1    
    49   23   83 1    
    50   24   25 am   BACKBONE|DICT|INTERRES
    51   24   84 1    
    52   25   26 2    
    53   27   28 2    
    54   27   29 am   BACKBONE|DICT|INTERRES
    55   29   30 1    
    56   29   85 1    
    57   30   31 1    
    58   30   32 1    
    59   30   86 1    
    60   31   87 1    
    61   31   88 1    
    62   31   89 1    
    63   32   33 2    
    64   32   34 am   BACKBONE|DICT|INTERRES
    65   34   35 1    
    66   34   90 1    
    67   35   36 1    
    68   35   37 1    
    69   35   91 1    
    70   36   92 1    
    71   36   93 1    
    72   36   94 1    
    73   37   38 2    
    74   37   39 am   BACKBONE|DICT|INTERRES
    75   39   40 1    
    76   39   95 1    
    77   40   41 1    
    78   40   42 1    
    79   40   96 1    
    80   41   97 1    
    81   41   98 1    
    82   41   99 1    
    83   42   43 2    
    84   42   44 am   BACKBONE|DICT|INTERRES
    85   44   45 1    
    86   44  100 1    
    87   45   46 1    
    88   45   47 1    
    89   45  101 1    
    90   46  102 1    
    91   46  103 1    
    92   46  104 1    
    93   47   48 2    
    94   47   49 am   BACKBONE|DICT|INTERRES
    95   49   50 1    
    96   49  105 1    
    97   50   51 1    
    98   50   52 1    
    99   50  106 1    
   100   51  107 1    
   101   51  108 1    
   102   51  109 1    
   103   52   53 2    
   104   52   54 am   BACKBONE|DICT|INTERRES
   105   54   55 1    
   106   54  110 1    
   107   55   56 1    
   108   55   59 1    
   109   55  111 1    
   110   56   57 am   BACKBONE|DICT|INTERRES
   111   56   58 2    
   112   57  112 1    
   113   57  113 1    
   114   59   60 1    
   115   59  114 1    
   116   59  115 1    
   117   60   61 1    
   118   61  116 1    
   119   61  117 1    
@<TRIPOS>SUBSTRUCTURE
     1 UNK         1 GROUP             0       ****    0 ROOT    
