@<TRIPOS>MOLECULE
3R8
117   119    1
SMALL
USER_CHARGES


@<TRIPOS>ATOM
      1 CA         18.1055  -23.6055  -49.8897 C.3       0 UNK        -0.2013 
      2 C          18.8246  -24.6047  -48.9957 C.2       0 UNK         0.4866 
      3 O          19.6600  -25.3696  -49.4788 O.2       0 UNK        -0.5176 
      4 N          18.5115  -24.6014  -47.6974 N.am      1 UNK        -0.4884 
      5 CA         19.0967  -25.4710  -46.6779 C.3       1 UNK         0.0853 
      6 C6         18.5446  -26.9235  -46.7306 C.3       10 UNK        -0.0849 
      7 S7         16.7380  -27.0584  -46.4726 S.3       10 UNK        -0.2776 
      8 C8         16.5200  -28.8614  -46.3387 C.3       10 UNK         0.0316 
      9 C9         17.0779  -29.4116  -45.0332 C.ar      10 UNK        -0.0863 
     10 C10        18.3348  -30.0207  -45.0050 C.ar      10 UNK        -0.1009 
     11 C11        18.8486  -30.5361  -43.8122 C.ar      10 UNK        -0.0712 
     12 C12        18.0887  -30.4571  -42.6413 C.ar      10 UNK        -0.0894 
     13 C13        16.8334  -29.8393  -42.6537 C.ar      10 UNK        -0.0745 
     14 C14        16.3326  -29.3235  -43.8540 C.ar      10 UNK        -0.0972 
     15 C15        16.0036  -29.7330  -41.3816 C.3       10 UNK         0.0209 
     16 S16        15.9616  -28.0247  -40.7481 S.3       10 UNK        -0.2568 
     17 C17        17.3874  -27.9825  -39.6088 C.3       10 UNK        -0.0983 
     18 CA         18.7450  -27.7161  -40.3042 C.3       3 UNK         0.0876 
     19 N          18.7205  -26.5375  -41.1738 N.am      3 UNK        -0.4424 
     20 C          19.6948  -26.2025  -42.0275 C.2       2 UNK         0.4918 
     21 O          20.7441  -26.8372  -42.1702 O.2       2 UNK        -0.4875 
     22 CA         19.4500  -24.9593  -42.8849 C.3       2 UNK         0.0481 
     23 CB         20.4435  -23.8330  -42.5549 C.3       2 UNK        -0.1831 
     24 N          19.5814  -25.3547  -44.2816 N.am      2 UNK        -0.4498 
     25 C          18.9084  -24.8094  -45.3000 C.2       1 UNK         0.5027 
     26 O          18.1571  -23.8350  -45.1838 O.2       1 UNK        -0.4969 
     27 C          19.8766  -27.6105  -39.2652 C.2       3 UNK         0.5005 
     28 O          20.1269  -26.5185  -38.7473 O.2       3 UNK        -0.5279 
     29 N          20.5572  -28.7372  -39.0074 N.am      4 UNK        -0.4463 
     30 CA         21.7566  -28.9118  -38.1708 C.3       4 UNK         0.0283 
     31 CB         21.5023  -28.5107  -36.7049 C.3       4 UNK        -0.1875 
     32 C          23.0177  -28.2219  -38.7261 C.2       4 UNK         0.4949 
     33 O          24.0783  -28.8448  -38.7433 O.2       4 UNK        -0.5039 
     34 N          22.8808  -26.9755  -39.1967 N.am      5 UNK        -0.4663 
     35 CA         23.9366  -26.1511  -39.7897 C.3       5 UNK         0.0242 
     36 CB         23.3780  -24.7544  -40.0969 C.3       5 UNK        -0.1982 
     37 C          24.5697  -26.7744  -41.0440 C.2       5 UNK         0.5017 
     38 O          25.7914  -26.7229  -41.1877 O.2       5 UNK        -0.5012 
     39 N          23.7523  -27.4146  -41.8931 N.am      6 UNK        -0.4439 
     40 CA         24.1836  -28.1924  -43.0624 C.3       6 UNK         0.0297 
     41 CB         23.0169  -28.2643  -44.0651 C.3       6 UNK        -0.2006 
     42 C          24.7256  -29.5915  -42.6853 C.2       6 UNK         0.4892 
     43 O          24.3702  -30.5815  -43.3280 O.2       6 UNK        -0.5089 
     44 N          25.5419  -29.6582  -41.6205 N.am      7 UNK        -0.4243 
     45 CA         26.1545  -30.8508  -41.0109 C.3       7 UNK         0.0196 
     46 CB         27.2564  -31.4090  -41.9356 C.3       7 UNK        -0.2007 
     47 C          25.1394  -31.9370  -40.5920 C.2       7 UNK         0.5020 
     48 O          25.4855  -33.1184  -40.5537 O.2       7 UNK        -0.5147 
     49 N          23.8885  -31.5195  -40.3436 N.am      8 UNK        -0.4734 
     50 CA         22.6810  -32.3309  -40.1272 C.3       8 UNK         0.0238 
     51 CB         22.7824  -33.1078  -38.7981 C.3       8 UNK        -0.1912 
     52 C          22.2917  -33.2498  -41.3092 C.2       8 UNK         0.5038 
     53 O          21.3865  -34.0675  -41.1409 O.2       8 UNK        -0.5046 
     54 N          22.9585  -33.0887  -42.4645 N.am      9 UNK        -0.4200 
     55 CA         22.8425  -33.8582  -43.7164 C.3       9 UNK         0.0839 
     56 C          22.7322  -35.4090  -43.5922 C.2       9 UNK         0.5513 
     57 N          23.3862  -36.0209  -42.6121 N.am      9 UNK        -0.7519 
     58 O          22.0898  -36.0708  -44.4040 O.2       9 UNK        -0.4960 
     59 C59        21.8981  -33.1981  -44.7603 C.3       10 UNK        -0.0876 
     60 S60        20.1749  -32.9255  -44.2207 S.3       10 UNK        -0.2414 
     61 C61        20.2344  -31.1572  -43.7992 C.3       10 UNK         0.0169 
     62 H62        17.3963  -22.9953  -49.3305 H         1 UNK         0.0903 
     63 H63        18.8258  -22.9396  -50.3642 H         1 UNK         0.0903 
     64 H64        17.5578  -24.1294  -50.6725 H         1 UNK         0.0903 
     65 H65        17.8512  -23.9318  -47.3193 H         1 UNK         0.3096 
     66 H66        20.1744  -25.5067  -46.8545 H         1 UNK         0.1121 
     67 H67        19.0569  -27.5381  -45.9903 H         1 UNK         0.0849 
     68 H68        18.7834  -27.3726  -47.6958 H         1 UNK         0.0849 
     69 H69        15.4557  -29.0924  -46.4031 H         1 UNK         0.0865 
     70 H70        16.9864  -29.3499  -47.1958 H         1 UNK         0.0865 
     71 H71        18.9186  -30.0918  -45.9128 H         1 UNK         0.1346 
     72 H72        18.4795  -30.8692  -41.7213 H         1 UNK         0.1412 
     73 H73        15.3618  -28.8462  -43.8679 H         1 UNK         0.1426 
     74 H74        16.3705  -30.4136  -40.6119 H         1 UNK         0.0716 
     75 H75        14.9819  -30.0474  -41.5996 H         1 UNK         0.0716 
     76 H76        17.4187  -28.9197  -39.0501 H         1 UNK         0.0695 
     77 H77        17.1846  -27.2028  -38.8716 H         1 UNK         0.0695 
     78 H78        18.9700  -28.5649  -40.9489 H         1 UNK         0.0983 
     79 H79        17.8929  -25.9632  -41.1140 H         1 UNK         0.3095 
     80 H80        18.4352  -24.6006  -42.6977 H         1 UNK         0.0454 
     81 H81        21.4680  -24.1177  -42.7966 H         1 UNK         0.0851 
     82 H82        20.4101  -23.5789  -41.4948 H         1 UNK         0.0851 
     83 H83        20.2109  -22.9261  -43.1130 H         1 UNK         0.0851 
     84 H84        20.1630  -26.1681  -44.4353 H         1 UNK         0.2976 
     85 H85        20.2598  -29.5744  -39.4878 H         1 UNK         0.3116 
     86 H86        21.9632  -29.9828  -38.1741 H         1 UNK         0.0646 
     87 H87        21.3237  -27.4409  -36.5944 H         1 UNK         0.0847 
     88 H88        22.3631  -28.7576  -36.0821 H         1 UNK         0.0847 
     89 H89        20.6427  -29.0386  -36.2923 H         1 UNK         0.0847 
     90 H90        21.9547  -26.5600  -39.1211 H         1 UNK         0.3040 
     91 H91        24.7284  -26.0479  -39.0445 H         1 UNK         0.1015 
     92 H92        22.5366  -24.8072  -40.7863 H         1 UNK         0.0786 
     93 H93        24.1378  -24.1168  -40.5513 H         1 UNK         0.0786 
     94 H94        23.0360  -24.2558  -39.1897 H         1 UNK         0.0786 
     95 H95        22.7532  -27.3794  -41.7180 H         1 UNK         0.3172 
     96 H96        25.0030  -27.6608  -43.5504 H         1 UNK         0.0595 
     97 H97        22.1554  -28.7776  -43.6378 H         1 UNK         0.0839 
     98 H98        23.3039  -28.7997  -44.9711 H         1 UNK         0.0839 
     99 H99        22.6943  -27.2682  -44.3681 H         1 UNK         0.0839 
    100 H100       25.7624  -28.7768  -41.1686 H         1 UNK         0.2998 
    101 H101       26.6292  -30.5123  -40.0887 H         1 UNK         0.0822 
    102 H102       27.9769  -30.6367  -42.2050 H         1 UNK         0.0787 
    103 H103       27.8122  -32.2107  -41.4477 H         1 UNK         0.0787 
    104 H104       26.8398  -31.8155  -42.8580 H         1 UNK         0.0787 
    105 H105       23.7476  -30.5179  -40.3600 H         1 UNK         0.3055 
    106 H106       21.8560  -31.6245  -40.0329 H         1 UNK         0.1106 
    107 H107       21.8372  -33.5935  -38.5527 H         1 UNK         0.0828 
    108 H108       23.5439  -33.8869  -38.8419 H         1 UNK         0.0828 
    109 H109       23.0283  -32.4452  -37.9684 H         1 UNK         0.0828 
    110 H110       23.6465  -32.3451  -42.4999 H         1 UNK         0.2931 
    111 H111       23.8361  -33.7463  -44.1528 H         1 UNK         0.0412 
    112 H112       23.3301  -37.0238  -42.5292 H         1 UNK         0.3472 
    113 H113       23.9201  -35.4857  -41.9446 H         1 UNK         0.3472 
    114 H114       21.8725  -33.7893  -45.6773 H         1 UNK         0.0970 
    115 H115       22.3312  -32.2448  -45.0658 H         1 UNK         0.0970 
    116 H116       20.8640  -30.6262  -44.5140 H         1 UNK         0.0612 
    117 H117       20.7039  -31.0304  -42.8229 H         1 UNK         0.0612 
@<TRIPOS>BOND
     1    1    2 1    
     2    1   62 1    
     3    1   63 1    
     4    1   64 1    
     5    2    3 2    
     6    2    4 am   BACKBONE|DICT|INTERRES
     7    4    5 1    
     8    4   65 1    
     9    5    6 1    
    10    5   25 1    
    11    5   66 1    
    12    6    7 1    
    13    6   67 1    
    14    6   68 1    
    15    7    8 1    
    16    8    9 1    
    17    8   69 1    
    18    8   70 1    
    19    9   10 ar   
    20    9   14 ar   
    21   10   11 ar   
    22   10   71 1    
    23   11   12 ar   
    24   11   61 1    
    25   12   13 ar   
    26   12   72 1    
    27   13   14 ar   
    28   13   15 1    
    29   14   73 1    
    30   15   16 1    
    31   15   74 1    
    32   15   75 1    
    33   16   17 1    
    34   17   18 1    
    35   17   76 1    
    36   17   77 1    
    37   18   19 1    
    38   18   27 1    
    39   18   78 1    
    40   19   20 am   BACKBONE|DICT|INTERRES
    41   19   79 1    
    42   20   21 2    
    43   20   22 1    
    44   22   23 1    
    45   22   24 1    
    46   22   80 1    
    47   23   81 1    
    48   23   82 1    
    49   23   83 1    
    50   24   25 am   BACKBONE|DICT|INTERRES
    51   24   84 1    
    52   25   26 2    
    53   27   28 2    
    54   27   29 am   BACKBONE|DICT|INTERRES
    55   29   30 1    
    56   29   85 1    
    57   30   31 1    
    58   30   32 1    
    59   30   86 1    
    60   31   87 1    
    61   31   88 1    
    62   31   89 1    
    63   32   33 2    
    64   32   34 am   BACKBONE|DICT|INTERRES
    65   34   35 1    
    66   34   90 1    
    67   35   36 1    
    68   35   37 1    
    69   35   91 1    
    70   36   92 1    
    71   36   93 1    
    72   36   94 1    
    73   37   38 2    
    74   37   39 am   BACKBONE|DICT|INTERRES
    75   39   40 1    
    76   39   95 1    
    77   40   41 1    
    78   40   42 1    
    79   40   96 1    
    80   41   97 1    
    81   41   98 1    
    82   41   99 1    
    83   42   43 2    
    84   42   44 am   BACKBONE|DICT|INTERRES
    85   44   45 1    
    86   44  100 1    
    87   45   46 1    
    88   45   47 1    
    89   45  101 1    
    90   46  102 1    
    91   46  103 1    
    92   46  104 1    
    93   47   48 2    
    94   47   49 am   BACKBONE|DICT|INTERRES
    95   49   50 1    
    96   49  105 1    
    97   50   51 1    
    98   50   52 1    
    99   50  106 1    
   100   51  107 1    
   101   51  108 1    
   102   51  109 1    
   103   52   53 2    
   104   52   54 am   BACKBONE|DICT|INTERRES
   105   54   55 1    
   106   54  110 1    
   107   55   56 1    
   108   55   59 1    
   109   55  111 1    
   110   56   57 am   BACKBONE|DICT|INTERRES
   111   56   58 2    
   112   57  112 1    
   113   57  113 1    
   114   59   60 1    
   115   59  114 1    
   116   59  115 1    
   117   60   61 1    
   118   61  116 1    
   119   61  117 1    
@<TRIPOS>SUBSTRUCTURE
     1 UNK         1 GROUP             0       ****    0 ROOT    
