@<TRIPOS>MOLECULE
3R8
117   119    1
SMALL
USER_CHARGES


@<TRIPOS>ATOM
      1 CA         13.0222  -22.7510  -43.5070 C.3       0 UNK        -0.2013 
      2 C          14.1610  -23.3232  -44.3381 C.2       0 UNK         0.4866 
      3 O          14.7129  -22.6223  -45.1868 O.2       0 UNK        -0.5176 
      4 N          14.5175  -24.5891  -44.1019 N.am      1 UNK        -0.4884 
      5 CA         15.5958  -25.3019  -44.7812 C.3       1 UNK         0.0853 
      6 C6         15.1150  -25.9135  -46.1228 C.3       10 UNK        -0.0849 
      7 S7         16.4079  -26.8427  -47.0202 S.3       10 UNK        -0.2776 
      8 C8         15.9317  -28.5785  -46.6901 C.3       10 UNK         0.0316 
      9 C9         17.0718  -29.4109  -46.1108 C.ar      10 UNK        -0.0863 
     10 C10        16.8619  -30.2093  -44.9799 C.ar      10 UNK        -0.1009 
     11 C11        17.8867  -31.0201  -44.4781 C.ar      10 UNK        -0.0712 
     12 C12        19.1310  -31.0271  -45.1151 C.ar      10 UNK        -0.0894 
     13 C13        19.3581  -30.2219  -46.2342 C.ar      10 UNK        -0.0745 
     14 C14        18.3239  -29.4263  -46.7322 C.ar      10 UNK        -0.0972 
     15 C15        20.7133  -30.2133  -46.9217 C.3       10 UNK         0.0209 
     16 S16        21.7008  -28.7692  -46.4208 S.3       10 UNK        -0.2568 
     17 C17        22.2641  -29.2643  -44.7602 C.3       10 UNK        -0.0983 
     18 CA         21.8115  -28.2880  -43.6450 C.3       3 UNK         0.0876 
     19 N          20.3445  -28.2145  -43.5320 N.am      3 UNK        -0.4424 
     20 C          19.6578  -27.1909  -43.0110 C.2       2 UNK         0.4918 
     21 O          20.1847  -26.1442  -42.6317 O.2       2 UNK        -0.4875 
     22 CA         18.1545  -27.3855  -42.7995 C.3       2 UNK         0.0481 
     23 CB         17.8020  -27.2451  -41.3025 C.3       2 UNK        -0.1831 
     24 N          17.4414  -26.4048  -43.6098 N.am      2 UNK        -0.4498 
     25 C          16.1171  -26.3607  -43.7976 C.2       1 UNK         0.5027 
     26 O          15.3082  -27.1128  -43.2475 O.2       1 UNK        -0.4969 
     27 C          22.4813  -28.6233  -42.2861 C.2       3 UNK         0.5005 
     28 O          23.4094  -29.4351  -42.2289 O.2       3 UNK        -0.5279 
     29 N          22.0017  -28.0039  -41.1987 N.am      4 UNK        -0.4463 
     30 CA         22.4716  -28.2231  -39.8284 C.3       4 UNK         0.0283 
     31 CB         21.4911  -27.5763  -38.8388 C.3       4 UNK        -0.1875 
     32 C          23.9033  -27.7151  -39.5975 C.2       4 UNK         0.4949 
     33 O          24.6406  -28.3224  -38.8231 O.2       4 UNK        -0.5039 
     34 N          24.2954  -26.6542  -40.3184 N.am      5 UNK        -0.4663 
     35 CA         25.6545  -26.0999  -40.3225 C.3       5 UNK         0.0242 
     36 CB         25.6505  -24.7608  -41.0771 C.3       5 UNK        -0.1982 
     37 C          26.7051  -27.0535  -40.9234 C.2       5 UNK         0.5017 
     38 O          27.8776  -26.9632  -40.5596 O.2       5 UNK        -0.5012 
     39 N          26.2634  -27.9577  -41.8086 N.am      6 UNK        -0.4439 
     40 CA         27.0705  -29.0296  -42.3950 C.3       6 UNK         0.0297 
     41 CB         26.6105  -29.2506  -43.8468 C.3       6 UNK        -0.2006 
     42 C          26.9723  -30.3434  -41.5946 C.2       6 UNK         0.4892 
     43 O          27.6006  -31.3248  -41.9927 O.2       6 UNK        -0.5089 
     44 N          26.1729  -30.3541  -40.5137 N.am      7 UNK        -0.4243 
     45 CA         25.7982  -31.5086  -39.6874 C.3       7 UNK         0.0196 
     46 CB         27.0212  -32.0742  -38.9341 C.3       7 UNK        -0.2007 
     47 C          25.0206  -32.5860  -40.4716 C.2       7 UNK         0.5020 
     48 O          25.0982  -33.7673  -40.1312 O.2       7 UNK        -0.5147 
     49 N          24.2749  -32.1610  -41.5003 N.am      8 UNK        -0.4734 
     50 CA         23.4802  -33.0185  -42.3837 C.3       8 UNK         0.0238 
     51 CB         23.8908  -32.7315  -43.8393 C.3       8 UNK        -0.1912 
     52 C          21.9691  -32.8240  -42.1626 C.2       8 UNK         0.5038 
     53 O          21.1736  -33.2725  -42.9886 O.2       8 UNK        -0.5046 
     54 N          21.5956  -32.1609  -41.0633 N.am      9 UNK        -0.4200 
     55 CA         20.2226  -31.8875  -40.6335 C.3       9 UNK         0.0839 
     56 C          20.1867  -31.5642  -39.1151 C.2       9 UNK         0.5513 
     57 N          19.0066  -31.3492  -38.5532 N.am      9 UNK        -0.7519 
     58 O          21.2152  -31.5011  -38.4432 O.2       9 UNK        -0.4960 
     59 C59        19.5501  -30.7950  -41.5103 C.3       10 UNK        -0.0876 
     60 S60        17.7496  -31.0212  -41.6927 S.3       10 UNK        -0.2414 
     61 C61        17.6365  -31.9189  -43.2736 C.3       10 UNK         0.0169 
     62 H62        12.6262  -23.4802  -42.8004 H         1 UNK         0.0903 
     63 H63        13.3676  -21.8851  -42.9428 H         1 UNK         0.0903 
     64 H64        12.2076  -22.4318  -44.1565 H         1 UNK         0.0903 
     65 H65        14.0587  -25.1284  -43.3773 H         1 UNK         0.3096 
     66 H66        16.4057  -24.5984  -44.9890 H         1 UNK         0.1121 
     67 H67        14.2359  -26.5407  -45.9664 H         1 UNK         0.0849 
     68 H68        14.7809  -25.1111  -46.7824 H         1 UNK         0.0849 
     69 H69        15.0705  -28.6158  -46.0221 H         1 UNK         0.0865 
     70 H70        15.6066  -29.0349  -47.6259 H         1 UNK         0.0865 
     71 H71        15.8965  -30.2113  -44.4917 H         1 UNK         0.1346 
     72 H72        19.9207  -31.6664  -44.7438 H         1 UNK         0.1412 
     73 H73        18.4960  -28.8160  -47.6086 H         1 UNK         0.1426 
     74 H74        21.2648  -31.1319  -46.7143 H         1 UNK         0.0716 
     75 H75        20.5716  -30.1831  -48.0030 H         1 UNK         0.0716 
     76 H76        21.9267  -30.2767  -44.5360 H         1 UNK         0.0695 
     77 H77        23.3531  -29.3108  -44.8110 H         1 UNK         0.0695 
     78 H78        22.1788  -27.2963  -43.9185 H         1 UNK         0.0983 
     79 H79        19.8338  -29.0166  -43.8743 H         1 UNK         0.3095 
     80 H80        17.8747  -28.3829  -43.1372 H         1 UNK         0.0454 
     81 H81        17.9406  -26.2224  -40.9501 H         1 UNK         0.0851 
     82 H82        16.7697  -27.5307  -41.1028 H         1 UNK         0.0851 
     83 H83        18.4283  -27.8881  -40.6844 H         1 UNK         0.0851 
     84 H84        18.0346  -25.7477  -44.0998 H         1 UNK         0.2976 
     85 H85        21.2811  -27.3038  -41.3379 H         1 UNK         0.3116 
     86 H86        22.4767  -29.2995  -39.6454 H         1 UNK         0.0646 
     87 H87        21.8146  -27.7381  -37.8095 H         1 UNK         0.0847 
     88 H88        20.4934  -28.0056  -38.9316 H         1 UNK         0.0847 
     89 H89        21.4112  -26.4992  -38.9908 H         1 UNK         0.0847 
     90 H90        23.6195  -26.2109  -40.9239 H         1 UNK         0.3040 
     91 H91        25.9440  -25.9113  -39.2861 H         1 UNK         0.1015 
     92 H92        24.9710  -24.0453  -40.6133 H         1 UNK         0.0786 
     93 H93        25.3512  -24.8836  -42.1188 H         1 UNK         0.0786 
     94 H94        26.6436  -24.3088  -41.0747 H         1 UNK         0.0786 
     95 H95        25.2753  -27.9772  -42.0232 H         1 UNK         0.3172 
     96 H96        28.1213  -28.7334  -42.4127 H         1 UNK         0.0595 
     97 H97        27.2409  -29.9855  -44.3493 H         1 UNK         0.0839 
     98 H98        26.6645  -28.3297  -44.4276 H         1 UNK         0.0839 
     99 H99        25.5857  -29.6196  -43.8932 H         1 UNK         0.0839 
    100 H100       25.7239  -29.4852  -40.2499 H         1 UNK         0.2998 
    101 H101       25.1021  -31.1271  -38.9388 H         1 UNK         0.0822 
    102 H102       27.5463  -31.2912  -38.3871 H         1 UNK         0.0787 
    103 H103       26.7179  -32.8278  -38.2063 H         1 UNK         0.0787 
    104 H104       27.7329  -32.5466  -39.6116 H         1 UNK         0.0787 
    105 H105       24.2240  -31.1639  -41.6965 H         1 UNK         0.3055 
    106 H106       23.6841  -34.0718  -42.1799 H         1 UNK         0.1106 
    107 H107       23.3142  -33.3318  -44.5443 H         1 UNK         0.0828 
    108 H108       23.7454  -31.6845  -44.0996 H         1 UNK         0.0828 
    109 H109       24.9427  -32.9672  -44.0018 H         1 UNK         0.0828 
    110 H110       22.3051  -31.8645  -40.4067 H         1 UNK         0.2931 
    111 H111       19.6794  -32.8272  -40.7522 H         1 UNK         0.0412 
    112 H112       18.9585  -31.1388  -37.5686 H         1 UNK         0.3472 
    113 H113       18.1628  -31.3839  -39.1058 H         1 UNK         0.3472 
    114 H114       19.9900  -30.7855  -42.5047 H         1 UNK         0.0970 
    115 H115       19.7433  -29.8031  -41.1021 H         1 UNK         0.0970 
    116 H116       16.6407  -32.3572  -43.3531 H         1 UNK         0.0612 
    117 H117       18.3358  -32.7567  -43.2637 H         1 UNK         0.0612 
@<TRIPOS>BOND
     1    1    2 1    
     2    1   62 1    
     3    1   63 1    
     4    1   64 1    
     5    2    3 2    
     6    2    4 am   BACKBONE|DICT|INTERRES
     7    4    5 1    
     8    4   65 1    
     9    5    6 1    
    10    5   25 1    
    11    5   66 1    
    12    6    7 1    
    13    6   67 1    
    14    6   68 1    
    15    7    8 1    
    16    8    9 1    
    17    8   69 1    
    18    8   70 1    
    19    9   10 ar   
    20    9   14 ar   
    21   10   11 ar   
    22   10   71 1    
    23   11   12 ar   
    24   11   61 1    
    25   12   13 ar   
    26   12   72 1    
    27   13   14 ar   
    28   13   15 1    
    29   14   73 1    
    30   15   16 1    
    31   15   74 1    
    32   15   75 1    
    33   16   17 1    
    34   17   18 1    
    35   17   76 1    
    36   17   77 1    
    37   18   19 1    
    38   18   27 1    
    39   18   78 1    
    40   19   20 am   BACKBONE|DICT|INTERRES
    41   19   79 1    
    42   20   21 2    
    43   20   22 1    
    44   22   23 1    
    45   22   24 1    
    46   22   80 1    
    47   23   81 1    
    48   23   82 1    
    49   23   83 1    
    50   24   25 am   BACKBONE|DICT|INTERRES
    51   24   84 1    
    52   25   26 2    
    53   27   28 2    
    54   27   29 am   BACKBONE|DICT|INTERRES
    55   29   30 1    
    56   29   85 1    
    57   30   31 1    
    58   30   32 1    
    59   30   86 1    
    60   31   87 1    
    61   31   88 1    
    62   31   89 1    
    63   32   33 2    
    64   32   34 am   BACKBONE|DICT|INTERRES
    65   34   35 1    
    66   34   90 1    
    67   35   36 1    
    68   35   37 1    
    69   35   91 1    
    70   36   92 1    
    71   36   93 1    
    72   36   94 1    
    73   37   38 2    
    74   37   39 am   BACKBONE|DICT|INTERRES
    75   39   40 1    
    76   39   95 1    
    77   40   41 1    
    78   40   42 1    
    79   40   96 1    
    80   41   97 1    
    81   41   98 1    
    82   41   99 1    
    83   42   43 2    
    84   42   44 am   BACKBONE|DICT|INTERRES
    85   44   45 1    
    86   44  100 1    
    87   45   46 1    
    88   45   47 1    
    89   45  101 1    
    90   46  102 1    
    91   46  103 1    
    92   46  104 1    
    93   47   48 2    
    94   47   49 am   BACKBONE|DICT|INTERRES
    95   49   50 1    
    96   49  105 1    
    97   50   51 1    
    98   50   52 1    
    99   50  106 1    
   100   51  107 1    
   101   51  108 1    
   102   51  109 1    
   103   52   53 2    
   104   52   54 am   BACKBONE|DICT|INTERRES
   105   54   55 1    
   106   54  110 1    
   107   55   56 1    
   108   55   59 1    
   109   55  111 1    
   110   56   57 am   BACKBONE|DICT|INTERRES
   111   56   58 2    
   112   57  112 1    
   113   57  113 1    
   114   59   60 1    
   115   59  114 1    
   116   59  115 1    
   117   60   61 1    
   118   61  116 1    
   119   61  117 1    
@<TRIPOS>SUBSTRUCTURE
     1 UNK         1 GROUP             0       ****    0 ROOT    
