@<TRIPOS>MOLECULE
3R8
117   119    1
SMALL
USER_CHARGES


@<TRIPOS>ATOM
      1 CA         15.4803  -22.7457  -46.3299 C.3       0 UNK        -0.2013 
      2 C          15.4139  -24.1242  -45.6899 C.2       0 UNK         0.4866 
      3 O          14.7109  -25.0011  -46.1928 O.2       0 UNK        -0.5176 
      4 N          16.1405  -24.3247  -44.5865 N.am      1 UNK        -0.4884 
      5 CA         16.2498  -25.5889  -43.8617 C.3       1 UNK         0.0853 
      6 C6         15.0170  -25.8442  -42.9535 C.3       10 UNK        -0.0849 
      7 S7         14.8017  -27.5506  -42.3306 S.3       10 UNK        -0.2776 
      8 C8         14.8922  -28.6009  -43.8232 C.3       10 UNK         0.0316 
      9 C9         16.2941  -29.1627  -44.0346 C.ar      10 UNK        -0.0863 
     10 C10        16.8626  -29.9964  -43.0672 C.ar      10 UNK        -0.1009 
     11 C11        18.1537  -30.5091  -43.2246 C.ar      10 UNK        -0.0712 
     12 C12        18.8795  -30.1773  -44.3773 C.ar      10 UNK        -0.0894 
     13 C13        18.3186  -29.3581  -45.3633 C.ar      10 UNK        -0.0745 
     14 C14        17.0203  -28.8679  -45.1923 C.ar      10 UNK        -0.0972 
     15 C15        19.0863  -29.0374  -46.6400 C.3       10 UNK         0.0209 
     16 S16        19.5447  -27.2754  -46.7622 S.3       10 UNK        -0.2568 
     17 C17        21.2390  -27.2444  -46.0776 C.3       10 UNK        -0.0983 
     18 CA         21.4389  -26.0952  -45.0436 C.3       3 UNK         0.0876 
     19 N          20.5111  -26.1897  -43.9133 N.am      3 UNK        -0.4424 
     20 C          20.4540  -27.1720  -43.0062 C.2       2 UNK         0.4918 
     21 O          21.2443  -28.1130  -42.9678 O.2       2 UNK        -0.4875 
     22 CA         19.2892  -27.1276  -41.9989 C.3       2 UNK         0.0481 
     23 CB         19.6220  -26.2431  -40.7822 C.3       2 UNK        -0.1831 
     24 N          17.9990  -26.7707  -42.6102 N.am      2 UNK        -0.4498 
     25 C          17.5968  -25.5959  -43.1143 C.2       1 UNK         0.5027 
     26 O          18.2686  -24.5607  -43.0584 O.2       1 UNK        -0.4969 
     27 C          22.9020  -25.9193  -44.5650 C.2       3 UNK         0.5005 
     28 O          23.1321  -25.4373  -43.4520 O.2       3 UNK        -0.5279 
     29 N          23.8761  -26.2732  -45.4163 N.am      4 UNK        -0.4463 
     30 CA         25.3096  -26.2056  -45.1092 C.3       4 UNK         0.0283 
     31 CB         26.1146  -26.3131  -46.4144 C.3       4 UNK        -0.1875 
     32 C          25.7659  -27.2842  -44.1098 C.2       4 UNK         0.4949 
     33 O          26.7447  -27.0709  -43.3953 O.2       4 UNK        -0.5039 
     34 N          25.0469  -28.4126  -44.0675 N.am      5 UNK        -0.4663 
     35 CA         25.3036  -29.5560  -43.1907 C.3       5 UNK         0.0242 
     36 CB         25.1219  -30.8507  -44.0070 C.3       5 UNK        -0.1982 
     37 C          24.3982  -29.5156  -41.9465 C.2       5 UNK         0.5017 
     38 O          23.8749  -30.5548  -41.5434 O.2       5 UNK        -0.5012 
     39 N          24.2190  -28.3220  -41.3628 N.am      6 UNK        -0.4439 
     40 CA         23.3551  -28.0548  -40.2096 C.3       6 UNK         0.0297 
     41 CB         23.4717  -26.5736  -39.8158 C.3       6 UNK        -0.2006 
     42 C          23.6575  -28.9716  -39.0118 C.2       6 UNK         0.4892 
     43 O          24.7898  -28.9830  -38.5258 O.2       6 UNK        -0.5089 
     44 N          22.6385  -29.7405  -38.6028 N.am      7 UNK        -0.4243 
     45 CA         22.6294  -30.7710  -37.5538 C.3       7 UNK         0.0196 
     46 CB         23.0800  -30.2028  -36.1914 C.3       7 UNK        -0.2007 
     47 C          23.3777  -32.0740  -37.9072 C.2       7 UNK         0.5020 
     48 O          23.2775  -33.0327  -37.1404 O.2       7 UNK        -0.5147 
     49 N          24.0777  -32.1228  -39.0483 N.am      8 UNK        -0.4734 
     50 CA         24.6926  -33.3370  -39.5946 C.3       8 UNK         0.0238 
     51 CB         26.0386  -32.9791  -40.2460 C.3       8 UNK        -0.1912 
     52 C          23.7632  -34.0263  -40.6080 C.2       8 UNK         0.5038 
     53 O          23.8238  -35.2489  -40.7460 O.2       8 UNK        -0.5046 
     54 N          22.9290  -33.2326  -41.2917 N.am      9 UNK        -0.4200 
     55 CA         21.8829  -33.6541  -42.2297 C.3       9 UNK         0.0839 
     56 C          20.8097  -34.5954  -41.6104 C.2       9 UNK         0.5513 
     57 N          20.1592  -35.4083  -42.4323 N.am      9 UNK        -0.7519 
     58 O          20.5363  -34.5757  -40.4117 O.2       9 UNK        -0.4960 
     59 C59        21.2460  -32.4224  -42.9296 C.3       10 UNK        -0.0876 
     60 S60        20.4781  -31.2212  -41.7797 S.3       10 UNK        -0.2414 
     61 C61        18.7066  -31.4433  -42.1468 C.3       10 UNK         0.0169 
     62 H62        15.8607  -22.8229  -47.3481 H         1 UNK         0.0903 
     63 H63        14.4856  -22.3026  -46.3701 H         1 UNK         0.0903 
     64 H64        16.1304  -22.0694  -45.7751 H         1 UNK         0.0903 
     65 H65        16.7563  -23.6021  -44.2301 H         1 UNK         0.3096 
     66 H66        16.3119  -26.3659  -44.6195 H         1 UNK         0.1121 
     67 H67        14.1033  -25.6027  -43.4989 H         1 UNK         0.0849 
     68 H68        15.0301  -25.1646  -42.0993 H         1 UNK         0.0849 
     69 H69        14.1999  -29.4355  -43.7030 H         1 UNK         0.0865 
     70 H70        14.5442  -28.0446  -44.6954 H         1 UNK         0.0865 
     71 H71        16.2915  -30.2445  -42.1823 H         1 UNK         0.1346 
     72 H72        19.8802  -30.5595  -44.5149 H         1 UNK         0.1412 
     73 H73        16.5832  -28.2497  -45.9651 H         1 UNK         0.1426 
     74 H74        18.4551  -29.2861  -47.4943 H         1 UNK         0.0716 
     75 H75        19.9748  -29.6632  -46.7351 H         1 UNK         0.0716 
     76 H76        21.4769  -28.2108  -45.6302 H         1 UNK         0.0695 
     77 H77        21.9068  -27.1286  -46.9319 H         1 UNK         0.0695 
     78 H78        21.1942  -25.1578  -45.5454 H         1 UNK         0.0983 
     79 H79        19.8403  -25.4350  -43.8190 H         1 UNK         0.3095 
     80 H80        19.1578  -28.1462  -41.6302 H         1 UNK         0.0454 
     81 H81        20.4931  -26.6280  -40.2529 H         1 UNK         0.0851 
     82 H82        19.8500  -25.2164  -41.0689 H         1 UNK         0.0851 
     83 H83        18.7965  -26.2192  -40.0711 H         1 UNK         0.0851 
     84 H84        17.3747  -27.5581  -42.7405 H         1 UNK         0.2976 
     85 H85        23.6231  -26.6313  -46.3262 H         1 UNK         0.3116 
     86 H86        25.5191  -25.2318  -44.6610 H         1 UNK         0.0646 
     87 H87        27.1852  -26.2372  -46.2186 H         1 UNK         0.0847 
     88 H88        25.8578  -25.5121  -47.1078 H         1 UNK         0.0847 
     89 H89        25.9440  -27.2646  -46.9196 H         1 UNK         0.0847 
     90 H90        24.2231  -28.4730  -44.6481 H         1 UNK         0.3040 
     91 H91        26.3346  -29.5304  -42.8309 H         1 UNK         0.1015 
     92 H92        25.7939  -30.8742  -44.8650 H         1 UNK         0.0786 
     93 H93        24.1018  -30.9520  -44.3780 H         1 UNK         0.0786 
     94 H94        25.3398  -31.7338  -43.4055 H         1 UNK         0.0786 
     95 H95        24.6900  -27.5267  -41.7691 H         1 UNK         0.3172 
     96 H96        22.3299  -28.2378  -40.5350 H         1 UNK         0.0595 
     97 H97        23.1674  -25.9210  -40.6348 H         1 UNK         0.0839 
     98 H98        24.4927  -26.3104  -39.5363 H         1 UNK         0.0839 
     99 H99        22.8310  -26.3437  -38.9635 H         1 UNK         0.0839 
    100 H100       21.7731  -29.6665  -39.1208 H         1 UNK         0.2998 
    101 H101       21.5823  -31.0598  -37.4497 H         1 UNK         0.0822 
    102 H102       22.9080  -30.9257  -35.3929 H         1 UNK         0.0787 
    103 H103       24.1432  -29.9619  -36.1805 H         1 UNK         0.0787 
    104 H104       22.5266  -29.2998  -35.9338 H         1 UNK         0.0787 
    105 H105       24.0931  -31.3032  -39.6462 H         1 UNK         0.3055 
    106 H106       24.8878  -34.0509  -38.7910 H         1 UNK         0.1106 
    107 H107       25.9194  -32.2740  -41.0682 H         1 UNK         0.0828 
    108 H108       26.7218  -32.5351  -39.5220 H         1 UNK         0.0828 
    109 H109       26.5255  -33.8687  -40.6479 H         1 UNK         0.0828 
    110 H110       23.0075  -32.2295  -41.1596 H         1 UNK         0.2931 
    111 H111       22.3973  -34.2326  -42.9996 H         1 UNK         0.0412 
    112 H112       19.4508  -36.0194  -42.0563 H         1 UNK         0.3472 
    113 H113       20.3698  -35.4348  -43.4180 H         1 UNK         0.3472 
    114 H114       20.5217  -32.7435  -43.6799 H         1 UNK         0.0970 
    115 H115       22.0162  -31.8874  -43.4863 H         1 UNK         0.0970 
    116 H116       18.1686  -31.2816  -41.2116 H         1 UNK         0.0612 
    117 H117       18.5102  -32.4778  -42.4307 H         1 UNK         0.0612 
@<TRIPOS>BOND
     1    1    2 1    
     2    1   62 1    
     3    1   63 1    
     4    1   64 1    
     5    2    3 2    
     6    2    4 am   BACKBONE|DICT|INTERRES
     7    4    5 1    
     8    4   65 1    
     9    5    6 1    
    10    5   25 1    
    11    5   66 1    
    12    6    7 1    
    13    6   67 1    
    14    6   68 1    
    15    7    8 1    
    16    8    9 1    
    17    8   69 1    
    18    8   70 1    
    19    9   10 ar   
    20    9   14 ar   
    21   10   11 ar   
    22   10   71 1    
    23   11   12 ar   
    24   11   61 1    
    25   12   13 ar   
    26   12   72 1    
    27   13   14 ar   
    28   13   15 1    
    29   14   73 1    
    30   15   16 1    
    31   15   74 1    
    32   15   75 1    
    33   16   17 1    
    34   17   18 1    
    35   17   76 1    
    36   17   77 1    
    37   18   19 1    
    38   18   27 1    
    39   18   78 1    
    40   19   20 am   BACKBONE|DICT|INTERRES
    41   19   79 1    
    42   20   21 2    
    43   20   22 1    
    44   22   23 1    
    45   22   24 1    
    46   22   80 1    
    47   23   81 1    
    48   23   82 1    
    49   23   83 1    
    50   24   25 am   BACKBONE|DICT|INTERRES
    51   24   84 1    
    52   25   26 2    
    53   27   28 2    
    54   27   29 am   BACKBONE|DICT|INTERRES
    55   29   30 1    
    56   29   85 1    
    57   30   31 1    
    58   30   32 1    
    59   30   86 1    
    60   31   87 1    
    61   31   88 1    
    62   31   89 1    
    63   32   33 2    
    64   32   34 am   BACKBONE|DICT|INTERRES
    65   34   35 1    
    66   34   90 1    
    67   35   36 1    
    68   35   37 1    
    69   35   91 1    
    70   36   92 1    
    71   36   93 1    
    72   36   94 1    
    73   37   38 2    
    74   37   39 am   BACKBONE|DICT|INTERRES
    75   39   40 1    
    76   39   95 1    
    77   40   41 1    
    78   40   42 1    
    79   40   96 1    
    80   41   97 1    
    81   41   98 1    
    82   41   99 1    
    83   42   43 2    
    84   42   44 am   BACKBONE|DICT|INTERRES
    85   44   45 1    
    86   44  100 1    
    87   45   46 1    
    88   45   47 1    
    89   45  101 1    
    90   46  102 1    
    91   46  103 1    
    92   46  104 1    
    93   47   48 2    
    94   47   49 am   BACKBONE|DICT|INTERRES
    95   49   50 1    
    96   49  105 1    
    97   50   51 1    
    98   50   52 1    
    99   50  106 1    
   100   51  107 1    
   101   51  108 1    
   102   51  109 1    
   103   52   53 2    
   104   52   54 am   BACKBONE|DICT|INTERRES
   105   54   55 1    
   106   54  110 1    
   107   55   56 1    
   108   55   59 1    
   109   55  111 1    
   110   56   57 am   BACKBONE|DICT|INTERRES
   111   56   58 2    
   112   57  112 1    
   113   57  113 1    
   114   59   60 1    
   115   59  114 1    
   116   59  115 1    
   117   60   61 1    
   118   61  116 1    
   119   61  117 1    
@<TRIPOS>SUBSTRUCTURE
     1 UNK         1 GROUP             0       ****    0 ROOT    
