@<TRIPOS>MOLECULE
3R8
117   119    1
SMALL
USER_CHARGES


@<TRIPOS>ATOM
      1 CA         15.2806  -23.3252  -40.7370 C.3       0 UNK        -0.2013 
      2 C          15.9449  -23.9716  -41.9436 C.2       0 UNK         0.4866 
      3 O          16.9232  -23.4348  -42.4642 O.2       0 UNK        -0.5176 
      4 N          15.4168  -25.1154  -42.3974 N.am      1 UNK        -0.4884 
      5 CA         15.9717  -25.9110  -43.4971 C.3       1 UNK         0.0853 
      6 C6         14.9156  -26.8965  -44.0530 C.3       10 UNK        -0.0849 
      7 S7         15.2376  -27.3639  -45.7866 S.3       10 UNK        -0.2776 
      8 C8         15.1577  -29.1807  -45.7066 C.3       10 UNK         0.0316 
      9 C9         16.4990  -29.7947  -45.3345 C.ar      10 UNK        -0.0863 
     10 C10        16.8202  -30.0545  -43.9990 C.ar      10 UNK        -0.1009 
     11 C11        18.0399  -30.6521  -43.6679 C.ar      10 UNK        -0.0712 
     12 C12        18.9422  -30.9925  -44.6807 C.ar      10 UNK        -0.0894 
     13 C13        18.6225  -30.7544  -46.0202 C.ar      10 UNK        -0.0745 
     14 C14        17.4055  -30.1452  -46.3389 C.ar      10 UNK        -0.0972 
     15 C15        19.5551  -31.2040  -47.1339 C.3       10 UNK         0.0209 
     16 S16        20.5285  -29.8257  -47.8097 S.3       10 UNK        -0.2568 
     17 C17        22.0156  -29.8464  -46.7560 C.3       10 UNK        -0.0983 
     18 CA         22.2623  -28.4788  -46.0697 C.3       3 UNK         0.0876 
     19 N          21.3338  -28.2514  -44.9558 N.am      3 UNK        -0.4424 
     20 C          20.3773  -27.3184  -44.9307 C.2       2 UNK         0.4918 
     21 O          20.1242  -26.5491  -45.8618 O.2       2 UNK        -0.4875 
     22 CA         19.6088  -27.1801  -43.6129 C.3       2 UNK         0.0481 
     23 CB         20.3728  -26.2552  -42.6461 C.3       2 UNK        -0.1831 
     24 N          18.2872  -26.6251  -43.8839 N.am      2 UNK        -0.4498 
     25 C          17.2549  -26.6325  -43.0351 C.2       1 UNK         0.5027 
     26 O          17.2799  -27.1723  -41.9251 O.2       1 UNK        -0.4969 
     27 C          23.7337  -28.3260  -45.6221 C.2       3 UNK         0.5005 
     28 O          24.6317  -28.5242  -46.4431 O.2       3 UNK        -0.5279 
     29 N          23.9794  -27.9614  -44.3575 N.am      4 UNK        -0.4463 
     30 CA         25.3011  -27.7212  -43.7834 C.3       4 UNK         0.0283 
     31 CB         25.9481  -29.0586  -43.3728 C.3       4 UNK        -0.1875 
     32 C          25.1523  -26.7939  -42.5737 C.2       4 UNK         0.4949 
     33 O          24.0349  -26.5885  -42.0942 O.2       4 UNK        -0.5039 
     34 N          26.2849  -26.2918  -42.0631 N.am      5 UNK        -0.4663 
     35 CA         26.3575  -25.4869  -40.8350 C.3       5 UNK         0.0242 
     36 CB         27.7775  -24.9195  -40.6794 C.3       5 UNK        -0.1982 
     37 C          25.9453  -26.2674  -39.5718 C.2       5 UNK         0.5017 
     38 O          25.4123  -25.6708  -38.6368 O.2       5 UNK        -0.5012 
     39 N          26.1562  -27.5906  -39.5950 N.am      6 UNK        -0.4439 
     40 CA         25.6894  -28.5548  -38.5956 C.3       6 UNK         0.0297 
     41 CB         26.8072  -29.5826  -38.3379 C.3       6 UNK        -0.2006 
     42 C          24.3733  -29.2291  -39.0381 C.2       6 UNK         0.4892 
     43 O          24.1461  -30.3951  -38.7122 O.2       6 UNK        -0.5089 
     44 N          23.5479  -28.5048  -39.8092 N.am      7 UNK        -0.4243 
     45 CA         22.2631  -28.8764  -40.4178 C.3       7 UNK         0.0196 
     46 CB         21.2229  -29.3052  -39.3644 C.3       7 UNK        -0.2007 
     47 C          22.3643  -29.9161  -41.5447 C.2       7 UNK         0.5020 
     48 O          21.7324  -29.7284  -42.5833 O.2       7 UNK        -0.5147 
     49 N          23.1312  -30.9868  -41.3036 N.am      8 UNK        -0.4734 
     50 CA         23.2668  -32.2426  -42.0612 C.3       8 UNK         0.0238 
     51 CB         23.3323  -32.0341  -43.5884 C.3       8 UNK        -0.1912 
     52 C          22.2026  -33.2885  -41.6792 C.2       8 UNK         0.5038 
     53 O          22.4070  -34.4731  -41.9471 O.2       8 UNK        -0.5046 
     54 N          21.1141  -32.8495  -41.0374 N.am      9 UNK        -0.4200 
     55 CA         20.0974  -33.6990  -40.4062 C.3       9 UNK         0.0839 
     56 C          20.6010  -34.2479  -39.0456 C.2       9 UNK         0.5513 
     57 N          20.2556  -35.4826  -38.7088 N.am      9 UNK        -0.7519 
     58 O          21.2626  -33.5520  -38.2781 O.2       9 UNK        -0.4960 
     59 C59        18.7579  -32.9370  -40.2323 C.3       10 UNK        -0.0876 
     60 S60        17.9195  -32.6805  -41.8295 S.3       10 UNK        -0.2414 
     61 C61        18.3721  -30.9647  -42.2195 C.3       10 UNK         0.0169 
     62 H62        14.9387  -22.3218  -40.9895 H         1 UNK         0.0903 
     63 H63        14.4216  -23.8980  -40.3877 H         1 UNK         0.0903 
     64 H64        15.9920  -23.2462  -39.9153 H         1 UNK         0.0903 
     65 H65        14.6366  -25.5289  -41.9065 H         1 UNK         0.3096 
     66 H66        16.2382  -25.2091  -44.2914 H         1 UNK         0.1121 
     67 H67        13.9304  -26.4270  -44.0462 H         1 UNK         0.0849 
     68 H68        14.8216  -27.7778  -43.4161 H         1 UNK         0.0849 
     69 H69        14.3817  -29.4966  -45.0076 H         1 UNK         0.0865 
     70 H70        14.8439  -29.5553  -46.6823 H         1 UNK         0.0865 
     71 H71        16.1193  -29.8030  -43.2152 H         1 UNK         0.1346 
     72 H72        19.8790  -31.4677  -44.4241 H         1 UNK         0.1412 
     73 H73        17.1569  -29.9606  -47.3754 H         1 UNK         0.1426 
     74 H74        18.9614  -31.6333  -47.9424 H         1 UNK         0.0716 
     75 H75        20.2145  -32.0042  -46.7945 H         1 UNK         0.0716 
     76 H76        21.9474  -30.6400  -46.0120 H         1 UNK         0.0695 
     77 H77        22.8447  -30.1205  -47.4111 H         1 UNK         0.0695 
     78 H78        22.1301  -27.6987  -46.8226 H         1 UNK         0.0983 
     79 H79        21.4544  -28.8527  -44.1402 H         1 UNK         0.3095 
     80 H80        19.4997  -28.1710  -43.1681 H         1 UNK         0.0454 
     81 H81        20.3501  -25.2180  -42.9823 H         1 UNK         0.0851 
     82 H82        21.4208  -26.5399  -42.5691 H         1 UNK         0.0851 
     83 H83        19.9503  -26.2911  -41.6420 H         1 UNK         0.0851 
     84 H84        18.1911  -26.2133  -44.8043 H         1 UNK         0.2976 
     85 H85        23.2117  -27.7423  -43.7353 H         1 UNK         0.3116 
     86 H86        25.9292  -27.2172  -44.5210 H         1 UNK         0.0646 
     87 H87        25.3682  -29.5667  -42.6016 H         1 UNK         0.0847 
     88 H88        26.9544  -28.9101  -42.9803 H         1 UNK         0.0847 
     89 H89        26.0379  -29.7348  -44.2229 H         1 UNK         0.0847 
     90 H90        27.1607  -26.4941  -42.5252 H         1 UNK         0.3040 
     91 H91        25.6622  -24.6507  -40.9403 H         1 UNK         0.1015 
     92 H92        27.8529  -24.2970  -39.7865 H         1 UNK         0.0786 
     93 H93        28.0512  -24.2951  -41.5302 H         1 UNK         0.0786 
     94 H94        28.5228  -25.7108  -40.5885 H         1 UNK         0.0786 
     95 H95        26.5954  -27.9766  -40.4182 H         1 UNK         0.3172 
     96 H96        25.4828  -28.0423  -37.6540 H         1 UNK         0.0595 
     97 H97        26.5288  -30.2750  -37.5422 H         1 UNK         0.0839 
     98 H98        27.7311  -29.0943  -38.0274 H         1 UNK         0.0839 
     99 H99        27.0233  -30.1769  -39.2266 H         1 UNK         0.0839 
    100 H100       23.8682  -27.5813  -40.0738 H         1 UNK         0.2998 
    101 H101       21.8923  -27.9600  -40.8731 H         1 UNK         0.0822 
    102 H102       21.4953  -30.2380  -38.8693 H         1 UNK         0.0787 
    103 H103       21.1031  -28.5420  -38.5955 H         1 UNK         0.0787 
    104 H104       20.2448  -29.4549  -39.8239 H         1 UNK         0.0787 
    105 H105       23.5809  -30.9948  -40.3888 H         1 UNK         0.3055 
    106 H106       24.2253  -32.6619  -41.7508 H         1 UNK         0.1106 
    107 H107       23.6606  -32.9464  -44.0876 H         1 UNK         0.0828 
    108 H108       22.3563  -31.7820  -44.0012 H         1 UNK         0.0828 
    109 H109       24.0305  -31.2447  -43.8620 H         1 UNK         0.0828 
    110 H110       21.0596  -31.8644  -40.8355 H         1 UNK         0.2931 
    111 H111       19.9181  -34.5539  -41.0623 H         1 UNK         0.0412 
    112 H112       19.7040  -36.0571  -39.3279 H         1 UNK         0.3472 
    113 H113       20.5594  -35.8524  -37.8211 H         1 UNK         0.3472 
    114 H114       18.9047  -31.9842  -39.7202 H         1 UNK         0.0970 
    115 H115       18.0707  -33.5102  -39.6066 H         1 UNK         0.0970 
    116 H116       17.8495  -30.2826  -41.5469 H         1 UNK         0.0612 
    117 H117       19.4366  -30.8165  -42.0480 H         1 UNK         0.0612 
@<TRIPOS>BOND
     1    1    2 1    
     2    1   62 1    
     3    1   63 1    
     4    1   64 1    
     5    2    3 2    
     6    2    4 am   BACKBONE|DICT|INTERRES
     7    4    5 1    
     8    4   65 1    
     9    5    6 1    
    10    5   25 1    
    11    5   66 1    
    12    6    7 1    
    13    6   67 1    
    14    6   68 1    
    15    7    8 1    
    16    8    9 1    
    17    8   69 1    
    18    8   70 1    
    19    9   10 ar   
    20    9   14 ar   
    21   10   11 ar   
    22   10   71 1    
    23   11   12 ar   
    24   11   61 1    
    25   12   13 ar   
    26   12   72 1    
    27   13   14 ar   
    28   13   15 1    
    29   14   73 1    
    30   15   16 1    
    31   15   74 1    
    32   15   75 1    
    33   16   17 1    
    34   17   18 1    
    35   17   76 1    
    36   17   77 1    
    37   18   19 1    
    38   18   27 1    
    39   18   78 1    
    40   19   20 am   BACKBONE|DICT|INTERRES
    41   19   79 1    
    42   20   21 2    
    43   20   22 1    
    44   22   23 1    
    45   22   24 1    
    46   22   80 1    
    47   23   81 1    
    48   23   82 1    
    49   23   83 1    
    50   24   25 am   BACKBONE|DICT|INTERRES
    51   24   84 1    
    52   25   26 2    
    53   27   28 2    
    54   27   29 am   BACKBONE|DICT|INTERRES
    55   29   30 1    
    56   29   85 1    
    57   30   31 1    
    58   30   32 1    
    59   30   86 1    
    60   31   87 1    
    61   31   88 1    
    62   31   89 1    
    63   32   33 2    
    64   32   34 am   BACKBONE|DICT|INTERRES
    65   34   35 1    
    66   34   90 1    
    67   35   36 1    
    68   35   37 1    
    69   35   91 1    
    70   36   92 1    
    71   36   93 1    
    72   36   94 1    
    73   37   38 2    
    74   37   39 am   BACKBONE|DICT|INTERRES
    75   39   40 1    
    76   39   95 1    
    77   40   41 1    
    78   40   42 1    
    79   40   96 1    
    80   41   97 1    
    81   41   98 1    
    82   41   99 1    
    83   42   43 2    
    84   42   44 am   BACKBONE|DICT|INTERRES
    85   44   45 1    
    86   44  100 1    
    87   45   46 1    
    88   45   47 1    
    89   45  101 1    
    90   46  102 1    
    91   46  103 1    
    92   46  104 1    
    93   47   48 2    
    94   47   49 am   BACKBONE|DICT|INTERRES
    95   49   50 1    
    96   49  105 1    
    97   50   51 1    
    98   50   52 1    
    99   50  106 1    
   100   51  107 1    
   101   51  108 1    
   102   51  109 1    
   103   52   53 2    
   104   52   54 am   BACKBONE|DICT|INTERRES
   105   54   55 1    
   106   54  110 1    
   107   55   56 1    
   108   55   59 1    
   109   55  111 1    
   110   56   57 am   BACKBONE|DICT|INTERRES
   111   56   58 2    
   112   57  112 1    
   113   57  113 1    
   114   59   60 1    
   115   59  114 1    
   116   59  115 1    
   117   60   61 1    
   118   61  116 1    
   119   61  117 1    
@<TRIPOS>SUBSTRUCTURE
     1 UNK         1 GROUP             0       ****    0 ROOT    
