@<TRIPOS>MOLECULE
3R8
117   119    1
SMALL
USER_CHARGES


@<TRIPOS>ATOM
      1 CA         15.6340  -27.1910  -38.1977 C.3       0 UNK        -0.2013 
      2 C          16.2600  -26.5566  -39.4307 C.2       0 UNK         0.4866 
      3 O          16.9132  -25.5190  -39.3200 O.2       0 UNK        -0.5176 
      4 N          16.0670  -27.1726  -40.6044 N.am      1 UNK        -0.4884 
      5 CA         16.6721  -26.7658  -41.8773 C.3       1 UNK         0.0853 
      6 C6         16.0123  -27.5195  -43.0572 C.3       10 UNK        -0.0849 
      7 S7         16.5163  -26.8949  -44.6996 S.3       10 UNK        -0.2776 
      8 C8         16.1406  -28.3133  -45.7835 C.3       10 UNK         0.0316 
      9 C9         17.0502  -29.5056  -45.5160 C.ar      10 UNK        -0.0863 
     10 C10        16.6056  -30.5586  -44.7128 C.ar      10 UNK        -0.1009 
     11 C11        17.4373  -31.6463  -44.4400 C.ar      10 UNK        -0.0712 
     12 C12        18.7189  -31.6898  -44.9967 C.ar      10 UNK        -0.0894 
     13 C13        19.1725  -30.6511  -45.8168 C.ar      10 UNK        -0.0745 
     14 C14        18.3298  -29.5639  -46.0772 C.ar      10 UNK        -0.0972 
     15 C15        20.5629  -30.7250  -46.4351 C.3       10 UNK         0.0209 
     16 S16        21.8051  -29.8259  -45.4520 S.3       10 UNK        -0.2568 
     17 C17        21.7177  -28.1714  -46.2219 C.3       10 UNK        -0.0983 
     18 CA         22.4711  -27.0571  -45.4440 C.3       3 UNK         0.0876 
     19 N          21.9285  -26.8459  -44.1054 N.am      3 UNK        -0.4424 
     20 C          20.8202  -26.1523  -43.8449 C.2       2 UNK         0.4918 
     21 O          20.1438  -25.5792  -44.7030 O.2       2 UNK        -0.4875 
     22 CA         20.4234  -26.0484  -42.3710 C.3       2 UNK         0.0481 
     23 CB         21.0308  -24.7845  -41.7398 C.3       2 UNK        -0.1831 
     24 N          18.9690  -25.9867  -42.2623 N.am      2 UNK        -0.4498 
     25 C          18.1984  -26.9910  -41.8330 C.2       1 UNK         0.5027 
     26 O          18.6380  -28.0625  -41.4101 O.2       1 UNK        -0.4969 
     27 C          23.9973  -27.2419  -45.3624 C.2       3 UNK         0.5005 
     28 O          24.6013  -26.9336  -44.3315 O.2       3 UNK        -0.5279 
     29 N          24.6009  -27.7358  -46.4529 N.am      4 UNK        -0.4463 
     30 CA         26.0373  -28.0047  -46.5749 C.3       4 UNK         0.0283 
     31 CB         26.3652  -28.3384  -48.0396 C.3       4 UNK        -0.1875 
     32 C          26.5497  -29.1193  -45.6432 C.2       4 UNK         0.4949 
     33 O          27.7498  -29.1603  -45.3711 O.2       4 UNK        -0.5039 
     34 N          25.6487  -29.9972  -45.1769 N.am      5 UNK        -0.4663 
     35 CA         25.9400  -31.0389  -44.1918 C.3       5 UNK         0.0242 
     36 CB         24.7700  -32.0361  -44.1279 C.3       5 UNK        -0.1982 
     37 C          26.2451  -30.4402  -42.8088 C.2       5 UNK         0.5017 
     38 O          27.3373  -30.6617  -42.2852 O.2       5 UNK        -0.5012 
     39 N          25.2828  -29.6807  -42.2700 N.am      6 UNK        -0.4439 
     40 CA         25.2983  -28.9752  -40.9887 C.3       6 UNK         0.0297 
     41 CB         25.5794  -29.9393  -39.8083 C.3       6 UNK        -0.2006 
     42 C          23.9364  -28.2789  -40.8170 C.2       6 UNK         0.4892 
     43 O          23.1034  -28.3114  -41.7297 O.2       6 UNK        -0.5089 
     44 N          23.7252  -27.6871  -39.6342 N.am      7 UNK        -0.4243 
     45 CA         22.4128  -27.2733  -39.1365 C.3       7 UNK         0.0196 
     46 CB         22.6027  -26.3085  -37.9554 C.3       7 UNK        -0.2007 
     47 C          21.5884  -28.4997  -38.7068 C.2       7 UNK         0.5020 
     48 O          22.1721  -29.5105  -38.3089 O.2       7 UNK        -0.5147 
     49 N          20.2544  -28.3839  -38.7797 N.am      8 UNK        -0.4734 
     50 CA         19.2611  -29.4201  -38.4493 C.3       8 UNK         0.0238 
     51 CB         19.1917  -29.6338  -36.9225 C.3       8 UNK        -0.1912 
     52 C          19.4951  -30.7280  -39.2335 C.2       8 UNK         0.5038 
     53 O          19.6284  -31.7981  -38.6365 O.2       8 UNK        -0.5046 
     54 N          19.5858  -30.5849  -40.5604 N.am      9 UNK        -0.4200 
     55 CA         19.9356  -31.6154  -41.5520 C.3       9 UNK         0.0839 
     56 C          21.4220  -32.0830  -41.5243 C.2       9 UNK         0.5513 
     57 N          22.2886  -31.5518  -40.6717 N.am      9 UNK        -0.7519 
     58 O          21.8072  -32.9402  -42.3147 O.2       9 UNK        -0.4960 
     59 C59        18.9619  -32.8307  -41.5700 C.3       10 UNK        -0.0876 
     60 S60        17.2067  -32.3763  -41.7844 S.3       10 UNK        -0.2414 
     61 C61        16.9382  -32.7667  -43.5419 C.3       10 UNK         0.0169 
     62 H62        14.9245  -26.5016  -37.7408 H         1 UNK         0.0903 
     63 H63        15.1050  -28.1136  -38.4363 H         1 UNK         0.0903 
     64 H64        16.4047  -27.4228  -37.4630 H         1 UNK         0.0903 
     65 H65        15.5405  -28.0343  -40.6279 H         1 UNK         0.3096 
     66 H66        16.4795  -25.6976  -42.0019 H         1 UNK         0.1121 
     67 H67        16.2326  -28.5833  -42.9755 H         1 UNK         0.0849 
     68 H68        14.9265  -27.4305  -42.9951 H         1 UNK         0.0849 
     69 H69        15.0928  -28.5932  -45.6624 H         1 UNK         0.0865 
     70 H70        16.2497  -27.9997  -46.8228 H         1 UNK         0.0865 
     71 H71        15.6142  -30.5257  -44.2817 H         1 UNK         0.1346 
     72 H72        19.3661  -32.5307  -44.7879 H         1 UNK         0.1412 
     73 H73        18.6654  -28.7589  -46.7150 H         1 UNK         0.1426 
     74 H74        20.5430  -30.3409  -47.4561 H         1 UNK         0.0716 
     75 H75        20.8773  -31.7668  -46.5144 H         1 UNK         0.0716 
     76 H76        22.0723  -28.2427  -47.2510 H         1 UNK         0.0695 
     77 H77        20.6701  -27.8858  -46.3031 H         1 UNK         0.0695 
     78 H78        22.3414  -26.1264  -46.0012 H         1 UNK         0.0983 
     79 H79        22.4630  -27.2647  -43.3475 H         1 UNK         0.3095 
     80 H80        20.8055  -26.9279  -41.8528 H         1 UNK         0.0454 
     81 H81        22.1208  -24.8235  -41.7628 H         1 UNK         0.0851 
     82 H82        20.7253  -23.8810  -42.2690 H         1 UNK         0.0851 
     83 H83        20.7313  -24.6765  -40.6973 H         1 UNK         0.0851 
     84 H84        18.5328  -25.1739  -42.6749 H         1 UNK         0.2976 
     85 H85        24.0328  -27.9646  -47.2561 H         1 UNK         0.3116 
     86 H86        26.5697  -27.0898  -46.3062 H         1 UNK         0.0646 
     87 H87        27.4344  -28.5122  -48.1701 H         1 UNK         0.0847 
     88 H88        26.0901  -27.5209  -48.7062 H         1 UNK         0.0847 
     89 H89        25.8471  -29.2375  -48.3754 H         1 UNK         0.0847 
     90 H90        24.6848  -29.8874  -45.4579 H         1 UNK         0.3040 
     91 H91        26.8288  -31.5816  -44.5222 H         1 UNK         0.1015 
     92 H92        24.6106  -32.5221  -45.0904 H         1 UNK         0.0786 
     93 H93        23.8343  -31.5552  -43.8399 H         1 UNK         0.0786 
     94 H94        24.9666  -32.8223  -43.3976 H         1 UNK         0.0786 
     95 H95        24.4263  -29.5223  -42.7890 H         1 UNK         0.3172 
     96 H96        26.0712  -28.2060  -41.0298 H         1 UNK         0.0595 
     97 H97        26.5536  -30.4190  -39.8890 H         1 UNK         0.0839 
     98 H98        24.8274  -30.7248  -39.7422 H         1 UNK         0.0839 
     99 H99        25.5842  -29.4180  -38.8511 H         1 UNK         0.0839 
    100 H100       24.4607  -27.7333  -38.9446 H         1 UNK         0.2998 
    101 H101       21.8855  -26.7488  -39.9296 H         1 UNK         0.0822 
    102 H102       23.1758  -25.4290  -38.2498 H         1 UNK         0.0787 
    103 H103       21.6410  -25.9562  -37.5798 H         1 UNK         0.0787 
    104 H104       23.1220  -26.7858  -37.1231 H         1 UNK         0.0787 
    105 H105       19.8697  -27.5297  -39.1600 H         1 UNK         0.3055 
    106 H106       18.2902  -29.0424  -38.7742 H         1 UNK         0.1106 
    107 H107       20.1263  -30.0321  -36.5262 H         1 UNK         0.0828 
    108 H108       18.9765  -28.7014  -36.4009 H         1 UNK         0.0828 
    109 H109       18.4018  -30.3399  -36.6632 H         1 UNK         0.0828 
    110 H110       19.4207  -29.6559  -40.9431 H         1 UNK         0.2931 
    111 H111       19.8332  -31.1034  -42.5085 H         1 UNK         0.0412 
    112 H112       23.2396  -31.8792  -40.6854 H         1 UNK         0.3472 
    113 H113       21.9994  -30.8645  -39.9880 H         1 UNK         0.3472 
    114 H114       19.0502  -33.3990  -40.6431 H         1 UNK         0.0970 
    115 H115       19.2403  -33.5289  -42.3608 H         1 UNK         0.0970 
    116 H116       15.8695  -32.9146  -43.7043 H         1 UNK         0.0612 
    117 H117       17.4141  -33.7141  -43.7991 H         1 UNK         0.0612 
@<TRIPOS>BOND
     1    1    2 1    
     2    1   62 1    
     3    1   63 1    
     4    1   64 1    
     5    2    3 2    
     6    2    4 am   BACKBONE|DICT|INTERRES
     7    4    5 1    
     8    4   65 1    
     9    5    6 1    
    10    5   25 1    
    11    5   66 1    
    12    6    7 1    
    13    6   67 1    
    14    6   68 1    
    15    7    8 1    
    16    8    9 1    
    17    8   69 1    
    18    8   70 1    
    19    9   10 ar   
    20    9   14 ar   
    21   10   11 ar   
    22   10   71 1    
    23   11   12 ar   
    24   11   61 1    
    25   12   13 ar   
    26   12   72 1    
    27   13   14 ar   
    28   13   15 1    
    29   14   73 1    
    30   15   16 1    
    31   15   74 1    
    32   15   75 1    
    33   16   17 1    
    34   17   18 1    
    35   17   76 1    
    36   17   77 1    
    37   18   19 1    
    38   18   27 1    
    39   18   78 1    
    40   19   20 am   BACKBONE|DICT|INTERRES
    41   19   79 1    
    42   20   21 2    
    43   20   22 1    
    44   22   23 1    
    45   22   24 1    
    46   22   80 1    
    47   23   81 1    
    48   23   82 1    
    49   23   83 1    
    50   24   25 am   BACKBONE|DICT|INTERRES
    51   24   84 1    
    52   25   26 2    
    53   27   28 2    
    54   27   29 am   BACKBONE|DICT|INTERRES
    55   29   30 1    
    56   29   85 1    
    57   30   31 1    
    58   30   32 1    
    59   30   86 1    
    60   31   87 1    
    61   31   88 1    
    62   31   89 1    
    63   32   33 2    
    64   32   34 am   BACKBONE|DICT|INTERRES
    65   34   35 1    
    66   34   90 1    
    67   35   36 1    
    68   35   37 1    
    69   35   91 1    
    70   36   92 1    
    71   36   93 1    
    72   36   94 1    
    73   37   38 2    
    74   37   39 am   BACKBONE|DICT|INTERRES
    75   39   40 1    
    76   39   95 1    
    77   40   41 1    
    78   40   42 1    
    79   40   96 1    
    80   41   97 1    
    81   41   98 1    
    82   41   99 1    
    83   42   43 2    
    84   42   44 am   BACKBONE|DICT|INTERRES
    85   44   45 1    
    86   44  100 1    
    87   45   46 1    
    88   45   47 1    
    89   45  101 1    
    90   46  102 1    
    91   46  103 1    
    92   46  104 1    
    93   47   48 2    
    94   47   49 am   BACKBONE|DICT|INTERRES
    95   49   50 1    
    96   49  105 1    
    97   50   51 1    
    98   50   52 1    
    99   50  106 1    
   100   51  107 1    
   101   51  108 1    
   102   51  109 1    
   103   52   53 2    
   104   52   54 am   BACKBONE|DICT|INTERRES
   105   54   55 1    
   106   54  110 1    
   107   55   56 1    
   108   55   59 1    
   109   55  111 1    
   110   56   57 am   BACKBONE|DICT|INTERRES
   111   56   58 2    
   112   57  112 1    
   113   57  113 1    
   114   59   60 1    
   115   59  114 1    
   116   59  115 1    
   117   60   61 1    
   118   61  116 1    
   119   61  117 1    
@<TRIPOS>SUBSTRUCTURE
     1 UNK         1 GROUP             0       ****    0 ROOT    
