@<TRIPOS>MOLECULE
3R8
117   119    1
SMALL
USER_CHARGES


@<TRIPOS>ATOM
      1 CA         13.7562  -23.4068  -48.1165 C.3       0 UNK        -0.2013 
      2 C          14.4091  -24.7807  -48.1132 C.2       0 UNK         0.4866 
      3 O          14.7956  -25.2782  -49.1710 O.2       0 UNK        -0.5176 
      4 N          14.5345  -25.3990  -46.9318 N.am      1 UNK        -0.4884 
      5 CA         15.1554  -26.7158  -46.7309 C.3       1 UNK         0.0853 
      6 C6         14.7328  -27.3597  -45.3852 C.3       10 UNK        -0.0849 
      7 S7         14.9491  -26.2698  -43.9348 S.3       10 UNK        -0.2776 
      8 C8         14.8533  -27.4745  -42.5742 C.3       10 UNK         0.0316 
      9 C9         16.2354  -27.9320  -42.1333 C.ar      10 UNK        -0.0863 
     10 C10        16.7753  -29.1383  -42.5922 C.ar      10 UNK        -0.1009 
     11 C11        18.0356  -29.5623  -42.1552 C.ar      10 UNK        -0.0712 
     12 C12        18.7502  -28.7713  -41.2492 C.ar      10 UNK        -0.0894 
     13 C13        18.2269  -27.5566  -40.7972 C.ar      10 UNK        -0.0745 
     14 C14        16.9685  -27.1445  -41.2416 C.ar      10 UNK        -0.0972 
     15 C15        19.0190  -26.6842  -39.8333 C.3       10 UNK         0.0209 
     16 S16        20.6086  -26.1391  -40.5361 S.3       10 UNK        -0.2568 
     17 C17        20.0911  -25.2839  -42.0675 C.3       10 UNK        -0.0983 
     18 CA         20.2608  -26.1550  -43.3402 C.3       3 UNK         0.0876 
     19 N          19.6194  -25.5353  -44.5034 N.am      3 UNK        -0.4424 
     20 C          19.5453  -26.0739  -45.7286 C.2       2 UNK         0.4918 
     21 O          20.0293  -27.1653  -46.0348 O.2       2 UNK        -0.4875 
     22 CA         18.7605  -25.2577  -46.7716 C.3       2 UNK         0.0481 
     23 CB         19.2965  -25.4611  -48.2043 C.3       2 UNK        -0.1831 
     24 N          17.3200  -25.5334  -46.7021 N.am      2 UNK        -0.4498 
     25 C          16.6902  -26.7053  -46.8989 C.2       1 UNK         0.5027 
     26 O          17.2518  -27.7543  -47.2164 O.2       1 UNK        -0.4969 
     27 C          21.7431  -26.5030  -43.6026 C.2       3 UNK         0.5005 
     28 O          22.5138  -25.6331  -44.0166 O.2       3 UNK        -0.5279 
     29 N          22.1047  -27.7642  -43.3307 N.am      4 UNK        -0.4463 
     30 CA         23.4626  -28.2990  -43.4626 C.3       4 UNK         0.0283 
     31 CB         23.3673  -29.7840  -43.8485 C.3       4 UNK        -0.1875 
     32 C          24.3112  -28.1094  -42.1882 C.2       4 UNK         0.4949 
     33 O          25.4916  -28.4611  -42.2000 O.2       4 UNK        -0.5039 
     34 N          23.7056  -27.5677  -41.1192 N.am      5 UNK        -0.4663 
     35 CA         24.3042  -27.2307  -39.8235 C.3       5 UNK         0.0242 
     36 CB         25.2197  -25.9932  -39.9703 C.3       5 UNK        -0.1982 
     37 C          24.9770  -28.4451  -39.1546 C.2       5 UNK         0.5017 
     38 O          24.2903  -29.4279  -38.8685 O.2       5 UNK        -0.5012 
     39 N          26.2971  -28.3670  -38.9323 N.am      6 UNK        -0.4439 
     40 CA         27.1316  -29.3710  -38.2615 C.3       6 UNK         0.0297 
     41 CB         28.5622  -28.8231  -38.1299 C.3       6 UNK        -0.2006 
     42 C          27.1502  -30.7628  -38.9227 C.2       6 UNK         0.4892 
     43 O          27.5073  -31.7324  -38.2527 O.2       6 UNK        -0.5089 
     44 N          26.7532  -30.8518  -40.2006 N.am      7 UNK        -0.4243 
     45 CA         26.5725  -32.1135  -40.9231 C.3       7 UNK         0.0196 
     46 CB         26.5291  -31.8263  -42.4307 C.3       7 UNK        -0.2007 
     47 C          25.3228  -32.9042  -40.4855 C.2       7 UNK         0.5020 
     48 O          25.2008  -34.0673  -40.8705 O.2       7 UNK        -0.5147 
     49 N          24.4141  -32.2773  -39.7172 N.am      8 UNK        -0.4734 
     50 CA         23.1975  -32.8594  -39.1276 C.3       8 UNK         0.0238 
     51 CB         23.5697  -33.8523  -38.0061 C.3       8 UNK        -0.1912 
     52 C          22.2430  -33.4691  -40.1740 C.2       8 UNK         0.5038 
     53 O          21.6842  -34.5454  -39.9535 O.2       8 UNK        -0.5046 
     54 N          22.1055  -32.7650  -41.3045 N.am      9 UNK        -0.4200 
     55 CA         21.3430  -33.1569  -42.5028 C.3       9 UNK         0.0839 
     56 C          21.9760  -34.3234  -43.3218 C.2       9 UNK         0.5513 
     57 N          23.1914  -34.7725  -43.0289 N.am      9 UNK        -0.7519 
     58 O          21.3658  -34.8116  -44.2695 O.2       9 UNK        -0.4960 
     59 C59        19.8211  -33.3772  -42.2461 C.3       10 UNK        -0.0876 
     60 S60        19.0199  -32.0183  -41.3278 S.3       10 UNK        -0.2414 
     61 C61        18.6398  -30.8590  -42.6775 C.3       10 UNK         0.0169 
     62 H62        12.8657  -23.4165  -48.7445 H         1 UNK         0.0903 
     63 H63        13.4613  -23.0925  -47.1155 H         1 UNK         0.0903 
     64 H64        14.4466  -22.6642  -48.5156 H         1 UNK         0.0903 
     65 H65        14.1972  -24.9525  -46.0893 H         1 UNK         0.3096 
     66 H66        14.7823  -27.3685  -47.5242 H         1 UNK         0.1121 
     67 H67        15.2695  -28.2965  -45.2210 H         1 UNK         0.0849 
     68 H68        13.6777  -27.6333  -45.4357 H         1 UNK         0.0849 
     69 H69        14.3407  -27.0081  -41.7314 H         1 UNK         0.0865 
     70 H70        14.2354  -28.3263  -42.8630 H         1 UNK         0.0865 
     71 H71        16.2139  -29.7464  -43.2884 H         1 UNK         0.1346 
     72 H72        19.7224  -29.0955  -40.9038 H         1 UNK         0.1412 
     73 H73        16.5546  -26.2073  -40.8942 H         1 UNK         0.1426 
     74 H74        19.2111  -27.2470  -38.9188 H         1 UNK         0.0716 
     75 H75        18.4446  -25.8046  -39.5383 H         1 UNK         0.0716 
     76 H76        20.6664  -24.3604  -42.1562 H         1 UNK         0.0695 
     77 H77        19.0500  -24.9757  -41.9587 H         1 UNK         0.0695 
     78 H78        19.7176  -27.0878  -43.1851 H         1 UNK         0.0983 
     79 H79        19.2006  -24.6303  -44.3485 H         1 UNK         0.3095 
     80 H80        18.8864  -24.2015  -46.5278 H         1 UNK         0.0454 
     81 H81        19.2108  -26.4969  -48.5339 H         1 UNK         0.0851 
     82 H82        20.3513  -25.1909  -48.2645 H         1 UNK         0.0851 
     83 H83        18.7598  -24.8383  -48.9197 H         1 UNK         0.0851 
     84 H84        16.7391  -24.7520  -46.4325 H         1 UNK         0.2976 
     85 H85        21.4006  -28.4090  -43.0024 H         1 UNK         0.3116 
     86 H86        23.9724  -27.7744  -44.2736 H         1 UNK         0.0646 
     87 H87        22.6783  -29.9391  -44.6792 H         1 UNK         0.0847 
     88 H88        23.0346  -30.3999  -43.0136 H         1 UNK         0.0847 
     89 H89        24.3375  -30.1587  -44.1735 H         1 UNK         0.0847 
     90 H90        22.7254  -27.3370  -41.2088 H         1 UNK         0.3040 
     91 H91        23.4791  -26.9515  -39.1658 H         1 UNK         0.1015 
     92 H92        26.0595  -26.1754  -40.6421 H         1 UNK         0.0786 
     93 H93        25.6201  -25.6770  -39.0059 H         1 UNK         0.0786 
     94 H94        24.6619  -25.1465  -40.3712 H         1 UNK         0.0786 
     95 H95        26.7684  -27.5283  -39.2393 H         1 UNK         0.3172 
     96 H96        26.7254  -29.5048  -37.2568 H         1 UNK         0.0595 
     97 H97        29.0144  -28.6374  -39.1050 H         1 UNK         0.0839 
     98 H98        29.2053  -29.5299  -37.6031 H         1 UNK         0.0839 
     99 H99        28.5824  -27.8908  -37.5651 H         1 UNK         0.0839 
    100 H100       26.4763  -30.0050  -40.6825 H         1 UNK         0.2998 
    101 H101       27.4387  -32.7486  -40.7248 H         1 UNK         0.0822 
    102 H102       27.4356  -31.3229  -42.7673 H         1 UNK         0.0787 
    103 H103       26.4368  -32.7488  -43.0058 H         1 UNK         0.0787 
    104 H104       25.6805  -31.1955  -42.6860 H         1 UNK         0.0787 
    105 H105       24.5809  -31.3036  -39.4762 H         1 UNK         0.3055 
    106 H106       22.6519  -32.0330  -38.6684 H         1 UNK         0.1106 
    107 H107       24.0805  -34.7323  -38.3988 H         1 UNK         0.0828 
    108 H108       22.6805  -34.2002  -37.4790 H         1 UNK         0.0828 
    109 H109       24.2223  -33.3882  -37.2667 H         1 UNK         0.0828 
    110 H110       22.6302  -31.9077  -41.3816 H         1 UNK         0.2931 
    111 H111       21.4228  -32.2963  -43.1670 H         1 UNK         0.0412 
    112 H112       23.5813  -35.5185  -43.5828 H         1 UNK         0.3472 
    113 H113       23.7161  -34.4096  -42.2413 H         1 UNK         0.3472 
    114 H114       19.2898  -33.5161  -43.1895 H         1 UNK         0.0970 
    115 H115       19.6641  -34.2985  -41.6830 H         1 UNK         0.0970 
    116 H116       19.5538  -30.6268  -43.2255 H         1 UNK         0.0612 
    117 H117       17.9649  -31.3451  -43.3837 H         1 UNK         0.0612 
@<TRIPOS>BOND
     1    1    2 1    
     2    1   62 1    
     3    1   63 1    
     4    1   64 1    
     5    2    3 2    
     6    2    4 am   BACKBONE|DICT|INTERRES
     7    4    5 1    
     8    4   65 1    
     9    5    6 1    
    10    5   25 1    
    11    5   66 1    
    12    6    7 1    
    13    6   67 1    
    14    6   68 1    
    15    7    8 1    
    16    8    9 1    
    17    8   69 1    
    18    8   70 1    
    19    9   10 ar   
    20    9   14 ar   
    21   10   11 ar   
    22   10   71 1    
    23   11   12 ar   
    24   11   61 1    
    25   12   13 ar   
    26   12   72 1    
    27   13   14 ar   
    28   13   15 1    
    29   14   73 1    
    30   15   16 1    
    31   15   74 1    
    32   15   75 1    
    33   16   17 1    
    34   17   18 1    
    35   17   76 1    
    36   17   77 1    
    37   18   19 1    
    38   18   27 1    
    39   18   78 1    
    40   19   20 am   BACKBONE|DICT|INTERRES
    41   19   79 1    
    42   20   21 2    
    43   20   22 1    
    44   22   23 1    
    45   22   24 1    
    46   22   80 1    
    47   23   81 1    
    48   23   82 1    
    49   23   83 1    
    50   24   25 am   BACKBONE|DICT|INTERRES
    51   24   84 1    
    52   25   26 2    
    53   27   28 2    
    54   27   29 am   BACKBONE|DICT|INTERRES
    55   29   30 1    
    56   29   85 1    
    57   30   31 1    
    58   30   32 1    
    59   30   86 1    
    60   31   87 1    
    61   31   88 1    
    62   31   89 1    
    63   32   33 2    
    64   32   34 am   BACKBONE|DICT|INTERRES
    65   34   35 1    
    66   34   90 1    
    67   35   36 1    
    68   35   37 1    
    69   35   91 1    
    70   36   92 1    
    71   36   93 1    
    72   36   94 1    
    73   37   38 2    
    74   37   39 am   BACKBONE|DICT|INTERRES
    75   39   40 1    
    76   39   95 1    
    77   40   41 1    
    78   40   42 1    
    79   40   96 1    
    80   41   97 1    
    81   41   98 1    
    82   41   99 1    
    83   42   43 2    
    84   42   44 am   BACKBONE|DICT|INTERRES
    85   44   45 1    
    86   44  100 1    
    87   45   46 1    
    88   45   47 1    
    89   45  101 1    
    90   46  102 1    
    91   46  103 1    
    92   46  104 1    
    93   47   48 2    
    94   47   49 am   BACKBONE|DICT|INTERRES
    95   49   50 1    
    96   49  105 1    
    97   50   51 1    
    98   50   52 1    
    99   50  106 1    
   100   51  107 1    
   101   51  108 1    
   102   51  109 1    
   103   52   53 2    
   104   52   54 am   BACKBONE|DICT|INTERRES
   105   54   55 1    
   106   54  110 1    
   107   55   56 1    
   108   55   59 1    
   109   55  111 1    
   110   56   57 am   BACKBONE|DICT|INTERRES
   111   56   58 2    
   112   57  112 1    
   113   57  113 1    
   114   59   60 1    
   115   59  114 1    
   116   59  115 1    
   117   60   61 1    
   118   61  116 1    
   119   61  117 1    
@<TRIPOS>SUBSTRUCTURE
     1 UNK         1 GROUP             0       ****    0 ROOT    
