@<TRIPOS>MOLECULE
3R8
117   119    1
SMALL
USER_CHARGES


@<TRIPOS>ATOM
      1 CA         14.1344  -27.6864  -48.0392 C.3       0 UNK        -0.2013 
      2 C          15.1955  -27.7916  -46.9547 C.2       0 UNK         0.4866 
      3 O          16.3613  -28.0480  -47.2591 O.2       0 UNK        -0.5176 
      4 N          14.8086  -27.5852  -45.6895 N.am      1 UNK        -0.4884 
      5 CA         15.6787  -27.6581  -44.5079 C.3       1 UNK         0.0853 
      6 C6         14.8793  -28.0373  -43.2322 C.3       10 UNK        -0.0849 
      7 S7         14.3021  -29.7713  -43.3154 S.3       10 UNK        -0.2776 
      8 C8         15.4466  -30.6443  -42.1859 C.3       10 UNK         0.0316 
      9 C9         16.9039  -30.2637  -42.4156 C.ar      10 UNK        -0.0863 
     10 C10        17.5495  -30.6087  -43.6061 C.ar      10 UNK        -0.1009 
     11 C11        18.8526  -30.1694  -43.8588 C.ar      10 UNK        -0.0712 
     12 C12        19.5252  -29.4137  -42.8921 C.ar      10 UNK        -0.0894 
     13 C13        18.9010  -29.0938  -41.6814 C.ar      10 UNK        -0.0745 
     14 C14        17.5922  -29.5237  -41.4506 C.ar      10 UNK        -0.0972 
     15 C15        19.6216  -28.2831  -40.6140 C.3       10 UNK         0.0209 
     16 S16        19.0195  -26.5644  -40.5794 S.3       10 UNK        -0.2568 
     17 C17        20.5193  -25.6334  -41.0326 C.3       10 UNK        -0.0983 
     18 CA         20.8631  -25.7365  -42.5392 C.3       3 UNK         0.0876 
     19 N          19.7619  -25.2730  -43.3862 N.am      3 UNK        -0.4424 
     20 C          19.6237  -25.5692  -44.6818 C.2       2 UNK         0.4918 
     21 O          20.4081  -26.2779  -45.3161 O.2       2 UNK        -0.4875 
     22 CA         18.3573  -25.0339  -45.3659 C.3       2 UNK         0.0481 
     23 CB         18.6278  -24.6003  -46.8171 C.3       2 UNK        -0.1831 
     24 N          17.3454  -26.0853  -45.3621 N.am      2 UNK        -0.4498 
     25 C          16.5240  -26.3758  -44.3457 C.2       1 UNK         0.5027 
     26 O          16.4181  -25.6774  -43.3358 O.2       1 UNK        -0.4969 
     27 C          22.1868  -25.0075  -42.8498 C.2       3 UNK         0.5005 
     28 O          22.1883  -23.9220  -43.4379 O.2       3 UNK        -0.5279 
     29 N          23.2896  -25.6189  -42.4094 N.am      4 UNK        -0.4463 
     30 CA         24.6602  -25.1266  -42.4984 C.3       4 UNK         0.0283 
     31 CB         25.2785  -25.5684  -43.8394 C.3       4 UNK        -0.1875 
     32 C          25.4365  -25.6805  -41.2935 C.2       4 UNK         0.4949 
     33 O          24.8522  -26.3779  -40.4585 O.2       4 UNK        -0.5039 
     34 N          26.7405  -25.3850  -41.2214 N.am      5 UNK        -0.4663 
     35 CA         27.6675  -25.8885  -40.1999 C.3       5 UNK         0.0242 
     36 CB         28.9055  -24.9727  -40.1587 C.3       5 UNK        -0.1982 
     37 C          28.0331  -27.3698  -40.4375 C.2       5 UNK         0.5017 
     38 O          29.1831  -27.6853  -40.7494 O.2       5 UNK        -0.5012 
     39 N          27.0325  -28.2452  -40.3142 N.am      6 UNK        -0.4439 
     40 CA         27.0824  -29.6873  -40.5323 C.3       6 UNK         0.0297 
     41 CB         27.0974  -29.9832  -42.0472 C.3       6 UNK        -0.2006 
     42 C          25.8667  -30.3258  -39.8403 C.2       6 UNK         0.4892 
     43 O          25.0736  -29.6170  -39.2131 O.2       6 UNK        -0.5089 
     44 N          25.7334  -31.6524  -39.9703 N.am      7 UNK        -0.4243 
     45 CA         24.5636  -32.4179  -39.5274 C.3       7 UNK         0.0196 
     46 CB         24.8698  -33.9191  -39.6595 C.3       7 UNK        -0.2007 
     47 C          23.3028  -32.0562  -40.3340 C.2       7 UNK         0.5020 
     48 O          23.4100  -31.6285  -41.4858 O.2       7 UNK        -0.5147 
     49 N          22.1249  -32.2745  -39.7356 N.am      8 UNK        -0.4734 
     50 CA         20.8065  -31.9340  -40.2898 C.3       8 UNK         0.0238 
     51 CB         19.7958  -31.8153  -39.1329 C.3       8 UNK        -0.1912 
     52 C          20.3186  -32.8811  -41.4093 C.2       8 UNK         0.5038 
     53 O          19.1600  -33.2999  -41.3972 O.2       8 UNK        -0.5046 
     54 N          21.2137  -33.1975  -42.3524 N.am      9 UNK        -0.4200 
     55 CA         20.9772  -33.9683  -43.5849 C.3       9 UNK         0.0839 
     56 C          20.4876  -35.4342  -43.3755 C.2       9 UNK         0.5513 
     57 N          20.7140  -36.0429  -42.2175 N.am      9 UNK        -0.7519 
     58 O          19.9282  -36.0452  -44.2828 O.2       9 UNK        -0.4960 
     59 C59        20.1273  -33.1755  -44.6187 C.3       10 UNK        -0.0876 
     60 S60        20.9239  -31.5942  -45.0736 S.3       10 UNK        -0.2414 
     61 C61        19.5070  -30.4600  -45.2023 C.3       10 UNK         0.0169 
     62 H62        14.0625  -28.6268  -48.5849 H         1 UNK         0.0903 
     63 H63        13.1515  -27.4573  -47.6279 H         1 UNK         0.0903 
     64 H64        14.3980  -26.9009  -48.7468 H         1 UNK         0.0903 
     65 H65        13.8416  -27.3621  -45.5002 H         1 UNK         0.3096 
     66 H66        16.4082  -28.4500  -44.6805 H         1 UNK         0.1121 
     67 H67        14.0164  -27.3806  -43.1099 H         1 UNK         0.0849 
     68 H68        15.4784  -27.9049  -42.3301 H         1 UNK         0.0849 
     69 H69        15.1512  -30.4341  -41.1568 H         1 UNK         0.0865 
     70 H70        15.3299  -31.7205  -42.3211 H         1 UNK         0.0865 
     71 H71        17.0147  -31.1756  -44.3561 H         1 UNK         0.1346 
     72 H72        20.5334  -29.0781  -43.0902 H         1 UNK         0.1412 
     73 H73        17.1014  -29.2547  -40.5250 H         1 UNK         0.1426 
     74 H74        20.7007  -28.3136  -40.7708 H         1 UNK         0.0716 
     75 H75        19.4472  -28.7339  -39.6360 H         1 UNK         0.0716 
     76 H76        21.3422  -25.9927  -40.4114 H         1 UNK         0.0695 
     77 H77        20.3637  -24.5903  -40.7503 H         1 UNK         0.0695 
     78 H78        21.0274  -26.7888  -42.7766 H         1 UNK         0.0983 
     79 H79        19.0516  -24.7184  -42.9310 H         1 UNK         0.3095 
     80 H80        17.9904  -24.1643  -44.8162 H         1 UNK         0.0454 
     81 H81        17.7330  -24.1818  -47.2778 H         1 UNK         0.0851 
     82 H82        18.9631  -25.4333  -47.4365 H         1 UNK         0.0851 
     83 H83        19.4020  -23.8330  -46.8552 H         1 UNK         0.0851 
     84 H84        17.3418  -26.7207  -46.1549 H         1 UNK         0.2976 
     85 H85        23.2057  -26.4526  -41.8396 H         1 UNK         0.3116 
     86 H86        24.6644  -24.0368  -42.4292 H         1 UNK         0.0646 
     87 H87        25.3513  -26.6545  -43.9101 H         1 UNK         0.0847 
     88 H88        24.6831  -25.2197  -44.6835 H         1 UNK         0.0847 
     89 H89        26.2821  -25.1631  -43.9709 H         1 UNK         0.0847 
     90 H90        27.1495  -24.8242  -41.9554 H         1 UNK         0.3040 
     91 H91        27.1800  -25.8292  -39.2238 H         1 UNK         0.1015 
     92 H92        29.6101  -25.3032  -39.3941 H         1 UNK         0.0786 
     93 H93        28.6310  -23.9450  -39.9199 H         1 UNK         0.0786 
     94 H94        29.4371  -24.9658  -41.1112 H         1 UNK         0.0786 
     95 H95        26.1129  -27.8960  -40.0490 H         1 UNK         0.3172 
     96 H96        27.9860  -30.0868  -40.0678 H         1 UNK         0.0595 
     97 H97        26.1828  -29.6365  -42.5305 H         1 UNK         0.0839 
     98 H98        27.1873  -31.0512  -42.2471 H         1 UNK         0.0839 
     99 H99        27.9392  -29.4988  -42.5423 H         1 UNK         0.0839 
    100 H100       26.4176  -32.1550  -40.5163 H         1 UNK         0.2998 
    101 H101       24.3830  -32.1834  -38.4760 H         1 UNK         0.0822 
    102 H102       24.0342  -34.5240  -39.3048 H         1 UNK         0.0787 
    103 H103       25.7425  -34.2000  -39.0694 H         1 UNK         0.0787 
    104 H104       25.0593  -34.2026  -40.6958 H         1 UNK         0.0787 
    105 H105       22.1250  -32.6773  -38.8089 H         1 UNK         0.3055 
    106 H106       20.8907  -30.9497  -40.7528 H         1 UNK         0.1106 
    107 H107       20.1209  -31.0838  -38.3931 H         1 UNK         0.0828 
    108 H108       18.8202  -31.4892  -39.4962 H         1 UNK         0.0828 
    109 H109       19.6515  -32.7694  -38.6248 H         1 UNK         0.0828 
    110 H110       22.1334  -32.7746  -42.2659 H         1 UNK         0.2931 
    111 H111       21.9675  -34.0906  -44.0252 H         1 UNK         0.0412 
    112 H112       21.1712  -35.5522  -41.4659 H         1 UNK         0.3472 
    113 H113       20.4060  -36.9941  -42.0893 H         1 UNK         0.3472 
    114 H114       19.1255  -32.9975  -44.2257 H         1 UNK         0.0970 
    115 H115       19.9965  -33.7493  -45.5377 H         1 UNK         0.0970 
    116 H116       19.8521  -29.5192  -45.6342 H         1 UNK         0.0612 
    117 H117       18.7847  -30.8714  -45.9092 H         1 UNK         0.0612 
@<TRIPOS>BOND
     1    1    2 1    
     2    1   62 1    
     3    1   63 1    
     4    1   64 1    
     5    2    3 2    
     6    2    4 am   BACKBONE|DICT|INTERRES
     7    4    5 1    
     8    4   65 1    
     9    5    6 1    
    10    5   25 1    
    11    5   66 1    
    12    6    7 1    
    13    6   67 1    
    14    6   68 1    
    15    7    8 1    
    16    8    9 1    
    17    8   69 1    
    18    8   70 1    
    19    9   10 ar   
    20    9   14 ar   
    21   10   11 ar   
    22   10   71 1    
    23   11   12 ar   
    24   11   61 1    
    25   12   13 ar   
    26   12   72 1    
    27   13   14 ar   
    28   13   15 1    
    29   14   73 1    
    30   15   16 1    
    31   15   74 1    
    32   15   75 1    
    33   16   17 1    
    34   17   18 1    
    35   17   76 1    
    36   17   77 1    
    37   18   19 1    
    38   18   27 1    
    39   18   78 1    
    40   19   20 am   BACKBONE|DICT|INTERRES
    41   19   79 1    
    42   20   21 2    
    43   20   22 1    
    44   22   23 1    
    45   22   24 1    
    46   22   80 1    
    47   23   81 1    
    48   23   82 1    
    49   23   83 1    
    50   24   25 am   BACKBONE|DICT|INTERRES
    51   24   84 1    
    52   25   26 2    
    53   27   28 2    
    54   27   29 am   BACKBONE|DICT|INTERRES
    55   29   30 1    
    56   29   85 1    
    57   30   31 1    
    58   30   32 1    
    59   30   86 1    
    60   31   87 1    
    61   31   88 1    
    62   31   89 1    
    63   32   33 2    
    64   32   34 am   BACKBONE|DICT|INTERRES
    65   34   35 1    
    66   34   90 1    
    67   35   36 1    
    68   35   37 1    
    69   35   91 1    
    70   36   92 1    
    71   36   93 1    
    72   36   94 1    
    73   37   38 2    
    74   37   39 am   BACKBONE|DICT|INTERRES
    75   39   40 1    
    76   39   95 1    
    77   40   41 1    
    78   40   42 1    
    79   40   96 1    
    80   41   97 1    
    81   41   98 1    
    82   41   99 1    
    83   42   43 2    
    84   42   44 am   BACKBONE|DICT|INTERRES
    85   44   45 1    
    86   44  100 1    
    87   45   46 1    
    88   45   47 1    
    89   45  101 1    
    90   46  102 1    
    91   46  103 1    
    92   46  104 1    
    93   47   48 2    
    94   47   49 am   BACKBONE|DICT|INTERRES
    95   49   50 1    
    96   49  105 1    
    97   50   51 1    
    98   50   52 1    
    99   50  106 1    
   100   51  107 1    
   101   51  108 1    
   102   51  109 1    
   103   52   53 2    
   104   52   54 am   BACKBONE|DICT|INTERRES
   105   54   55 1    
   106   54  110 1    
   107   55   56 1    
   108   55   59 1    
   109   55  111 1    
   110   56   57 am   BACKBONE|DICT|INTERRES
   111   56   58 2    
   112   57  112 1    
   113   57  113 1    
   114   59   60 1    
   115   59  114 1    
   116   59  115 1    
   117   60   61 1    
   118   61  116 1    
   119   61  117 1    
@<TRIPOS>SUBSTRUCTURE
     1 UNK         1 GROUP             0       ****    0 ROOT    
