@<TRIPOS>MOLECULE
3R8
117   119    1
SMALL
USER_CHARGES


@<TRIPOS>ATOM
      1 CA         16.4035  -22.3258  -46.7211 C.3       0 UNK        -0.2013 
      2 C          17.5294  -23.2805  -47.0899 C.2       0 UNK         0.4866 
      3 O          18.6148  -22.8327  -47.4624 O.2       0 UNK        -0.5176 
      4 N          17.2768  -24.5916  -46.9987 N.am      1 UNK        -0.4884 
      5 CA         18.2595  -25.6544  -47.2346 C.3       1 UNK         0.0853 
      6 C6         17.5641  -26.9747  -47.6646 C.3       10 UNK        -0.0849 
      7 S7         16.4312  -27.6746  -46.4121 S.3       10 UNK        -0.2776 
      8 C8         17.4189  -29.0913  -45.8143 C.3       10 UNK         0.0316 
      9 C9         17.1884  -29.4777  -44.3545 C.ar      10 UNK        -0.0863 
     10 C10        17.5896  -30.7494  -43.9337 C.ar      10 UNK        -0.1009 
     11 C11        17.4892  -31.1245  -42.5915 C.ar      10 UNK        -0.0712 
     12 C12        16.9526  -30.2297  -41.6641 C.ar      10 UNK        -0.0894 
     13 C13        16.5780  -28.9436  -42.0620 C.ar      10 UNK        -0.0745 
     14 C14        16.6855  -28.5765  -43.4064 C.ar      10 UNK        -0.0972 
     15 C15        16.1606  -27.9190  -41.0203 C.3       10 UNK         0.0209 
     16 S16        17.5647  -27.4736  -39.9445 S.3       10 UNK        -0.2568 
     17 C17        18.7533  -26.7233  -41.1185 C.3       10 UNK        -0.0983 
     18 CA         19.7550  -27.7157  -41.7832 C.3       3 UNK         0.0876 
     19 N          20.3140  -27.1214  -43.0000 N.am      3 UNK        -0.4424 
     20 C          20.7565  -27.7891  -44.0712 C.2       2 UNK         0.4918 
     21 O          20.7264  -29.0145  -44.1874 O.2       2 UNK        -0.4875 
     22 CA         21.3085  -26.9246  -45.2228 C.3       2 UNK         0.0481 
     23 CB         22.4891  -27.6087  -45.9347 C.3       2 UNK        -0.1831 
     24 N          20.2842  -26.6055  -46.2213 N.am      2 UNK        -0.4498 
     25 C          19.2083  -25.8300  -46.0231 C.2       1 UNK         0.5027 
     26 O          18.9613  -25.2699  -44.9508 O.2       1 UNK        -0.4969 
     27 C          20.8679  -28.2188  -40.8344 C.2       3 UNK         0.5005 
     28 O          22.0485  -28.2248  -41.1939 O.2       3 UNK        -0.5279 
     29 N          20.4805  -28.6172  -39.6160 N.am      4 UNK        -0.4463 
     30 CA         21.3329  -29.1735  -38.5577 C.3       4 UNK         0.0283 
     31 CB         20.4542  -29.5405  -37.3517 C.3       4 UNK        -0.1875 
     32 C          22.5056  -28.2759  -38.1147 C.2       4 UNK         0.4949 
     33 O          23.4815  -28.7952  -37.5751 O.2       4 UNK        -0.5039 
     34 N          22.4130  -26.9632  -38.3725 N.am      5 UNK        -0.4663 
     35 CA         23.5047  -26.0004  -38.1966 C.3       5 UNK         0.0242 
     36 CB         22.9474  -24.5732  -38.3195 C.3       5 UNK        -0.1982 
     37 C          24.6629  -26.2166  -39.1907 C.2       5 UNK         0.5017 
     38 O          25.8162  -25.9831  -38.8280 O.2       5 UNK        -0.5012 
     39 N          24.3390  -26.6692  -40.4107 N.am      6 UNK        -0.4439 
     40 CA         25.3022  -27.1020  -41.4265 C.3       6 UNK         0.0297 
     41 CB         24.7370  -26.7990  -42.8234 C.3       6 UNK        -0.2006 
     42 C          25.6238  -28.6008  -41.2892 C.2       6 UNK         0.4892 
     43 O          26.7356  -29.0082  -41.6260 O.2       6 UNK        -0.5089 
     44 N          24.6502  -29.3770  -40.7874 N.am      7 UNK        -0.4243 
     45 CA         24.6968  -30.8150  -40.5010 C.3       7 UNK         0.0196 
     46 CB         25.7632  -31.1404  -39.4334 C.3       7 UNK        -0.2007 
     47 C          24.8196  -31.6770  -41.7702 C.2       7 UNK         0.5020 
     48 O          25.5042  -32.7008  -41.7608 O.2       7 UNK        -0.5147 
     49 N          24.1277  -31.2606  -42.8395 N.am      8 UNK        -0.4734 
     50 CA         24.0527  -31.9872  -44.1126 C.3       8 UNK         0.0238 
     51 CB         23.7149  -30.9900  -45.2322 C.3       8 UNK        -0.1912 
     52 C          23.0375  -33.1481  -44.0976 C.2       8 UNK         0.5038 
     53 O          23.0115  -33.9287  -45.0503 O.2       8 UNK        -0.5046 
     54 N          22.2109  -33.2232  -43.0459 N.am      9 UNK        -0.4200 
     55 CA         21.1575  -34.2246  -42.8241 C.3       9 UNK         0.0839 
     56 C          21.6878  -35.6843  -42.8116 C.2       9 UNK         0.5513 
     57 N          20.9481  -36.6185  -43.3932 N.am      9 UNK        -0.7519 
     58 O          22.7332  -35.9812  -42.2371 O.2       9 UNK        -0.4960 
     59 C59        20.3666  -33.9327  -41.5204 C.3       10 UNK        -0.0876 
     60 S60        19.7170  -32.2298  -41.4541 S.3       10 UNK        -0.2414 
     61 C61        18.0434  -32.4604  -42.1294 C.3       10 UNK         0.0169 
     62 H62        15.4983  -22.8569  -46.4270 H         1 UNK         0.0903 
     63 H63        16.7086  -21.6903  -45.8901 H         1 UNK         0.0903 
     64 H64        16.1606  -21.6858  -47.5690 H         1 UNK         0.0903 
     65 H65        16.3818  -24.9075  -46.6515 H         1 UNK         0.3096 
     66 H66        18.8891  -25.3379  -48.0699 H         1 UNK         0.1121 
     67 H67        16.9775  -26.7900  -48.5661 H         1 UNK         0.0849 
     68 H68        18.3012  -27.7222  -47.9625 H         1 UNK         0.0849 
     69 H69        17.2124  -29.9456  -46.4610 H         1 UNK         0.0865 
     70 H70        18.4811  -28.8734  -45.9241 H         1 UNK         0.0865 
     71 H71        18.0284  -31.4350  -44.6460 H         1 UNK         0.1346 
     72 H72        16.9017  -30.5055  -40.6195 H         1 UNK         0.1412 
     73 H73        16.4254  -27.5684  -43.6962 H         1 UNK         0.1426 
     74 H74        15.3577  -28.3318  -40.4079 H         1 UNK         0.0716 
     75 H75        15.7617  -27.0178  -41.4888 H         1 UNK         0.0716 
     76 H76        18.1655  -26.2219  -41.8900 H         1 UNK         0.0695 
     77 H77        19.2914  -25.9258  -40.6027 H         1 UNK         0.0695 
     78 H78        19.2155  -28.6115  -42.0885 H         1 UNK         0.0983 
     79 H79        20.3473  -26.1127  -43.0255 H         1 UNK         0.3095 
     80 H80        21.6773  -25.9875  -44.8001 H         1 UNK         0.0454 
     81 H81        23.2636  -27.8977  -45.2251 H         1 UNK         0.0851 
     82 H82        22.9533  -26.9431  -46.6624 H         1 UNK         0.0851 
     83 H83        22.1773  -28.5126  -46.4593 H         1 UNK         0.0851 
     84 H84        20.4079  -27.0348  -47.1268 H         1 UNK         0.2976 
     85 H85        19.4927  -28.5415  -39.4035 H         1 UNK         0.3116 
     86 H86        21.7673  -30.0942  -38.9510 H         1 UNK         0.0646 
     87 H87        19.9553  -28.6648  -36.9348 H         1 UNK         0.0847 
     88 H88        19.6883  -30.2669  -37.6243 H         1 UNK         0.0847 
     89 H89        21.0502  -29.9868  -36.5541 H         1 UNK         0.0847 
     90 H90        21.5618  -26.6207  -38.7932 H         1 UNK         0.3040 
     91 H91        23.9094  -26.1266  -37.1897 H         1 UNK         0.1015 
     92 H92        23.7353  -23.8334  -38.1696 H         1 UNK         0.0786 
     93 H93        22.1790  -24.3812  -37.5704 H         1 UNK         0.0786 
     94 H94        22.5124  -24.3908  -39.3030 H         1 UNK         0.0786 
     95 H95        23.3664  -26.8872  -40.6030 H         1 UNK         0.3172 
     96 H96        26.2346  -26.5453  -41.3100 H         1 UNK         0.0595 
     97 H97        23.7941  -27.3171  -42.9958 H         1 UNK         0.0839 
     98 H98        25.4317  -27.1142  -43.6033 H         1 UNK         0.0839 
     99 H99        24.5615  -25.7316  -42.9571 H         1 UNK         0.0839 
    100 H100       23.7448  -28.9373  -40.6498 H         1 UNK         0.2998 
    101 H101       23.7265  -31.0638  -40.0696 H         1 UNK         0.0822 
    102 H102       25.6925  -32.1811  -39.1151 H         1 UNK         0.0787 
    103 H103       25.6337  -30.5217  -38.5451 H         1 UNK         0.0787 
    104 H104       26.7752  -30.9842  -39.8079 H         1 UNK         0.0787 
    105 H105       23.5895  -30.4078  -42.7667 H         1 UNK         0.3055 
    106 H106       25.0319  -32.4213  -44.3283 H         1 UNK         0.1106 
    107 H107       22.7281  -30.5497  -45.0895 H         1 UNK         0.0828 
    108 H108       24.4451  -30.1822  -45.2801 H         1 UNK         0.0828 
    109 H109       23.7129  -31.4808  -46.2065 H         1 UNK         0.0828 
    110 H110       22.3040  -32.5245  -42.3256 H         1 UNK         0.2931 
    111 H111       20.4658  -34.1267  -43.6633 H         1 UNK         0.0412 
    112 H112       21.2669  -37.5752  -43.3798 H         1 UNK         0.3472 
    113 H113       20.0838  -36.3862  -43.8579 H         1 UNK         0.3472 
    114 H114       19.5391  -34.6355  -41.4047 H         1 UNK         0.0970 
    115 H115       21.0068  -34.0781  -40.6479 H         1 UNK         0.0970 
    116 H116       17.3970  -32.8996  -41.3681 H         1 UNK         0.0612 
    117 H117       18.0746  -33.1642  -42.9626 H         1 UNK         0.0612 
@<TRIPOS>BOND
     1    1    2 1    
     2    1   62 1    
     3    1   63 1    
     4    1   64 1    
     5    2    3 2    
     6    2    4 am   BACKBONE|DICT|INTERRES
     7    4    5 1    
     8    4   65 1    
     9    5    6 1    
    10    5   25 1    
    11    5   66 1    
    12    6    7 1    
    13    6   67 1    
    14    6   68 1    
    15    7    8 1    
    16    8    9 1    
    17    8   69 1    
    18    8   70 1    
    19    9   10 ar   
    20    9   14 ar   
    21   10   11 ar   
    22   10   71 1    
    23   11   12 ar   
    24   11   61 1    
    25   12   13 ar   
    26   12   72 1    
    27   13   14 ar   
    28   13   15 1    
    29   14   73 1    
    30   15   16 1    
    31   15   74 1    
    32   15   75 1    
    33   16   17 1    
    34   17   18 1    
    35   17   76 1    
    36   17   77 1    
    37   18   19 1    
    38   18   27 1    
    39   18   78 1    
    40   19   20 am   BACKBONE|DICT|INTERRES
    41   19   79 1    
    42   20   21 2    
    43   20   22 1    
    44   22   23 1    
    45   22   24 1    
    46   22   80 1    
    47   23   81 1    
    48   23   82 1    
    49   23   83 1    
    50   24   25 am   BACKBONE|DICT|INTERRES
    51   24   84 1    
    52   25   26 2    
    53   27   28 2    
    54   27   29 am   BACKBONE|DICT|INTERRES
    55   29   30 1    
    56   29   85 1    
    57   30   31 1    
    58   30   32 1    
    59   30   86 1    
    60   31   87 1    
    61   31   88 1    
    62   31   89 1    
    63   32   33 2    
    64   32   34 am   BACKBONE|DICT|INTERRES
    65   34   35 1    
    66   34   90 1    
    67   35   36 1    
    68   35   37 1    
    69   35   91 1    
    70   36   92 1    
    71   36   93 1    
    72   36   94 1    
    73   37   38 2    
    74   37   39 am   BACKBONE|DICT|INTERRES
    75   39   40 1    
    76   39   95 1    
    77   40   41 1    
    78   40   42 1    
    79   40   96 1    
    80   41   97 1    
    81   41   98 1    
    82   41   99 1    
    83   42   43 2    
    84   42   44 am   BACKBONE|DICT|INTERRES
    85   44   45 1    
    86   44  100 1    
    87   45   46 1    
    88   45   47 1    
    89   45  101 1    
    90   46  102 1    
    91   46  103 1    
    92   46  104 1    
    93   47   48 2    
    94   47   49 am   BACKBONE|DICT|INTERRES
    95   49   50 1    
    96   49  105 1    
    97   50   51 1    
    98   50   52 1    
    99   50  106 1    
   100   51  107 1    
   101   51  108 1    
   102   51  109 1    
   103   52   53 2    
   104   52   54 am   BACKBONE|DICT|INTERRES
   105   54   55 1    
   106   54  110 1    
   107   55   56 1    
   108   55   59 1    
   109   55  111 1    
   110   56   57 am   BACKBONE|DICT|INTERRES
   111   56   58 2    
   112   57  112 1    
   113   57  113 1    
   114   59   60 1    
   115   59  114 1    
   116   59  115 1    
   117   60   61 1    
   118   61  116 1    
   119   61  117 1    
@<TRIPOS>SUBSTRUCTURE
     1 UNK         1 GROUP             0       ****    0 ROOT    
