@<TRIPOS>MOLECULE
3R8
117   119    1
SMALL
USER_CHARGES


@<TRIPOS>ATOM
      1 CA         16.0794  -22.1224  -43.4555 C.3       0 UNK        -0.2013 
      2 C          16.4168  -23.1047  -44.5674 C.2       0 UNK         0.4866 
      3 O          15.9886  -22.9127  -45.7060 O.2       0 UNK        -0.5176 
      4 N          17.1855  -24.1492  -44.2478 N.am      1 UNK        -0.4884 
      5 CA         17.6507  -25.1822  -45.1735 C.3       1 UNK         0.0853 
      6 C6         16.5355  -26.1756  -45.6124 C.3       10 UNK        -0.0849 
      7 S7         15.7887  -27.1156  -44.2346 S.3       10 UNK        -0.2776 
      8 C8         15.6828  -28.8200  -44.8952 C.3       10 UNK         0.0316 
      9 C9         16.4527  -29.8397  -44.0591 C.ar      10 UNK        -0.0863 
     10 C10        17.1791  -30.8617  -44.6831 C.ar      10 UNK        -0.1009 
     11 C11        17.8492  -31.8265  -43.9213 C.ar      10 UNK        -0.0712 
     12 C12        17.8046  -31.7548  -42.5261 C.ar      10 UNK        -0.0894 
     13 C13        17.0773  -30.7457  -41.8912 C.ar      10 UNK        -0.0745 
     14 C14        16.3942  -29.8030  -42.6619 C.ar      10 UNK        -0.0972 
     15 C15        17.0064  -30.6841  -40.3730 C.3       10 UNK         0.0209 
     16 S16        18.5601  -30.0963  -39.6302 S.3       10 UNK        -0.2568 
     17 C17        18.7167  -28.4103  -40.3102 C.3       10 UNK        -0.0983 
     18 CA         20.0614  -28.2266  -41.0706 C.3       3 UNK         0.0876 
     19 N          19.8848  -28.0859  -42.5230 N.am      3 UNK        -0.4424 
     20 C          20.8949  -28.0091  -43.4040 C.2       2 UNK         0.4918 
     21 O          22.0808  -28.0858  -43.0848 O.2       2 UNK        -0.4875 
     22 CA         20.5553  -27.7241  -44.8788 C.3       2 UNK         0.0481 
     23 CB         20.5524  -29.0274  -45.6884 C.3       2 UNK        -0.1831 
     24 N          19.3058  -26.9983  -45.1376 N.am      2 UNK        -0.4498 
     25 C          18.9155  -25.8400  -44.5854 C.2       1 UNK         0.5027 
     26 O          19.5136  -25.2874  -43.6563 O.2       1 UNK        -0.4969 
     27 C          20.9068  -27.0966  -40.4399 C.2       3 UNK         0.5005 
     28 O          21.6101  -27.3488  -39.4579 O.2       3 UNK        -0.5279 
     29 N          20.8583  -25.8916  -41.0317 N.am      4 UNK        -0.4463 
     30 CA         21.6460  -24.7240  -40.6280 C.3       4 UNK         0.0283 
     31 CB         21.1372  -23.4837  -41.3795 C.3       4 UNK        -0.1875 
     32 C          23.1627  -24.8913  -40.8373 C.2       4 UNK         0.4949 
     33 O          23.9335  -24.1948  -40.1778 O.2       4 UNK        -0.5039 
     34 N          23.5771  -25.8224  -41.7087 N.am      5 UNK        -0.4663 
     35 CA         24.9763  -26.1750  -41.9644 C.3       5 UNK         0.0242 
     36 CB         25.1415  -26.5113  -43.4588 C.3       5 UNK        -0.1982 
     37 C          25.4511  -27.3154  -41.0399 C.2       5 UNK         0.5017 
     38 O          26.1874  -28.1953  -41.4874 O.2       5 UNK        -0.5012 
     39 N          25.0232  -27.2714  -39.7680 N.am      6 UNK        -0.4439 
     40 CA         25.2863  -28.2342  -38.6926 C.3       6 UNK         0.0297 
     41 CB         26.7841  -28.2519  -38.3185 C.3       6 UNK        -0.2006 
     42 C          24.7298  -29.6303  -39.0240 C.2       6 UNK         0.4892 
     43 O          25.4937  -30.5905  -39.1478 O.2       6 UNK        -0.5089 
     44 N          23.4004  -29.7001  -39.1853 N.am      7 UNK        -0.4243 
     45 CA         22.5845  -30.8696  -39.5437 C.3       7 UNK         0.0196 
     46 CB         22.7781  -32.0497  -38.5695 C.3       7 UNK        -0.2007 
     47 C          22.7513  -31.3033  -41.0104 C.2       7 UNK         0.5020 
     48 O          21.7488  -31.3971  -41.7158 O.2       7 UNK        -0.5147 
     49 N          24.0022  -31.5315  -41.4362 N.am      8 UNK        -0.4734 
     50 CA         24.4410  -31.8879  -42.7922 C.3       8 UNK         0.0238 
     51 CB         24.3459  -30.6457  -43.7075 C.3       8 UNK        -0.1912 
     52 C          23.7215  -33.1346  -43.3562 C.2       8 UNK         0.5038 
     53 O          23.4804  -34.0846  -42.6070 O.2       8 UNK        -0.5046 
     54 N          23.4114  -33.1117  -44.6605 N.am      9 UNK        -0.4200 
     55 CA         22.6071  -34.1066  -45.3944 C.3       9 UNK         0.0839 
     56 C          23.2549  -35.5192  -45.5208 C.2       9 UNK         0.5513 
     57 N          24.5607  -35.6644  -45.3298 N.am      9 UNK        -0.7519 
     58 O          22.5747  -36.4947  -45.8299 O.2       9 UNK        -0.4960 
     59 C59        21.1281  -34.1600  -44.9101 C.3       10 UNK        -0.0876 
     60 S60        20.3300  -32.5183  -44.9137 S.3       10 UNK        -0.2414 
     61 C61        18.6007  -32.9668  -44.5925 C.3       10 UNK         0.0169 
     62 H62        16.4433  -21.1274  -43.7102 H         1 UNK         0.0903 
     63 H63        14.9996  -22.0665  -43.3199 H         1 UNK         0.0903 
     64 H64        16.5256  -22.4138  -42.5047 H         1 UNK         0.0903 
     65 H65        17.5734  -24.2370  -43.3168 H         1 UNK         0.3096 
     66 H66        18.0003  -24.6684  -46.0720 H         1 UNK         0.1121 
     67 H67        15.7313  -25.6238  -46.1011 H         1 UNK         0.0849 
     68 H68        16.9104  -26.8520  -46.3807 H         1 UNK         0.0849 
     69 H69        16.0151  -28.8512  -45.9331 H         1 UNK         0.0865 
     70 H70        14.6330  -29.1157  -44.9105 H         1 UNK         0.0865 
     71 H71        17.2140  -30.9190  -45.7626 H         1 UNK         0.1346 
     72 H72        18.3325  -32.4884  -41.9319 H         1 UNK         0.1412 
     73 H73        15.8134  -29.0355  -42.1689 H         1 UNK         0.1426 
     74 H74        16.7841  -31.6782  -39.9825 H         1 UNK         0.0716 
     75 H75        16.1888  -30.0394  -40.0466 H         1 UNK         0.0716 
     76 H76        18.6192  -27.7266  -39.4639 H         1 UNK         0.0695 
     77 H77        17.8655  -28.1762  -40.9494 H         1 UNK         0.0695 
     78 H78        20.6643  -29.1250  -40.9534 H         1 UNK         0.0983 
     79 H79        18.9380  -28.0224  -42.8667 H         1 UNK         0.3095 
     80 H80        21.3612  -27.0965  -45.2642 H         1 UNK         0.0454 
     81 H81        20.4915  -28.8348  -46.7593 H         1 UNK         0.0851 
     82 H82        19.7118  -29.6632  -45.4117 H         1 UNK         0.0851 
     83 H83        21.4646  -29.6005  -45.5163 H         1 UNK         0.0851 
     84 H84        18.7283  -27.3837  -45.8698 H         1 UNK         0.2976 
     85 H85        20.2875  -25.7809  -41.8656 H         1 UNK         0.3116 
     86 H86        21.4803  -24.5672  -39.5601 H         1 UNK         0.0646 
     87 H87        21.6632  -22.5858  -41.0524 H         1 UNK         0.0847 
     88 H88        20.0743  -23.3181  -41.2031 H         1 UNK         0.0847 
     89 H89        21.2883  -23.5748  -42.4559 H         1 UNK         0.0847 
     90 H90        22.8861  -26.4093  -42.1649 H         1 UNK         0.3040 
     91 H91        25.6146  -25.3147  -41.7512 H         1 UNK         0.1015 
     92 H92        24.8119  -25.6854  -44.0892 H         1 UNK         0.0786 
     93 H93        24.5694  -27.3953  -43.7403 H         1 UNK         0.0786 
     94 H94        26.1860  -26.7067  -43.7046 H         1 UNK         0.0786 
     95 H95        24.4099  -26.5049  -39.5241 H         1 UNK         0.3172 
     96 H96        24.7367  -27.8792  -37.8194 H         1 UNK         0.0595 
     97 H97        27.4066  -28.6158  -39.1365 H         1 UNK         0.0839 
     98 H98        26.9622  -28.9051  -37.4634 H         1 UNK         0.0839 
     99 H99        27.1371  -27.2575  -38.0457 H         1 UNK         0.0839 
    100 H100       22.8780  -28.8291  -39.1243 H         1 UNK         0.2998 
    101 H101       21.5515  -30.5439  -39.4243 H         1 UNK         0.0822 
    102 H102       23.7745  -32.4863  -38.6384 H         1 UNK         0.0787 
    103 H103       22.6160  -31.7418  -37.5367 H         1 UNK         0.0787 
    104 H104       22.0650  -32.8459  -38.7867 H         1 UNK         0.0787 
    105 H105       24.7388  -31.4117  -40.7457 H         1 UNK         0.3055 
    106 H106       25.4941  -32.1601  -42.7079 H         1 UNK         0.1106 
    107 H107       23.3093  -30.3724  -43.9089 H         1 UNK         0.0828 
    108 H108       24.8251  -29.7837  -43.2446 H         1 UNK         0.0828 
    109 H109       24.8462  -30.8061  -44.6628 H         1 UNK         0.0828 
    110 H110       23.6707  -32.2949  -45.1928 H         1 UNK         0.2931 
    111 H111       22.5828  -33.7371  -46.4202 H         1 UNK         0.0412 
    112 H112       25.1317  -34.8717  -45.0837 H         1 UNK         0.3472 
    113 H113       24.9762  -36.5781  -45.4235 H         1 UNK         0.3472 
    114 H114       20.5412  -34.8221  -45.5494 H         1 UNK         0.0970 
    115 H115       21.0713  -34.5745  -43.9021 H         1 UNK         0.0970 
    116 H116       18.1193  -33.2410  -45.5323 H         1 UNK         0.0612 
    117 H117       18.5639  -33.8530  -43.9569 H         1 UNK         0.0612 
@<TRIPOS>BOND
     1    1    2 1    
     2    1   62 1    
     3    1   63 1    
     4    1   64 1    
     5    2    3 2    
     6    2    4 am   BACKBONE|DICT|INTERRES
     7    4    5 1    
     8    4   65 1    
     9    5    6 1    
    10    5   25 1    
    11    5   66 1    
    12    6    7 1    
    13    6   67 1    
    14    6   68 1    
    15    7    8 1    
    16    8    9 1    
    17    8   69 1    
    18    8   70 1    
    19    9   10 ar   
    20    9   14 ar   
    21   10   11 ar   
    22   10   71 1    
    23   11   12 ar   
    24   11   61 1    
    25   12   13 ar   
    26   12   72 1    
    27   13   14 ar   
    28   13   15 1    
    29   14   73 1    
    30   15   16 1    
    31   15   74 1    
    32   15   75 1    
    33   16   17 1    
    34   17   18 1    
    35   17   76 1    
    36   17   77 1    
    37   18   19 1    
    38   18   27 1    
    39   18   78 1    
    40   19   20 am   BACKBONE|DICT|INTERRES
    41   19   79 1    
    42   20   21 2    
    43   20   22 1    
    44   22   23 1    
    45   22   24 1    
    46   22   80 1    
    47   23   81 1    
    48   23   82 1    
    49   23   83 1    
    50   24   25 am   BACKBONE|DICT|INTERRES
    51   24   84 1    
    52   25   26 2    
    53   27   28 2    
    54   27   29 am   BACKBONE|DICT|INTERRES
    55   29   30 1    
    56   29   85 1    
    57   30   31 1    
    58   30   32 1    
    59   30   86 1    
    60   31   87 1    
    61   31   88 1    
    62   31   89 1    
    63   32   33 2    
    64   32   34 am   BACKBONE|DICT|INTERRES
    65   34   35 1    
    66   34   90 1    
    67   35   36 1    
    68   35   37 1    
    69   35   91 1    
    70   36   92 1    
    71   36   93 1    
    72   36   94 1    
    73   37   38 2    
    74   37   39 am   BACKBONE|DICT|INTERRES
    75   39   40 1    
    76   39   95 1    
    77   40   41 1    
    78   40   42 1    
    79   40   96 1    
    80   41   97 1    
    81   41   98 1    
    82   41   99 1    
    83   42   43 2    
    84   42   44 am   BACKBONE|DICT|INTERRES
    85   44   45 1    
    86   44  100 1    
    87   45   46 1    
    88   45   47 1    
    89   45  101 1    
    90   46  102 1    
    91   46  103 1    
    92   46  104 1    
    93   47   48 2    
    94   47   49 am   BACKBONE|DICT|INTERRES
    95   49   50 1    
    96   49  105 1    
    97   50   51 1    
    98   50   52 1    
    99   50  106 1    
   100   51  107 1    
   101   51  108 1    
   102   51  109 1    
   103   52   53 2    
   104   52   54 am   BACKBONE|DICT|INTERRES
   105   54   55 1    
   106   54  110 1    
   107   55   56 1    
   108   55   59 1    
   109   55  111 1    
   110   56   57 am   BACKBONE|DICT|INTERRES
   111   56   58 2    
   112   57  112 1    
   113   57  113 1    
   114   59   60 1    
   115   59  114 1    
   116   59  115 1    
   117   60   61 1    
   118   61  116 1    
   119   61  117 1    
@<TRIPOS>SUBSTRUCTURE
     1 UNK         1 GROUP             0       ****    0 ROOT    
