@<TRIPOS>MOLECULE
3R8
117   119    1
SMALL
USER_CHARGES


@<TRIPOS>ATOM
      1 CA         15.1231  -22.1003  -42.4759 C.3       0 UNK        -0.2013 
      2 C          15.6256  -22.9627  -43.6241 C.2       0 UNK         0.4866 
      3 O          15.4398  -22.6028  -44.7873 O.2       0 UNK        -0.5176 
      4 N          16.2516  -24.1029  -43.3079 N.am      1 UNK        -0.4884 
      5 CA         16.8399  -25.0339  -44.2775 C.3       1 UNK         0.0853 
      6 C6         17.1771  -26.4010  -43.6317 C.3       10 UNK        -0.0849 
      7 S7         15.7083  -27.2254  -42.9245 S.3       10 UNK        -0.2776 
      8 C8         15.4454  -28.6176  -44.0738 C.3       10 UNK         0.0316 
      9 C9         16.5909  -29.6207  -44.0332 C.ar      10 UNK        -0.0863 
     10 C10        16.8420  -30.3555  -42.8705 C.ar      10 UNK        -0.1009 
     11 C11        17.9105  -31.2541  -42.8167 C.ar      10 UNK        -0.0712 
     12 C12        18.7289  -31.4207  -43.9381 C.ar      10 UNK        -0.0894 
     13 C13        18.4814  -30.7022  -45.1123 C.ar      10 UNK        -0.0745 
     14 C14        17.4031  -29.8116  -45.1557 C.ar      10 UNK        -0.0972 
     15 C15        19.3764  -30.9010  -46.3315 C.3       10 UNK         0.0209 
     16 S16        20.0380  -29.3392  -47.0029 S.3       10 UNK        -0.2568 
     17 C17        20.9949  -28.7113  -45.5839 C.3       10 UNK        -0.0983 
     18 CA         21.5855  -27.3015  -45.8389 C.3       3 UNK         0.0876 
     19 N          20.5388  -26.3374  -46.1843 N.am      3 UNK        -0.4424 
     20 C          20.7369  -25.1163  -46.6956 C.2       2 UNK         0.4918 
     21 O          21.8476  -24.6580  -46.9668 O.2       2 UNK        -0.4875 
     22 CA         19.4820  -24.2687  -46.9823 C.3       2 UNK         0.0481 
     23 CB         19.1494  -24.3028  -48.4829 C.3       2 UNK        -0.1831 
     24 N          18.3031  -24.6980  -46.2202 N.am      2 UNK        -0.4498 
     25 C          18.1033  -24.4267  -44.9226 C.2       1 UNK         0.5027 
     26 O          18.8806  -23.7600  -44.2344 O.2       1 UNK        -0.4969 
     27 C          22.3867  -26.8440  -44.6037 C.2       3 UNK         0.5005 
     28 O          21.8581  -26.1221  -43.7525 O.2       3 UNK        -0.5279 
     29 N          23.6287  -27.3340  -44.4862 N.am      4 UNK        -0.4463 
     30 CA         24.4830  -27.1843  -43.3049 C.3       4 UNK         0.0283 
     31 CB         25.9463  -27.4524  -43.7028 C.3       4 UNK        -0.1875 
     32 C          24.0044  -28.1229  -42.1830 C.2       4 UNK         0.4949 
     33 O          24.6391  -29.1463  -41.9239 O.2       4 UNK        -0.5039 
     34 N          22.8595  -27.7766  -41.5791 N.am      5 UNK        -0.4663 
     35 CA         22.0637  -28.5813  -40.6425 C.3       5 UNK         0.0242 
     36 CB         20.8955  -27.7303  -40.1203 C.3       5 UNK        -0.1982 
     37 C          22.8357  -29.2107  -39.4713 C.2       5 UNK         0.5017 
     38 O          22.5043  -30.3239  -39.0655 O.2       5 UNK        -0.5012 
     39 N          23.8776  -28.5189  -38.9887 N.am      6 UNK        -0.4439 
     40 CA         24.8008  -28.9934  -37.9521 C.3       6 UNK         0.0297 
     41 CB         25.8054  -27.8777  -37.6223 C.3       6 UNK        -0.2006 
     42 C          25.5447  -30.2949  -38.3155 C.2       6 UNK         0.4892 
     43 O          25.9176  -31.0396  -37.4081 O.2       6 UNK        -0.5089 
     44 N          25.7335  -30.5466  -39.6176 N.am      7 UNK        -0.4243 
     45 CA         26.2825  -31.7869  -40.1607 C.3       7 UNK         0.0196 
     46 CB         27.4306  -31.4528  -41.1280 C.3       7 UNK        -0.2007 
     47 C          25.1917  -32.5940  -40.8787 C.2       7 UNK         0.5020 
     48 O          25.0970  -33.8027  -40.6655 O.2       7 UNK        -0.5147 
     49 N          24.3895  -31.9218  -41.7179 N.am      8 UNK        -0.4734 
     50 CA         23.4018  -32.5351  -42.6121 C.3       8 UNK         0.0238 
     51 CB         22.8572  -31.4734  -43.5822 C.3       8 UNK        -0.1912 
     52 C          22.2446  -33.2536  -41.9005 C.2       8 UNK         0.5038 
     53 O          21.7144  -34.2132  -42.4622 O.2       8 UNK        -0.5046 
     54 N          21.8773  -32.7916  -40.6990 N.am      9 UNK        -0.4200 
     55 CA         20.8279  -33.3959  -39.8627 C.3       9 UNK         0.0839 
     56 C          21.3906  -34.3552  -38.7746 C.2       9 UNK         0.5513 
     57 N          22.6847  -34.6568  -38.7499 N.am      9 UNK        -0.7519 
     58 O          20.6355  -34.8523  -37.9430 O.2       9 UNK        -0.4960 
     59 C59        19.8583  -32.3374  -39.2630 C.3       10 UNK        -0.0876 
     60 S60        19.2916  -31.0761  -40.4569 S.3       10 UNK        -0.2414 
     61 C61        18.1953  -32.0323  -41.5429 C.3       10 UNK         0.0169 
     62 H62        15.3427  -22.5448  -41.5053 H         1 UNK         0.0903 
     63 H63        15.5920  -21.1173  -42.5124 H         1 UNK         0.0903 
     64 H64        14.0443  -21.9667  -42.5509 H         1 UNK         0.0903 
     65 H65        16.3821  -24.3485  -42.3370 H         1 UNK         0.3096 
     66 H66        16.1009  -25.1996  -45.0650 H         1 UNK         0.1121 
     67 H67        17.6465  -27.0629  -44.3607 H         1 UNK         0.0849 
     68 H68        17.9103  -26.2766  -42.8319 H         1 UNK         0.0849 
     69 H69        14.5183  -29.1265  -43.8060 H         1 UNK         0.0865 
     70 H70        15.2986  -28.2278  -45.0824 H         1 UNK         0.0865 
     71 H71        16.2174  -30.2109  -41.9993 H         1 UNK         0.1346 
     72 H72        19.5606  -32.1107  -43.8913 H         1 UNK         0.1412 
     73 H73        17.2097  -29.2551  -46.0627 H         1 UNK         0.1426 
     74 H74        18.8001  -31.4012  -47.1108 H         1 UNK         0.0716 
     75 H75        20.2134  -31.5604  -46.0966 H         1 UNK         0.0716 
     76 H76        20.3507  -28.6993  -44.7019 H         1 UNK         0.0695 
     77 H77        21.7893  -29.4298  -45.3765 H         1 UNK         0.0695 
     78 H78        22.2731  -27.3581  -46.6860 H         1 UNK         0.0983 
     79 H79        19.5938  -26.6303  -45.9966 H         1 UNK         0.3095 
     80 H80        19.7139  -23.2362  -46.7123 H         1 UNK         0.0454 
     81 H81        19.9955  -23.9558  -49.0779 H         1 UNK         0.0851 
     82 H82        18.9063  -25.3107  -48.8217 H         1 UNK         0.0851 
     83 H83        18.3048  -23.6550  -48.7181 H         1 UNK         0.0851 
     84 H84        17.6133  -25.2380  -46.7239 H         1 UNK         0.2976 
     85 H85        23.9807  -27.9417  -45.2126 H         1 UNK         0.3116 
     86 H86        24.4160  -26.1572  -42.9394 H         1 UNK         0.0646 
     87 H87        26.6083  -27.3504  -42.8417 H         1 UNK         0.0847 
     88 H88        26.2885  -26.7449  -44.4581 H         1 UNK         0.0847 
     89 H89        26.0835  -28.4594  -44.0991 H         1 UNK         0.0847 
     90 H90        22.4028  -26.9461  -41.9438 H         1 UNK         0.3040 
     91 H91        21.6441  -29.4075  -41.2176 H         1 UNK         0.1015 
     92 H92        20.2445  -27.4103  -40.9345 H         1 UNK         0.0786 
     93 H93        21.2464  -26.8394  -39.5983 H         1 UNK         0.0786 
     94 H94        20.2787  -28.2971  -39.4212 H         1 UNK         0.0786 
     95 H95        24.0745  -27.6189  -39.4018 H         1 UNK         0.3172 
     96 H96        24.2087  -29.1972  -37.0576 H         1 UNK         0.0595 
     97 H97        25.3007  -26.9776  -37.2709 H         1 UNK         0.0839 
     98 H98        26.4103  -27.6094  -38.4895 H         1 UNK         0.0839 
     99 H99        26.4903  -28.1907  -36.8327 H         1 UNK         0.0839 
    100 H100       25.3697  -29.8832  -40.2955 H         1 UNK         0.2998 
    101 H101       26.6848  -32.4126  -39.3610 H         1 UNK         0.0822 
    102 H102       28.2409  -30.9364  -40.6131 H         1 UNK         0.0787 
    103 H103       27.8499  -32.3601  -41.5651 H         1 UNK         0.0787 
    104 H104       27.0985  -30.8160  -41.9493 H         1 UNK         0.0787 
    105 H105       24.5289  -30.9185  -41.8259 H         1 UNK         0.3055 
    106 H106       23.9279  -33.2904  -43.2002 H         1 UNK         0.1106 
    107 H107       22.2975  -30.6975  -43.0611 H         1 UNK         0.0828 
    108 H108       23.6618  -30.9919  -44.1381 H         1 UNK         0.0828 
    109 H109       22.1837  -31.9229  -44.3130 H         1 UNK         0.0828 
    110 H110       22.3559  -31.9952  -40.2937 H         1 UNK         0.2931 
    111 H111       20.2152  -34.0437  -40.4903 H         1 UNK         0.0412 
    112 H112       23.0294  -35.2849  -38.0411 H         1 UNK         0.3472 
    113 H113       23.3201  -34.2829  -39.4429 H         1 UNK         0.3472 
    114 H114       20.3434  -31.8100  -38.4400 H         1 UNK         0.0970 
    115 H115       18.9822  -32.8243  -38.8309 H         1 UNK         0.0970 
    116 H116       18.6555  -32.9879  -41.7948 H         1 UNK         0.0612 
    117 H117       17.2678  -32.2602  -41.0157 H         1 UNK         0.0612 
@<TRIPOS>BOND
     1    1    2 1    
     2    1   62 1    
     3    1   63 1    
     4    1   64 1    
     5    2    3 2    
     6    2    4 am   BACKBONE|DICT|INTERRES
     7    4    5 1    
     8    4   65 1    
     9    5    6 1    
    10    5   25 1    
    11    5   66 1    
    12    6    7 1    
    13    6   67 1    
    14    6   68 1    
    15    7    8 1    
    16    8    9 1    
    17    8   69 1    
    18    8   70 1    
    19    9   10 ar   
    20    9   14 ar   
    21   10   11 ar   
    22   10   71 1    
    23   11   12 ar   
    24   11   61 1    
    25   12   13 ar   
    26   12   72 1    
    27   13   14 ar   
    28   13   15 1    
    29   14   73 1    
    30   15   16 1    
    31   15   74 1    
    32   15   75 1    
    33   16   17 1    
    34   17   18 1    
    35   17   76 1    
    36   17   77 1    
    37   18   19 1    
    38   18   27 1    
    39   18   78 1    
    40   19   20 am   BACKBONE|DICT|INTERRES
    41   19   79 1    
    42   20   21 2    
    43   20   22 1    
    44   22   23 1    
    45   22   24 1    
    46   22   80 1    
    47   23   81 1    
    48   23   82 1    
    49   23   83 1    
    50   24   25 am   BACKBONE|DICT|INTERRES
    51   24   84 1    
    52   25   26 2    
    53   27   28 2    
    54   27   29 am   BACKBONE|DICT|INTERRES
    55   29   30 1    
    56   29   85 1    
    57   30   31 1    
    58   30   32 1    
    59   30   86 1    
    60   31   87 1    
    61   31   88 1    
    62   31   89 1    
    63   32   33 2    
    64   32   34 am   BACKBONE|DICT|INTERRES
    65   34   35 1    
    66   34   90 1    
    67   35   36 1    
    68   35   37 1    
    69   35   91 1    
    70   36   92 1    
    71   36   93 1    
    72   36   94 1    
    73   37   38 2    
    74   37   39 am   BACKBONE|DICT|INTERRES
    75   39   40 1    
    76   39   95 1    
    77   40   41 1    
    78   40   42 1    
    79   40   96 1    
    80   41   97 1    
    81   41   98 1    
    82   41   99 1    
    83   42   43 2    
    84   42   44 am   BACKBONE|DICT|INTERRES
    85   44   45 1    
    86   44  100 1    
    87   45   46 1    
    88   45   47 1    
    89   45  101 1    
    90   46  102 1    
    91   46  103 1    
    92   46  104 1    
    93   47   48 2    
    94   47   49 am   BACKBONE|DICT|INTERRES
    95   49   50 1    
    96   49  105 1    
    97   50   51 1    
    98   50   52 1    
    99   50  106 1    
   100   51  107 1    
   101   51  108 1    
   102   51  109 1    
   103   52   53 2    
   104   52   54 am   BACKBONE|DICT|INTERRES
   105   54   55 1    
   106   54  110 1    
   107   55   56 1    
   108   55   59 1    
   109   55  111 1    
   110   56   57 am   BACKBONE|DICT|INTERRES
   111   56   58 2    
   112   57  112 1    
   113   57  113 1    
   114   59   60 1    
   115   59  114 1    
   116   59  115 1    
   117   60   61 1    
   118   61  116 1    
   119   61  117 1    
@<TRIPOS>SUBSTRUCTURE
     1 UNK         1 GROUP             0       ****    0 ROOT    
