@<TRIPOS>MOLECULE
3R8
117   119    1
SMALL
USER_CHARGES


@<TRIPOS>ATOM
      1 CA         18.2818  -29.3112  -49.0658 C.3       0 UNK        -0.2013 
      2 C          18.3109  -29.2230  -47.5478 C.2       0 UNK         0.4866 
      3 O          19.1143  -29.9046  -46.9119 O.2       0 UNK        -0.5176 
      4 N          17.4466  -28.3832  -46.9637 N.am      1 UNK        -0.4884 
      5 CA         17.3021  -28.1508  -45.5197 C.3       1 UNK         0.0853 
      6 C6         15.8897  -27.5980  -45.1872 C.3       10 UNK        -0.0849 
      7 S7         14.6161  -28.8950  -45.3933 S.3       10 UNK        -0.2776 
      8 C8         14.1821  -29.3313  -43.6707 C.3       10 UNK         0.0316 
      9 C9         15.4085  -29.4953  -42.7825 C.ar      10 UNK        -0.0863 
     10 C10        16.2900  -30.5619  -42.9766 C.ar      10 UNK        -0.1009 
     11 C11        17.4692  -30.6490  -42.2307 C.ar      10 UNK        -0.0712 
     12 C12        17.7537  -29.6751  -41.2686 C.ar      10 UNK        -0.0894 
     13 C13        16.8657  -28.6187  -41.0494 C.ar      10 UNK        -0.0745 
     14 C14        15.6891  -28.5431  -41.7990 C.ar      10 UNK        -0.0972 
     15 C15        17.1818  -27.5333  -40.0332 C.3       10 UNK         0.0209 
     16 S16        17.5850  -25.9756  -40.8834 S.3       10 UNK        -0.2568 
     17 C17        19.2470  -25.5976  -40.2431 C.3       10 UNK        -0.0983 
     18 CA         20.3832  -26.4476  -40.8682 C.3       3 UNK         0.0876 
     19 N          20.3169  -26.5221  -42.3329 N.am      3 UNK        -0.4424 
     20 C          21.1136  -27.2737  -43.1041 C.2       2 UNK         0.4918 
     21 O          21.9754  -28.0376  -42.6604 O.2       2 UNK        -0.4875 
     22 CA         20.9084  -27.1270  -44.6209 C.3       2 UNK         0.0481 
     23 CB         22.0779  -27.7037  -45.4333 C.3       2 UNK        -0.1831 
     24 N          19.6745  -27.7771  -45.0525 N.am      2 UNK        -0.4498 
     25 C          18.4430  -27.2603  -44.9795 C.2       1 UNK         0.5027 
     26 O          18.2085  -26.1321  -44.5411 O.2       1 UNK        -0.4969 
     27 C          21.7485  -25.9184  -40.3853 C.2       3 UNK         0.5005 
     28 O          22.3319  -26.4861  -39.4610 O.2       3 UNK        -0.5279 
     29 N          22.2462  -24.8681  -41.0582 N.am      4 UNK        -0.4463 
     30 CA         23.5007  -24.1622  -40.7677 C.3       4 UNK         0.0283 
     31 CB         23.5977  -22.9225  -41.6716 C.3       4 UNK        -0.1875 
     32 C          24.7730  -25.0192  -40.9013 C.2       4 UNK         0.4949 
     33 O          25.7995  -24.6626  -40.3242 O.2       4 UNK        -0.5039 
     34 N          24.6818  -26.1454  -41.6202 N.am      5 UNK        -0.4663 
     35 CA         25.7334  -27.1592  -41.7413 C.3       5 UNK         0.0242 
     36 CB         25.5703  -27.8632  -43.0988 C.3       5 UNK        -0.1982 
     37 C          25.7257  -28.1726  -40.5757 C.2       5 UNK         0.5017 
     38 O          26.3705  -29.2150  -40.6880 O.2       5 UNK        -0.5012 
     39 N          24.9879  -27.8625  -39.4973 N.am      6 UNK        -0.4439 
     40 CA         24.6700  -28.7074  -38.3420 C.3       6 UNK         0.0297 
     41 CB         25.9383  -29.1637  -37.5881 C.3       6 UNK        -0.2006 
     42 C          23.7354  -29.8614  -38.7441 C.2       6 UNK         0.4892 
     43 O          23.9712  -31.0080  -38.3599 O.2       6 UNK        -0.5089 
     44 N          22.6925  -29.5100  -39.5152 N.am      7 UNK        -0.4243 
     45 CA         21.6693  -30.3865  -40.0965 C.3       7 UNK         0.0196 
     46 CB         20.7466  -30.9453  -38.9923 C.3       7 UNK        -0.2007 
     47 C          22.2872  -31.4827  -40.9831 C.2       7 UNK         0.5020 
     48 O          22.1883  -32.6692  -40.6647 O.2       7 UNK        -0.5147 
     49 N          22.9301  -31.0567  -42.0752 N.am      8 UNK        -0.4734 
     50 CA         23.6016  -31.9271  -43.0381 C.3       8 UNK         0.0238 
     51 CB         25.0966  -32.0184  -42.6783 C.3       8 UNK        -0.1912 
     52 C          23.3835  -31.3417  -44.4420 C.2       8 UNK         0.5038 
     53 O          24.1005  -30.4081  -44.7958 O.2       8 UNK        -0.5046 
     54 N          22.4243  -31.8108  -45.2545 N.am      9 UNK        -0.4200 
     55 CA         21.5289  -32.9782  -45.1200 C.3       9 UNK         0.0839 
     56 C          22.2418  -34.3603  -45.2274 C.2       9 UNK         0.5513 
     57 N          23.4900  -34.4252  -45.6746 N.am      9 UNK        -0.7519 
     58 O          21.6536  -35.3919  -44.9151 O.2       9 UNK        -0.4960 
     59 C59        20.5214  -32.9156  -43.9345 C.3       10 UNK        -0.0876 
     60 S60        19.6410  -31.3283  -43.7765 S.3       10 UNK        -0.2414 
     61 C61        18.4452  -31.7825  -42.4870 C.3       10 UNK         0.0169 
     62 H62        19.2495  -29.0240  -49.4762 H         1 UNK         0.0903 
     63 H63        18.0696  -30.3337  -49.3770 H         1 UNK         0.0903 
     64 H64        17.5224  -28.6605  -49.4989 H         1 UNK         0.0903 
     65 H65        16.8219  -27.8444  -47.5466 H         1 UNK         0.3096 
     66 H66        17.4159  -29.1095  -45.0100 H         1 UNK         0.1121 
     67 H67        15.8414  -27.2020  -44.1723 H         1 UNK         0.0849 
     68 H68        15.6444  -26.7553  -45.8357 H         1 UNK         0.0849 
     69 H69        13.6076  -30.2587  -43.6714 H         1 UNK         0.0865 
     70 H70        13.5178  -28.5632  -43.2715 H         1 UNK         0.0865 
     71 H71        16.0804  -31.2981  -43.7410 H         1 UNK         0.1346 
     72 H72        18.6705  -29.7329  -40.7012 H         1 UNK         0.1412 
     73 H73        15.0157  -27.7105  -41.6453 H         1 UNK         0.1426 
     74 H74        18.0003  -27.8401  -39.3805 H         1 UNK         0.0716 
     75 H75        16.3172  -27.3740  -39.3874 H         1 UNK         0.0716 
     76 H76        19.2376  -25.7106  -39.1571 H         1 UNK         0.0695 
     77 H77        19.4157  -24.5352  -40.4311 H         1 UNK         0.0695 
     78 H78        20.2812  -27.4677  -40.4947 H         1 UNK         0.0983 
     79 H79        19.5785  -25.9908  -42.7797 H         1 UNK         0.3095 
     80 H80        20.8497  -26.0597  -44.8438 H         1 UNK         0.0454 
     81 H81        21.9794  -27.4666  -46.4925 H         1 UNK         0.0851 
     82 H82        22.1258  -28.7872  -45.3397 H         1 UNK         0.0851 
     83 H83        23.0343  -27.3013  -45.0968 H         1 UNK         0.0851 
     84 H84        19.7616  -28.7059  -45.4564 H         1 UNK         0.2976 
     85 H85        21.6919  -24.4953  -41.8159 H         1 UNK         0.3116 
     86 H86        23.4510  -23.8251  -39.7303 H         1 UNK         0.0646 
     87 H87        24.5044  -22.3537  -41.4594 H         1 UNK         0.0847 
     88 H88        22.7547  -22.2489  -41.5170 H         1 UNK         0.0847 
     89 H89        23.6246  -23.1934  -42.7279 H         1 UNK         0.0847 
     90 H90        23.7906  -26.3757  -42.0382 H         1 UNK         0.3040 
     91 H91        26.7092  -26.6685  -41.7291 H         1 UNK         0.1015 
     92 H92        25.5974  -27.1515  -43.9238 H         1 UNK         0.0786 
     93 H93        24.6261  -28.4045  -43.1542 H         1 UNK         0.0786 
     94 H94        26.3694  -28.5852  -43.2717 H         1 UNK         0.0786 
     95 H95        24.4629  -26.9969  -39.5386 H         1 UNK         0.3172 
     96 H96        24.0973  -28.0777  -37.6593 H         1 UNK         0.0595 
     97 H97        26.5290  -29.8721  -38.1692 H         1 UNK         0.0839 
     98 H98        25.6742  -29.6590  -36.6530 H         1 UNK         0.0839 
     99 H99        26.5780  -28.3176  -37.3374 H         1 UNK         0.0839 
    100 H100       22.6080  -28.5251  -39.7413 H         1 UNK         0.2998 
    101 H101       21.0597  -29.7681  -40.7556 H         1 UNK         0.0822 
    102 H102       20.2676  -30.1418  -38.4329 H         1 UNK         0.0787 
    103 H103       19.9549  -31.5627  -39.4168 H         1 UNK         0.0787 
    104 H104       21.2930  -31.5673  -38.2827 H         1 UNK         0.0787 
    105 H105       22.9126  -30.0683  -42.3059 H         1 UNK         0.3055 
    106 H106       23.2041  -32.9391  -42.9918 H         1 UNK         0.1106 
    107 H107       25.6345  -32.6355  -43.3988 H         1 UNK         0.0828 
    108 H108       25.5732  -31.0375  -42.6649 H         1 UNK         0.0828 
    109 H109       25.2388  -32.4664  -41.6947 H         1 UNK         0.0828 
    110 H110       22.3285  -31.3440  -46.1437 H         1 UNK         0.2931 
    111 H111       20.9206  -32.9335  -46.0242 H         1 UNK         0.0412 
    112 H112       23.9391  -35.3251  -45.7486 H         1 UNK         0.3472 
    113 H113       23.9743  -33.5954  -45.9786 H         1 UNK         0.3472 
    114 H114       19.7651  -33.6908  -44.0710 H         1 UNK         0.0970 
    115 H115       20.9977  -33.1523  -42.9857 H         1 UNK         0.0970 
    116 H116       17.9012  -32.6778  -42.7919 H         1 UNK         0.0612 
    117 H117       18.9795  -32.0404  -41.5720 H         1 UNK         0.0612 
@<TRIPOS>BOND
     1    1    2 1    
     2    1   62 1    
     3    1   63 1    
     4    1   64 1    
     5    2    3 2    
     6    2    4 am   BACKBONE|DICT|INTERRES
     7    4    5 1    
     8    4   65 1    
     9    5    6 1    
    10    5   25 1    
    11    5   66 1    
    12    6    7 1    
    13    6   67 1    
    14    6   68 1    
    15    7    8 1    
    16    8    9 1    
    17    8   69 1    
    18    8   70 1    
    19    9   10 ar   
    20    9   14 ar   
    21   10   11 ar   
    22   10   71 1    
    23   11   12 ar   
    24   11   61 1    
    25   12   13 ar   
    26   12   72 1    
    27   13   14 ar   
    28   13   15 1    
    29   14   73 1    
    30   15   16 1    
    31   15   74 1    
    32   15   75 1    
    33   16   17 1    
    34   17   18 1    
    35   17   76 1    
    36   17   77 1    
    37   18   19 1    
    38   18   27 1    
    39   18   78 1    
    40   19   20 am   BACKBONE|DICT|INTERRES
    41   19   79 1    
    42   20   21 2    
    43   20   22 1    
    44   22   23 1    
    45   22   24 1    
    46   22   80 1    
    47   23   81 1    
    48   23   82 1    
    49   23   83 1    
    50   24   25 am   BACKBONE|DICT|INTERRES
    51   24   84 1    
    52   25   26 2    
    53   27   28 2    
    54   27   29 am   BACKBONE|DICT|INTERRES
    55   29   30 1    
    56   29   85 1    
    57   30   31 1    
    58   30   32 1    
    59   30   86 1    
    60   31   87 1    
    61   31   88 1    
    62   31   89 1    
    63   32   33 2    
    64   32   34 am   BACKBONE|DICT|INTERRES
    65   34   35 1    
    66   34   90 1    
    67   35   36 1    
    68   35   37 1    
    69   35   91 1    
    70   36   92 1    
    71   36   93 1    
    72   36   94 1    
    73   37   38 2    
    74   37   39 am   BACKBONE|DICT|INTERRES
    75   39   40 1    
    76   39   95 1    
    77   40   41 1    
    78   40   42 1    
    79   40   96 1    
    80   41   97 1    
    81   41   98 1    
    82   41   99 1    
    83   42   43 2    
    84   42   44 am   BACKBONE|DICT|INTERRES
    85   44   45 1    
    86   44  100 1    
    87   45   46 1    
    88   45   47 1    
    89   45  101 1    
    90   46  102 1    
    91   46  103 1    
    92   46  104 1    
    93   47   48 2    
    94   47   49 am   BACKBONE|DICT|INTERRES
    95   49   50 1    
    96   49  105 1    
    97   50   51 1    
    98   50   52 1    
    99   50  106 1    
   100   51  107 1    
   101   51  108 1    
   102   51  109 1    
   103   52   53 2    
   104   52   54 am   BACKBONE|DICT|INTERRES
   105   54   55 1    
   106   54  110 1    
   107   55   56 1    
   108   55   59 1    
   109   55  111 1    
   110   56   57 am   BACKBONE|DICT|INTERRES
   111   56   58 2    
   112   57  112 1    
   113   57  113 1    
   114   59   60 1    
   115   59  114 1    
   116   59  115 1    
   117   60   61 1    
   118   61  116 1    
   119   61  117 1    
@<TRIPOS>SUBSTRUCTURE
     1 UNK         1 GROUP             0       ****    0 ROOT    
