@<TRIPOS>MOLECULE
3R8
117   119    1
SMALL
USER_CHARGES


@<TRIPOS>ATOM
      1 CA         14.1443  -25.7691  -42.0536 C.3       0 UNK        -0.2013 
      2 C          15.3666  -26.3767  -42.7249 C.2       0 UNK         0.4866 
      3 O          16.1342  -25.6577  -43.3623 O.2       0 UNK        -0.5176 
      4 N          15.5577  -27.6940  -42.5765 N.am      1 UNK        -0.4884 
      5 CA         16.6615  -28.4630  -43.1731 C.3       1 UNK         0.0853 
      6 C6         16.2609  -29.9439  -43.3982 C.3       10 UNK        -0.0849 
      7 S7         15.0939  -30.0726  -44.7998 S.3       10 UNK        -0.2776 
      8 C8         16.0925  -30.8428  -46.1260 C.3       10 UNK         0.0316 
      9 C9         17.5142  -30.2977  -46.2173 C.ar      10 UNK        -0.0863 
     10 C10        18.5974  -31.1372  -45.9411 C.ar      10 UNK        -0.1009 
     11 C11        19.9090  -30.6475  -45.9604 C.ar      10 UNK        -0.0712 
     12 C12        20.1269  -29.3077  -46.2933 C.ar      10 UNK        -0.0894 
     13 C13        19.0549  -28.4569  -46.5776 C.ar      10 UNK        -0.0745 
     14 C14        17.7506  -28.9612  -46.5523 C.ar      10 UNK        -0.0972 
     15 C15        19.3020  -26.9921  -46.9060 C.3       10 UNK         0.0209 
     16 S16        19.2993  -25.9581  -45.4068 S.3       10 UNK        -0.2568 
     17 C17        21.0413  -26.0689  -44.8727 C.3       10 UNK        -0.0983 
     18 CA         21.2394  -25.6030  -43.4070 C.3       3 UNK         0.0876 
     19 N          20.5153  -26.4701  -42.4737 N.am      3 UNK        -0.4424 
     20 C          20.0255  -26.1162  -41.2815 C.2       2 UNK         0.4918 
     21 O          20.1800  -25.0012  -40.7816 O.2       2 UNK        -0.4875 
     22 CA         19.2099  -27.1991  -40.5468 C.3       2 UNK         0.0481 
     23 CB         18.8072  -26.7819  -39.1212 C.3       2 UNK        -0.1831 
     24 N          18.0096  -27.5717  -41.2984 N.am      2 UNK        -0.4498 
     25 C          17.9943  -28.3280  -42.4059 C.2       1 UNK         0.5027 
     26 O          19.0044  -28.8733  -42.8531 O.2       1 UNK        -0.4969 
     27 C          22.7390  -25.4602  -43.0589 C.2       3 UNK         0.5005 
     28 O          23.4748  -24.8523  -43.8375 O.2       3 UNK        -0.5279 
     29 N          23.1893  -26.0319  -41.9302 N.am      4 UNK        -0.4463 
     30 CA         24.5440  -25.9985  -41.3565 C.3       4 UNK         0.0283 
     31 CB         25.0437  -24.5579  -41.1323 C.3       4 UNK        -0.1875 
     32 C          25.5871  -26.8385  -42.1136 C.2       4 UNK         0.4949 
     33 O          26.4908  -27.3736  -41.4718 O.2       4 UNK        -0.5039 
     34 N          25.4269  -26.9957  -43.4349 N.am      5 UNK        -0.4663 
     35 CA         26.2827  -27.7894  -44.3285 C.3       5 UNK         0.0242 
     36 CB         25.7566  -27.6598  -45.7672 C.3       5 UNK        -0.1982 
     37 C          26.4120  -29.2746  -43.9371 C.2       5 UNK         0.5017 
     38 O          27.4508  -29.8807  -44.2010 O.2       5 UNK        -0.5012 
     39 N          25.3711  -29.8136  -43.2924 N.am      6 UNK        -0.4439 
     40 CA         25.3472  -31.1304  -42.6553 C.3       6 UNK         0.0297 
     41 CB         24.5315  -32.1053  -43.5243 C.3       6 UNK        -0.2006 
     42 C          24.7889  -31.0040  -41.2267 C.2       6 UNK         0.4892 
     43 O          24.0733  -31.8970  -40.7699 O.2       6 UNK        -0.5089 
     44 N          25.0913  -29.8781  -40.5582 N.am      7 UNK        -0.4243 
     45 CA         24.5380  -29.4433  -39.2715 C.3       7 UNK         0.0196 
     46 CB         25.0508  -30.3399  -38.1201 C.3       7 UNK        -0.2007 
     47 C          23.0038  -29.3197  -39.3564 C.2       7 UNK         0.5020 
     48 O          22.5102  -28.4935  -40.1267 O.2       7 UNK        -0.5147 
     49 N          22.2847  -30.1541  -38.5961 N.am      8 UNK        -0.4734 
     50 CA         20.8250  -30.2711  -38.6238 C.3       8 UNK         0.0238 
     51 CB         20.3588  -30.9460  -37.3231 C.3       8 UNK        -0.1912 
     52 C          20.2860  -31.0410  -39.8476 C.2       8 UNK         0.5038 
     53 O          19.0822  -30.9778  -40.0996 O.2       8 UNK        -0.5046 
     54 N          21.1623  -31.7688  -40.5567 N.am      9 UNK        -0.4200 
     55 CA         20.8412  -32.7005  -41.6473 C.3       9 UNK         0.0839 
     56 C          19.9352  -33.8879  -41.1888 C.2       9 UNK         0.5513 
     57 N          19.2406  -34.5544  -42.1005 N.am      9 UNK        -0.7519 
     58 O          19.8963  -34.2505  -40.0141 O.2       9 UNK        -0.4960 
     59 C59        20.3612  -31.9622  -42.9327 C.3       10 UNK        -0.0876 
     60 S60        20.7780  -32.8823  -44.4568 S.3       10 UNK        -0.2414 
     61 C61        21.1111  -31.5375  -45.6460 C.3       10 UNK         0.0169 
     62 H62        13.4993  -25.3058  -42.7998 H         1 UNK         0.0903 
     63 H63        13.5588  -26.5154  -41.5168 H         1 UNK         0.0903 
     64 H64        14.4486  -25.0011  -41.3429 H         1 UNK         0.0903 
     65 H65        14.8881  -28.2346  -42.0465 H         1 UNK         0.3096 
     66 H66        16.8779  -28.0231  -44.1485 H         1 UNK         0.1121 
     67 H67        17.1276  -30.5775  -43.5897 H         1 UNK         0.0849 
     68 H68        15.7933  -30.3581  -42.5035 H         1 UNK         0.0849 
     69 H69        16.1060  -31.9215  -45.9620 H         1 UNK         0.0865 
     70 H70        15.5888  -30.6904  -47.0815 H         1 UNK         0.0865 
     71 H71        18.4131  -32.1727  -45.6930 H         1 UNK         0.1346 
     72 H72        21.1369  -28.9245  -46.3249 H         1 UNK         0.1412 
     73 H73        16.9153  -28.3068  -46.7625 H         1 UNK         0.1426 
     74 H74        20.2451  -26.8711  -47.4413 H         1 UNK         0.0716 
     75 H75        18.5237  -26.6304  -47.5795 H         1 UNK         0.0716 
     76 H76        21.3977  -27.0921  -44.9897 H         1 UNK         0.0695 
     77 H77        21.6250  -25.4574  -45.5635 H         1 UNK         0.0695 
     78 H78        20.8238  -24.5964  -43.3224 H         1 UNK         0.0983 
     79 H79        20.2789  -27.3992  -42.8116 H         1 UNK         0.3095 
     80 H80        19.8501  -28.0773  -40.4730 H         1 UNK         0.0454 
     81 H81        18.1554  -25.9075  -39.1237 H         1 UNK         0.0851 
     82 H82        18.2867  -27.5882  -38.6042 H         1 UNK         0.0851 
     83 H83        19.6868  -26.5321  -38.5263 H         1 UNK         0.0851 
     84 H84        17.1451  -27.1276  -41.0259 H         1 UNK         0.2976 
     85 H85        22.5264  -26.5827  -41.3964 H         1 UNK         0.3116 
     86 H86        24.4427  -26.4535  -40.3710 H         1 UNK         0.0646 
     87 H87        25.9832  -24.5569  -40.5781 H         1 UNK         0.0847 
     88 H88        24.3270  -23.9741  -40.5549 H         1 UNK         0.0847 
     89 H89        25.2261  -24.0343  -42.0710 H         1 UNK         0.0847 
     90 H90        24.6901  -26.4486  -43.8685 H         1 UNK         0.3040 
     91 H91        27.2853  -27.3585  -44.2863 H         1 UNK         0.1015 
     92 H92        25.7522  -26.6204  -46.0962 H         1 UNK         0.0786 
     93 H93        24.7410  -28.0463  -45.8621 H         1 UNK         0.0786 
     94 H94        26.3844  -28.2160  -46.4650 H         1 UNK         0.0786 
     95 H95        24.5661  -29.2250  -43.1272 H         1 UNK         0.3172 
     96 H96        26.3623  -31.5201  -42.5566 H         1 UNK         0.0595 
     97 H97        24.5504  -33.1135  -43.1086 H         1 UNK         0.0839 
     98 H98        24.9291  -32.1653  -44.5374 H         1 UNK         0.0839 
     99 H99        23.4878  -31.8000  -43.5894 H         1 UNK         0.0839 
    100 H100       25.6972  -29.2018  -41.0121 H         1 UNK         0.2998 
    101 H101       24.9164  -28.4362  -39.0926 H         1 UNK         0.0822 
    102 H102       26.1398  -30.3245  -38.0746 H         1 UNK         0.0787 
    103 H103       24.6895  -29.9857  -37.1535 H         1 UNK         0.0787 
    104 H104       24.7459  -31.3810  -38.2301 H         1 UNK         0.0787 
    105 H105       22.7821  -30.8090  -38.0093 H         1 UNK         0.3055 
    106 H106       20.3997  -29.2676  -38.6484 H         1 UNK         0.1106 
    107 H107       19.2703  -31.0093  -37.2851 H         1 UNK         0.0828 
    108 H108       20.7459  -31.9619  -37.2339 H         1 UNK         0.0828 
    109 H109       20.6786  -30.3839  -36.4454 H         1 UNK         0.0828 
    110 H110       22.1407  -31.7549  -40.2882 H         1 UNK         0.2931 
    111 H111       21.8029  -33.1620  -41.8742 H         1 UNK         0.0412 
    112 H112       18.6692  -35.3355  -41.8189 H         1 UNK         0.3472 
    113 H113       19.3054  -34.2938  -43.0737 H         1 UNK         0.3472 
    114 H114       20.8380  -30.9825  -42.9945 H         1 UNK         0.0970 
    115 H115       19.2889  -31.7621  -42.8985 H         1 UNK         0.0970 
    116 H116       21.4620  -31.9821  -46.5778 H         1 UNK         0.0612 
    117 H117       21.9349  -30.9343  -45.2618 H         1 UNK         0.0612 
@<TRIPOS>BOND
     1    1    2 1    
     2    1   62 1    
     3    1   63 1    
     4    1   64 1    
     5    2    3 2    
     6    2    4 am   BACKBONE|DICT|INTERRES
     7    4    5 1    
     8    4   65 1    
     9    5    6 1    
    10    5   25 1    
    11    5   66 1    
    12    6    7 1    
    13    6   67 1    
    14    6   68 1    
    15    7    8 1    
    16    8    9 1    
    17    8   69 1    
    18    8   70 1    
    19    9   10 ar   
    20    9   14 ar   
    21   10   11 ar   
    22   10   71 1    
    23   11   12 ar   
    24   11   61 1    
    25   12   13 ar   
    26   12   72 1    
    27   13   14 ar   
    28   13   15 1    
    29   14   73 1    
    30   15   16 1    
    31   15   74 1    
    32   15   75 1    
    33   16   17 1    
    34   17   18 1    
    35   17   76 1    
    36   17   77 1    
    37   18   19 1    
    38   18   27 1    
    39   18   78 1    
    40   19   20 am   BACKBONE|DICT|INTERRES
    41   19   79 1    
    42   20   21 2    
    43   20   22 1    
    44   22   23 1    
    45   22   24 1    
    46   22   80 1    
    47   23   81 1    
    48   23   82 1    
    49   23   83 1    
    50   24   25 am   BACKBONE|DICT|INTERRES
    51   24   84 1    
    52   25   26 2    
    53   27   28 2    
    54   27   29 am   BACKBONE|DICT|INTERRES
    55   29   30 1    
    56   29   85 1    
    57   30   31 1    
    58   30   32 1    
    59   30   86 1    
    60   31   87 1    
    61   31   88 1    
    62   31   89 1    
    63   32   33 2    
    64   32   34 am   BACKBONE|DICT|INTERRES
    65   34   35 1    
    66   34   90 1    
    67   35   36 1    
    68   35   37 1    
    69   35   91 1    
    70   36   92 1    
    71   36   93 1    
    72   36   94 1    
    73   37   38 2    
    74   37   39 am   BACKBONE|DICT|INTERRES
    75   39   40 1    
    76   39   95 1    
    77   40   41 1    
    78   40   42 1    
    79   40   96 1    
    80   41   97 1    
    81   41   98 1    
    82   41   99 1    
    83   42   43 2    
    84   42   44 am   BACKBONE|DICT|INTERRES
    85   44   45 1    
    86   44  100 1    
    87   45   46 1    
    88   45   47 1    
    89   45  101 1    
    90   46  102 1    
    91   46  103 1    
    92   46  104 1    
    93   47   48 2    
    94   47   49 am   BACKBONE|DICT|INTERRES
    95   49   50 1    
    96   49  105 1    
    97   50   51 1    
    98   50   52 1    
    99   50  106 1    
   100   51  107 1    
   101   51  108 1    
   102   51  109 1    
   103   52   53 2    
   104   52   54 am   BACKBONE|DICT|INTERRES
   105   54   55 1    
   106   54  110 1    
   107   55   56 1    
   108   55   59 1    
   109   55  111 1    
   110   56   57 am   BACKBONE|DICT|INTERRES
   111   56   58 2    
   112   57  112 1    
   113   57  113 1    
   114   59   60 1    
   115   59  114 1    
   116   59  115 1    
   117   60   61 1    
   118   61  116 1    
   119   61  117 1    
@<TRIPOS>SUBSTRUCTURE
     1 UNK         1 GROUP             0       ****    0 ROOT    
