@<TRIPOS>MOLECULE
3R8
117   119    1
SMALL
USER_CHARGES


@<TRIPOS>ATOM
      1 CA         14.5280  -24.3910  -49.8539 C.3       0 UNK        -0.2013 
      2 C          15.8452  -24.7779  -49.1981 C.2       0 UNK         0.4866 
      3 O          16.8848  -24.2041  -49.5257 O.2       0 UNK        -0.5176 
      4 N          15.8120  -25.7523  -48.2815 N.am      1 UNK        -0.4884 
      5 CA         16.9634  -26.2006  -47.4922 C.3       1 UNK         0.0853 
      6 C6         16.7434  -27.6276  -46.9222 C.3       10 UNK        -0.0849 
      7 S7         15.2529  -27.8022  -45.8767 S.3       10 UNK        -0.2776 
      8 C8         15.4220  -29.5173  -45.2905 C.3       10 UNK         0.0316 
      9 C9         16.4801  -29.6530  -44.2039 C.ar      10 UNK        -0.0863 
     10 C10        17.7656  -30.1015  -44.5213 C.ar      10 UNK        -0.1009 
     11 C11        18.7276  -30.2620  -43.5207 C.ar      10 UNK        -0.0712 
     12 C12        18.3919  -29.9857  -42.1925 C.ar      10 UNK        -0.0894 
     13 C13        17.1151  -29.5203  -41.8607 C.ar      10 UNK        -0.0745 
     14 C14        16.1639  -29.3573  -42.8737 C.ar      10 UNK        -0.0972 
     15 C15        16.7420  -29.2252  -40.4100 C.3       10 UNK         0.0209 
     16 S16        17.9801  -28.2198  -39.5204 S.3       10 UNK        -0.2568 
     17 C17        17.9504  -26.6547  -40.4584 C.3       10 UNK        -0.0983 
     18 CA         19.1888  -26.5031  -41.3815 C.3       3 UNK         0.0876 
     19 N          18.9196  -25.5692  -42.4763 N.am      3 UNK        -0.4424 
     20 C          19.4646  -25.6493  -43.6943 C.2       2 UNK         0.4918 
     21 O          20.2723  -26.5190  -44.0311 O.2       2 UNK        -0.4875 
     22 CA         19.0501  -24.5789  -44.7068 C.3       2 UNK         0.0481 
     23 CB         20.2458  -23.6877  -45.0813 C.3       2 UNK        -0.1831 
     24 N          18.5651  -25.2756  -45.8935 N.am      2 UNK        -0.4498 
     25 C          17.3216  -25.1909  -46.3794 C.2       1 UNK         0.5027 
     26 O          16.4734  -24.3957  -45.9630 O.2       1 UNK        -0.4969 
     27 C          20.4868  -26.0999  -40.6470 C.2       3 UNK         0.5005 
     28 O          20.4493  -25.6815  -39.4876 O.2       3 UNK        -0.5279 
     29 N          21.6156  -26.1851  -41.3628 N.am      4 UNK        -0.4463 
     30 CA         22.9558  -25.9097  -40.8481 C.3       4 UNK         0.0283 
     31 CB         23.9183  -25.7157  -42.0313 C.3       4 UNK        -0.1875 
     32 C          23.4424  -27.0549  -39.9487 C.2       4 UNK         0.4949 
     33 O          23.2294  -28.2218  -40.2804 O.2       4 UNK        -0.5039 
     34 N          24.1418  -26.7091  -38.8605 N.am      5 UNK        -0.4663 
     35 CA         24.7143  -27.6669  -37.9040 C.3       5 UNK         0.0242 
     36 CB         25.1948  -26.9069  -36.6568 C.3       5 UNK        -0.1982 
     37 C          25.8555  -28.5236  -38.4856 C.2       5 UNK         0.5017 
     38 O          26.1236  -29.6065  -37.9653 O.2       5 UNK        -0.5012 
     39 N          26.4994  -28.0256  -39.5495 N.am      6 UNK        -0.4439 
     40 CA         27.5633  -28.7054  -40.2898 C.3       6 UNK         0.0297 
     41 CB         28.4064  -27.6466  -41.0212 C.3       6 UNK        -0.2006 
     42 C          27.0497  -29.7644  -41.2860 C.2       6 UNK         0.4892 
     43 O          27.8686  -30.5163  -41.8175 O.2       6 UNK        -0.5089 
     44 N          25.7353  -29.7985  -41.5552 N.am      7 UNK        -0.4243 
     45 CA         25.1119  -30.7448  -42.4831 C.3       7 UNK         0.0196 
     46 CB         23.7092  -30.2380  -42.8548 C.3       7 UNK        -0.2007 
     47 C          25.0288  -32.1643  -41.8970 C.2       7 UNK         0.5020 
     48 O          25.0141  -32.3374  -40.6769 O.2       7 UNK        -0.5147 
     49 N          24.9261  -33.1566  -42.7897 N.am      8 UNK        -0.4734 
     50 CA         24.7844  -34.5778  -42.4478 C.3       8 UNK         0.0238 
     51 CB         25.2313  -35.4221  -43.6540 C.3       8 UNK        -0.1912 
     52 C          23.3618  -34.9774  -42.0049 C.2       8 UNK         0.5038 
     53 O          23.1735  -36.1133  -41.5664 O.2       8 UNK        -0.5046 
     54 N          22.3933  -34.0638  -42.1537 N.am      9 UNK        -0.4200 
     55 CA         20.9765  -34.2246  -41.7950 C.3       9 UNK         0.0839 
     56 C          20.7576  -34.5806  -40.2985 C.2       9 UNK         0.5513 
     57 N          19.8185  -35.4688  -40.0030 N.am      9 UNK        -0.7519 
     58 O          21.3942  -34.0229  -39.4073 O.2       9 UNK        -0.4960 
     59 C59        20.1586  -32.9601  -42.1630 C.3       10 UNK        -0.0876 
     60 S60        20.2663  -32.5324  -43.9346 S.3       10 UNK        -0.2414 
     61 C61        20.1334  -30.7182  -43.8783 C.3       10 UNK         0.0169 
     62 H62        14.5895  -24.5327  -50.9326 H         1 UNK         0.0903 
     63 H63        13.6959  -24.9879  -49.4806 H         1 UNK         0.0903 
     64 H64        14.3065  -23.3419  -49.6596 H         1 UNK         0.0903 
     65 H65        14.9280  -26.1649  -48.0170 H         1 UNK         0.3096 
     66 H66        17.8226  -26.2461  -48.1660 H         1 UNK         0.1121 
     67 H67        17.6175  -27.9442  -46.3511 H         1 UNK         0.0849 
     68 H68        16.6608  -28.3366  -47.7476 H         1 UNK         0.0849 
     69 H69        14.4589  -29.8501  -44.9005 H         1 UNK         0.0865 
     70 H70        15.6462  -30.1733  -46.1333 H         1 UNK         0.0865 
     71 H71        18.0193  -30.3303  -45.5474 H         1 UNK         0.1346 
     72 H72        19.1305  -30.1178  -41.4143 H         1 UNK         0.1412 
     73 H73        15.1693  -29.0101  -42.6284 H         1 UNK         0.1426 
     74 H74        16.6220  -30.1734  -39.8845 H         1 UNK         0.0716 
     75 H75        15.7771  -28.7188  -40.3528 H         1 UNK         0.0716 
     76 H76        17.8594  -25.8179  -39.7636 H         1 UNK         0.0695 
     77 H77        17.0367  -26.6385  -41.0549 H         1 UNK         0.0695 
     78 H78        19.3819  -27.4808  -41.8260 H         1 UNK         0.0983 
     79 H79        18.2927  -24.8055  -42.2673 H         1 UNK         0.3095 
     80 H80        18.2714  -23.9508  -44.2691 H         1 UNK         0.0454 
     81 H81        19.9586  -22.9277  -45.8079 H         1 UNK         0.0851 
     82 H82        21.0665  -24.2652  -45.5092 H         1 UNK         0.0851 
     83 H83        20.6348  -23.1683  -44.2046 H         1 UNK         0.0851 
     84 H84        19.1865  -25.9899  -46.2494 H         1 UNK         0.2976 
     85 H85        21.5480  -26.5281  -42.3143 H         1 UNK         0.3116 
     86 H86        22.9234  -24.9842  -40.2689 H         1 UNK         0.0646 
     87 H87        23.9963  -26.6165  -42.6418 H         1 UNK         0.0847 
     88 H88        23.5927  -24.9008  -42.6782 H         1 UNK         0.0847 
     89 H89        24.9225  -25.4693  -41.6843 H         1 UNK         0.0847 
     90 H90        24.2783  -25.7283  -38.6576 H         1 UNK         0.3040 
     91 H91        23.9206  -28.3546  -37.6024 H         1 UNK         0.1015 
     92 H92        25.5998  -27.5943  -35.9126 H         1 UNK         0.0786 
     93 H93        24.3767  -26.3652  -36.1816 H         1 UNK         0.0786 
     94 H94        25.9798  -26.1890  -36.8979 H         1 UNK         0.0786 
     95 H95        26.2103  -27.1212  -39.8920 H         1 UNK         0.3172 
     96 H96        28.2105  -29.2194  -39.5759 H         1 UNK         0.0595 
     97 H97        27.8178  -27.0984  -41.7580 H         1 UNK         0.0839 
     98 H98        29.2408  -28.1085  -41.5511 H         1 UNK         0.0839 
     99 H99        28.8311  -26.9244  -40.3236 H         1 UNK         0.0839 
    100 H100       25.1085  -29.1971  -41.0354 H         1 UNK         0.2998 
    101 H101       25.7190  -30.7784  -43.3906 H         1 UNK         0.0822 
    102 H102       23.7397  -29.2160  -43.2330 H         1 UNK         0.0787 
    103 H103       23.0362  -30.2571  -41.9966 H         1 UNK         0.0787 
    104 H104       23.2633  -30.8565  -43.6345 H         1 UNK         0.0787 
    105 H105       24.9368  -32.9299  -43.7748 H         1 UNK         0.3055 
    106 H106       25.4498  -34.8011  -41.6104 H         1 UNK         0.1106 
    107 H107       24.5979  -35.2500  -44.5251 H         1 UNK         0.0828 
    108 H108       26.2606  -35.1994  -43.9360 H         1 UNK         0.0828 
    109 H109       25.1860  -36.4879  -43.4251 H         1 UNK         0.0828 
    110 H110       22.6514  -33.1638  -42.5259 H         1 UNK         0.2931 
    111 H111       20.6003  -35.0551  -42.3960 H         1 UNK         0.0412 
    112 H112       19.2836  -35.9231  -40.7274 H         1 UNK         0.3472 
    113 H113       19.6491  -35.7003  -39.0363 H         1 UNK         0.3472 
    114 H114       19.1033  -33.0999  -41.9200 H         1 UNK         0.0970 
    115 H115       20.5001  -32.1134  -41.5648 H         1 UNK         0.0970 
    116 H116       20.4133  -30.3152  -44.8528 H         1 UNK         0.0612 
    117 H117       20.8527  -30.3131  -43.1667 H         1 UNK         0.0612 
@<TRIPOS>BOND
     1    1    2 1    
     2    1   62 1    
     3    1   63 1    
     4    1   64 1    
     5    2    3 2    
     6    2    4 am   BACKBONE|DICT|INTERRES
     7    4    5 1    
     8    4   65 1    
     9    5    6 1    
    10    5   25 1    
    11    5   66 1    
    12    6    7 1    
    13    6   67 1    
    14    6   68 1    
    15    7    8 1    
    16    8    9 1    
    17    8   69 1    
    18    8   70 1    
    19    9   10 ar   
    20    9   14 ar   
    21   10   11 ar   
    22   10   71 1    
    23   11   12 ar   
    24   11   61 1    
    25   12   13 ar   
    26   12   72 1    
    27   13   14 ar   
    28   13   15 1    
    29   14   73 1    
    30   15   16 1    
    31   15   74 1    
    32   15   75 1    
    33   16   17 1    
    34   17   18 1    
    35   17   76 1    
    36   17   77 1    
    37   18   19 1    
    38   18   27 1    
    39   18   78 1    
    40   19   20 am   BACKBONE|DICT|INTERRES
    41   19   79 1    
    42   20   21 2    
    43   20   22 1    
    44   22   23 1    
    45   22   24 1    
    46   22   80 1    
    47   23   81 1    
    48   23   82 1    
    49   23   83 1    
    50   24   25 am   BACKBONE|DICT|INTERRES
    51   24   84 1    
    52   25   26 2    
    53   27   28 2    
    54   27   29 am   BACKBONE|DICT|INTERRES
    55   29   30 1    
    56   29   85 1    
    57   30   31 1    
    58   30   32 1    
    59   30   86 1    
    60   31   87 1    
    61   31   88 1    
    62   31   89 1    
    63   32   33 2    
    64   32   34 am   BACKBONE|DICT|INTERRES
    65   34   35 1    
    66   34   90 1    
    67   35   36 1    
    68   35   37 1    
    69   35   91 1    
    70   36   92 1    
    71   36   93 1    
    72   36   94 1    
    73   37   38 2    
    74   37   39 am   BACKBONE|DICT|INTERRES
    75   39   40 1    
    76   39   95 1    
    77   40   41 1    
    78   40   42 1    
    79   40   96 1    
    80   41   97 1    
    81   41   98 1    
    82   41   99 1    
    83   42   43 2    
    84   42   44 am   BACKBONE|DICT|INTERRES
    85   44   45 1    
    86   44  100 1    
    87   45   46 1    
    88   45   47 1    
    89   45  101 1    
    90   46  102 1    
    91   46  103 1    
    92   46  104 1    
    93   47   48 2    
    94   47   49 am   BACKBONE|DICT|INTERRES
    95   49   50 1    
    96   49  105 1    
    97   50   51 1    
    98   50   52 1    
    99   50  106 1    
   100   51  107 1    
   101   51  108 1    
   102   51  109 1    
   103   52   53 2    
   104   52   54 am   BACKBONE|DICT|INTERRES
   105   54   55 1    
   106   54  110 1    
   107   55   56 1    
   108   55   59 1    
   109   55  111 1    
   110   56   57 am   BACKBONE|DICT|INTERRES
   111   56   58 2    
   112   57  112 1    
   113   57  113 1    
   114   59   60 1    
   115   59  114 1    
   116   59  115 1    
   117   60   61 1    
   118   61  116 1    
   119   61  117 1    
@<TRIPOS>SUBSTRUCTURE
     1 UNK         1 GROUP             0       ****    0 ROOT    
