@<TRIPOS>MOLECULE
3R8
117   119    1
SMALL
USER_CHARGES


@<TRIPOS>ATOM
      1 CA         13.5067  -26.9240  -49.5792 C.3       0 UNK        -0.2013 
      2 C          14.7715  -27.3725  -48.8622 C.2       0 UNK         0.4866 
      3 O          15.6416  -27.9863  -49.4813 O.2       0 UNK        -0.5176 
      4 N          14.8762  -27.0806  -47.5602 N.am      1 UNK        -0.4884 
      5 CA         16.0415  -27.3928  -46.7271 C.3       1 UNK         0.0853 
      6 C6         15.7380  -27.2192  -45.2189 C.3       10 UNK        -0.0849 
      7 S7         14.4477  -28.3310  -44.5638 S.3       10 UNK        -0.2776 
      8 C8         15.4177  -29.5261  -43.5661 C.3       10 UNK         0.0316 
      9 C9         16.3046  -28.9479  -42.4549 C.ar      10 UNK        -0.0863 
     10 C10        17.2451  -29.7908  -41.8537 C.ar      10 UNK        -0.1009 
     11 C11        18.1196  -29.3121  -40.8725 C.ar      10 UNK        -0.0712 
     12 C12        18.0619  -27.9675  -40.4955 C.ar      10 UNK        -0.0894 
     13 C13        17.1286  -27.1107  -41.0848 C.ar      10 UNK        -0.0745 
     14 C14        16.2320  -27.6140  -42.0309 C.ar      10 UNK        -0.0972 
     15 C15        17.0905  -25.6329  -40.7272 C.3       10 UNK         0.0209 
     16 S16        17.7732  -24.6100  -42.0748 S.3       10 UNK        -0.2568 
     17 C17        19.5726  -24.7524  -41.8014 C.3       10 UNK        -0.0983 
     18 CA         20.2594  -25.8333  -42.6793 C.3       3 UNK         0.0876 
     19 N          20.0208  -25.6271  -44.1147 N.am      3 UNK        -0.4424 
     20 C          20.0670  -26.5888  -45.0439 C.2       2 UNK         0.4918 
     21 O          20.3817  -27.7568  -44.8040 O.2       2 UNK        -0.4875 
     22 CA         19.6417  -26.2151  -46.4668 C.3       2 UNK         0.0481 
     23 CB         20.7275  -26.5736  -47.4950 C.3       2 UNK        -0.1831 
     24 N          18.4403  -27.0004  -46.7160 N.am      2 UNK        -0.4498 
     25 C          17.2524  -26.5001  -47.0689 C.2       1 UNK         0.5027 
     26 O          17.0856  -25.3651  -47.5243 O.2       1 UNK        -0.4969 
     27 C          21.7677  -25.9631  -42.3634 C.2       3 UNK         0.5005 
     28 O          22.3107  -25.1843  -41.5754 O.2       3 UNK        -0.5279 
     29 N          22.4289  -26.9475  -42.9850 N.am      4 UNK        -0.4463 
     30 CA         23.8193  -27.3393  -42.7488 C.3       4 UNK         0.0283 
     31 CB         24.3154  -28.1538  -43.9562 C.3       4 UNK        -0.1875 
     32 C          23.9387  -28.1082  -41.4193 C.2       4 UNK         0.4949 
     33 O          24.1204  -29.3266  -41.4179 O.2       4 UNK        -0.5039 
     34 N          23.7765  -27.3671  -40.3147 N.am      5 UNK        -0.4663 
     35 CA         23.5932  -27.8484  -38.9402 C.3       5 UNK         0.0242 
     36 CB         23.3328  -26.6400  -38.0265 C.3       5 UNK        -0.1982 
     37 C          24.7228  -28.7209  -38.3679 C.2       5 UNK         0.5017 
     38 O          24.4869  -29.4349  -37.3917 O.2       5 UNK        -0.5012 
     39 N          25.9137  -28.6837  -38.9793 N.am      6 UNK        -0.4439 
     40 CA         27.0577  -29.5466  -38.6733 C.3       6 UNK         0.0297 
     41 CB         28.3365  -28.8913  -39.2278 C.3       6 UNK        -0.2006 
     42 C          26.8457  -30.9798  -39.2066 C.2       6 UNK         0.4892 
     43 O          27.6158  -31.4446  -40.0480 O.2       6 UNK        -0.5089 
     44 N          25.7732  -31.6323  -38.7353 N.am      7 UNK        -0.4243 
     45 CA         25.2760  -32.9845  -39.0356 C.3       7 UNK         0.0196 
     46 CB         26.3076  -34.0522  -38.6224 C.3       7 UNK        -0.2007 
     47 C          24.7952  -33.2260  -40.4810 C.2       7 UNK         0.5020 
     48 O          23.9445  -34.0931  -40.6827 O.2       7 UNK        -0.5147 
     49 N          25.3341  -32.4844  -41.4554 N.am      8 UNK        -0.4734 
     50 CA         25.1204  -32.6495  -42.8958 C.3       8 UNK         0.0238 
     51 CB         25.9970  -31.6396  -43.6512 C.3       8 UNK        -0.1912 
     52 C          23.6564  -32.5625  -43.3607 C.2       8 UNK         0.5038 
     53 O          23.2976  -33.2680  -44.3051 O.2       8 UNK        -0.5046 
     54 N          22.8379  -31.7328  -42.6990 N.am      9 UNK        -0.4200 
     55 CA         21.3873  -31.6560  -42.9416 C.3       9 UNK         0.0839 
     56 C          20.5569  -32.8602  -42.4051 C.2       9 UNK         0.5513 
     57 N          21.1280  -33.7909  -41.6487 N.am      9 UNK        -0.7519 
     58 O          19.3675  -32.9584  -42.6959 O.2       9 UNK        -0.4960 
     59 C59        20.7905  -30.2865  -42.5310 C.3       10 UNK        -0.0876 
     60 S60        20.8372  -29.9234  -40.7409 S.3       10 UNK        -0.2414 
     61 C61        19.1237  -30.2518  -40.2189 C.3       10 UNK         0.0169 
     62 H62        13.7584  -26.2463  -50.3945 H         1 UNK         0.0903 
     63 H63        12.9878  -27.7852  -49.9992 H         1 UNK         0.0903 
     64 H64        12.8191  -26.4078  -48.9093 H         1 UNK         0.0903 
     65 H65        14.1361  -26.5693  -47.1008 H         1 UNK         0.3096 
     66 H66        16.3200  -28.4328  -46.9136 H         1 UNK         0.1121 
     67 H67        16.6512  -27.3694  -44.6417 H         1 UNK         0.0849 
     68 H68        15.4274  -26.1932  -45.0096 H         1 UNK         0.0849 
     69 H69        16.0404  -30.1045  -44.2506 H         1 UNK         0.0865 
     70 H70        14.7217  -30.2349  -43.1154 H         1 UNK         0.0865 
     71 H71        17.3064  -30.8272  -42.1594 H         1 UNK         0.1346 
     72 H72        18.7525  -27.5895  -39.7540 H         1 UNK         0.1412 
     73 H73        15.5080  -26.9386  -42.4631 H         1 UNK         0.1426 
     74 H74        17.6244  -25.4361  -39.7963 H         1 UNK         0.0716 
     75 H75        16.0558  -25.3350  -40.5518 H         1 UNK         0.0716 
     76 H76        19.7502  -24.9514  -40.7429 H         1 UNK         0.0695 
     77 H77        20.0116  -23.7726  -41.9987 H         1 UNK         0.0695 
     78 H78        19.8148  -26.7926  -42.4048 H         1 UNK         0.0983 
     79 H79        19.7487  -24.6932  -44.3854 H         1 UNK         0.3095 
     80 H80        19.4367  -25.1436  -46.5178 H         1 UNK         0.0454 
     81 H81        20.4059  -26.3294  -48.5074 H         1 UNK         0.0851 
     82 H82        20.9775  -27.6352  -47.4721 H         1 UNK         0.0851 
     83 H83        21.6453  -26.0172  -47.3017 H         1 UNK         0.0851 
     84 H84        18.4786  -27.9360  -46.3321 H         1 UNK         0.2976 
     85 H85        21.8948  -27.5177  -43.6345 H         1 UNK         0.3116 
     86 H86        24.4329  -26.4388  -42.6767 H         1 UNK         0.0646 
     87 H87        25.3736  -28.3924  -43.8496 H         1 UNK         0.0847 
     88 H88        24.2066  -27.5932  -44.8847 H         1 UNK         0.0847 
     89 H89        23.7720  -29.0931  -44.0681 H         1 UNK         0.0847 
     90 H90        23.5679  -26.3856  -40.4679 H         1 UNK         0.3040 
     91 H91        22.6972  -28.4714  -38.9387 H         1 UNK         0.1015 
     92 H92        22.4555  -26.0794  -38.3506 H         1 UNK         0.0786 
     93 H93        24.1826  -25.9564  -38.0122 H         1 UNK         0.0786 
     94 H94        23.1501  -26.9562  -36.9983 H         1 UNK         0.0786 
     95 H95        25.9908  -28.1009  -39.8000 H         1 UNK         0.3172 
     96 H96        27.1638  -29.6165  -37.5886 H         1 UNK         0.0595 
     97 H97        28.2989  -28.7838  -40.3127 H         1 UNK         0.0839 
     98 H98        29.2165  -29.4907  -38.9903 H         1 UNK         0.0839 
     99 H99        28.4955  -27.9026  -38.7972 H         1 UNK         0.0839 
    100 H100       25.1900  -31.0980  -38.0962 H         1 UNK         0.2998 
    101 H101       24.3972  -33.1155  -38.4021 H         1 UNK         0.0822 
    102 H102       26.5902  -33.9468  -37.5749 H         1 UNK         0.0787 
    103 H103       25.9005  -35.0564  -38.7483 H         1 UNK         0.0787 
    104 H104       27.2158  -33.9943  -39.2232 H         1 UNK         0.0787 
    105 H105       26.0600  -31.8324  -41.1767 H         1 UNK         0.3055 
    106 H106       25.4663  -33.6529  -43.1528 H         1 UNK         0.1106 
    107 H107       25.8307  -31.6958  -44.7279 H         1 UNK         0.0828 
    108 H108       25.7850  -30.6191  -43.3362 H         1 UNK         0.0828 
    109 H109       27.0565  -31.8276  -43.4766 H         1 UNK         0.0828 
    110 H110       23.2139  -31.1450  -41.9624 H         1 UNK         0.2931 
    111 H111       21.2614  -31.7041  -44.0252 H         1 UNK         0.0412 
    112 H112       20.5719  -34.5635  -41.3192 H         1 UNK         0.3472 
    113 H113       22.1122  -33.7427  -41.4068 H         1 UNK         0.3472 
    114 H114       21.3491  -29.5002  -43.0349 H         1 UNK         0.0970 
    115 H115       19.7728  -30.1912  -42.9092 H         1 UNK         0.0970 
    116 H116       18.8761  -31.2931  -40.4291 H         1 UNK         0.0612 
    117 H117       19.0634  -30.1396  -39.1357 H         1 UNK         0.0612 
@<TRIPOS>BOND
     1    1    2 1    
     2    1   62 1    
     3    1   63 1    
     4    1   64 1    
     5    2    3 2    
     6    2    4 am   BACKBONE|DICT|INTERRES
     7    4    5 1    
     8    4   65 1    
     9    5    6 1    
    10    5   25 1    
    11    5   66 1    
    12    6    7 1    
    13    6   67 1    
    14    6   68 1    
    15    7    8 1    
    16    8    9 1    
    17    8   69 1    
    18    8   70 1    
    19    9   10 ar   
    20    9   14 ar   
    21   10   11 ar   
    22   10   71 1    
    23   11   12 ar   
    24   11   61 1    
    25   12   13 ar   
    26   12   72 1    
    27   13   14 ar   
    28   13   15 1    
    29   14   73 1    
    30   15   16 1    
    31   15   74 1    
    32   15   75 1    
    33   16   17 1    
    34   17   18 1    
    35   17   76 1    
    36   17   77 1    
    37   18   19 1    
    38   18   27 1    
    39   18   78 1    
    40   19   20 am   BACKBONE|DICT|INTERRES
    41   19   79 1    
    42   20   21 2    
    43   20   22 1    
    44   22   23 1    
    45   22   24 1    
    46   22   80 1    
    47   23   81 1    
    48   23   82 1    
    49   23   83 1    
    50   24   25 am   BACKBONE|DICT|INTERRES
    51   24   84 1    
    52   25   26 2    
    53   27   28 2    
    54   27   29 am   BACKBONE|DICT|INTERRES
    55   29   30 1    
    56   29   85 1    
    57   30   31 1    
    58   30   32 1    
    59   30   86 1    
    60   31   87 1    
    61   31   88 1    
    62   31   89 1    
    63   32   33 2    
    64   32   34 am   BACKBONE|DICT|INTERRES
    65   34   35 1    
    66   34   90 1    
    67   35   36 1    
    68   35   37 1    
    69   35   91 1    
    70   36   92 1    
    71   36   93 1    
    72   36   94 1    
    73   37   38 2    
    74   37   39 am   BACKBONE|DICT|INTERRES
    75   39   40 1    
    76   39   95 1    
    77   40   41 1    
    78   40   42 1    
    79   40   96 1    
    80   41   97 1    
    81   41   98 1    
    82   41   99 1    
    83   42   43 2    
    84   42   44 am   BACKBONE|DICT|INTERRES
    85   44   45 1    
    86   44  100 1    
    87   45   46 1    
    88   45   47 1    
    89   45  101 1    
    90   46  102 1    
    91   46  103 1    
    92   46  104 1    
    93   47   48 2    
    94   47   49 am   BACKBONE|DICT|INTERRES
    95   49   50 1    
    96   49  105 1    
    97   50   51 1    
    98   50   52 1    
    99   50  106 1    
   100   51  107 1    
   101   51  108 1    
   102   51  109 1    
   103   52   53 2    
   104   52   54 am   BACKBONE|DICT|INTERRES
   105   54   55 1    
   106   54  110 1    
   107   55   56 1    
   108   55   59 1    
   109   55  111 1    
   110   56   57 am   BACKBONE|DICT|INTERRES
   111   56   58 2    
   112   57  112 1    
   113   57  113 1    
   114   59   60 1    
   115   59  114 1    
   116   59  115 1    
   117   60   61 1    
   118   61  116 1    
   119   61  117 1    
@<TRIPOS>SUBSTRUCTURE
     1 UNK         1 GROUP             0       ****    0 ROOT    
