@<TRIPOS>MOLECULE
3R8
117   119    1
SMALL
USER_CHARGES


@<TRIPOS>ATOM
      1 CA         16.1497  -23.1333  -43.0781 C.3       0 UNK        -0.2013 
      2 C          16.3233  -24.5617  -42.5841 C.2       0 UNK         0.4866 
      3 O          16.2424  -24.8021  -41.3796 O.2       0 UNK        -0.5176 
      4 N          16.5613  -25.5033  -43.5086 N.am      1 UNK        -0.4884 
      5 CA         16.7583  -26.9409  -43.2639 C.3       1 UNK         0.0853 
      6 C6         15.4615  -27.6727  -42.8166 C.3       10 UNK        -0.0849 
      7 S7         14.3552  -27.9199  -44.2487 S.3       10 UNK        -0.2776 
      8 C8         14.7253  -29.6453  -44.7262 C.3       10 UNK         0.0316 
      9 C9         16.2172  -29.8944  -44.9229 C.ar      10 UNK        -0.0863 
     10 C10        16.9531  -30.5444  -43.9281 C.ar      10 UNK        -0.1009 
     11 C11        18.3272  -30.7460  -44.0749 C.ar      10 UNK        -0.0712 
     12 C12        18.9676  -30.3128  -45.2390 C.ar      10 UNK        -0.0894 
     13 C13        18.2427  -29.6688  -46.2471 C.ar      10 UNK        -0.0745 
     14 C14        16.8672  -29.4637  -46.0842 C.ar      10 UNK        -0.0972 
     15 C15        18.9361  -29.2075  -47.5209 C.3       10 UNK         0.0209 
     16 S16        19.7203  -27.5761  -47.3171 S.3       10 UNK        -0.2568 
     17 C17        21.4297  -28.0236  -46.8552 C.3       10 UNK        -0.0983 
     18 CA         21.9924  -27.1170  -45.7351 C.3       3 UNK         0.0876 
     19 N          21.2213  -27.2349  -44.4933 N.am      3 UNK        -0.4424 
     20 C          21.4324  -26.5307  -43.3722 C.2       2 UNK         0.4918 
     21 O          22.3066  -25.6704  -43.2541 O.2       2 UNK        -0.4875 
     22 CA         20.4472  -26.7935  -42.2271 C.3       2 UNK         0.0481 
     23 CB         20.6971  -25.9113  -40.9893 C.3       2 UNK        -0.1831 
     24 N          19.1032  -26.5704  -42.7476 N.am      2 UNK        -0.4498 
     25 C          17.9980  -27.2324  -42.3898 C.2       1 UNK         0.5027 
     26 O          17.9499  -28.0394  -41.4599 O.2       1 UNK        -0.4969 
     27 C          23.4842  -27.4144  -45.4864 C.2       3 UNK         0.5005 
     28 O          23.8001  -28.4043  -44.8240 O.2       3 UNK        -0.5279 
     29 N          24.3669  -26.5265  -45.9705 N.am      4 UNK        -0.4463 
     30 CA         25.8226  -26.5291  -45.7465 C.3       4 UNK         0.0283 
     31 CB         26.4837  -27.7132  -46.4844 C.3       4 UNK        -0.1875 
     32 C          26.2177  -26.4699  -44.2525 C.2       4 UNK         0.4949 
     33 O          27.2736  -26.9809  -43.8786 O.2       4 UNK        -0.5039 
     34 N          25.3433  -25.8691  -43.4291 N.am      5 UNK        -0.4663 
     35 CA         25.3829  -25.7795  -41.9639 C.3       5 UNK         0.0242 
     36 CB         26.6480  -25.0419  -41.4756 C.3       5 UNK        -0.1982 
     37 C          25.1717  -27.1249  -41.2388 C.2       5 UNK         0.5017 
     38 O          25.3394  -27.1751  -40.0185 O.2       5 UNK        -0.5012 
     39 N          24.7802  -28.1866  -41.9603 N.am      6 UNK        -0.4439 
     40 CA         24.5249  -29.5169  -41.4079 C.3       6 UNK         0.0297 
     41 CB         24.7667  -30.5823  -42.4935 C.3       6 UNK        -0.2006 
     42 C          23.1104  -29.5957  -40.8125 C.2       6 UNK         0.4892 
     43 O          22.2497  -30.2893  -41.3537 O.2       6 UNK        -0.5089 
     44 N          22.8971  -28.8940  -39.6912 N.am      7 UNK        -0.4243 
     45 CA         21.6401  -28.8782  -38.9304 C.3       7 UNK         0.0196 
     46 CB         21.7448  -27.8406  -37.8016 C.3       7 UNK        -0.2007 
     47 C          21.2352  -30.2537  -38.3657 C.2       7 UNK         0.5020 
     48 O          20.0453  -30.5047  -38.1775 O.2       7 UNK        -0.5147 
     49 N          22.2243  -31.1284  -38.1324 N.am      8 UNK        -0.4734 
     50 CA         22.0281  -32.5317  -37.7554 C.3       8 UNK         0.0238 
     51 CB         23.3427  -33.0820  -37.1779 C.3       8 UNK        -0.1912 
     52 C          21.5409  -33.4166  -38.9204 C.2       8 UNK         0.5038 
     53 O          21.0270  -34.5058  -38.6639 O.2       8 UNK        -0.5046 
     54 N          21.7083  -32.9445  -40.1649 N.am      9 UNK        -0.4200 
     55 CA         21.2965  -33.6034  -41.4135 C.3       9 UNK         0.0839 
     56 C          22.0623  -34.9169  -41.7599 C.2       9 UNK         0.5513 
     57 N          23.2221  -35.1758  -41.1673 N.am      9 UNK        -0.7519 
     58 O          21.6200  -35.7015  -42.5950 O.2       9 UNK        -0.4960 
     59 C59        19.7466  -33.7245  -41.5205 C.3       10 UNK        -0.0876 
     60 S60        19.1126  -33.2271  -43.1554 S.3       10 UNK        -0.2414 
     61 C61        19.1128  -31.4180  -42.9621 C.3       10 UNK         0.0169 
     62 H62        16.9036  -22.4870  -42.6291 H         1 UNK         0.0903 
     63 H63        16.2423  -23.0604  -44.1616 H         1 UNK         0.0903 
     64 H64        15.1667  -22.7565  -42.7965 H         1 UNK         0.0903 
     65 H65        16.5976  -25.2289  -44.4811 H         1 UNK         0.3096 
     66 H66        17.0452  -27.3522  -44.2320 H         1 UNK         0.1121 
     67 H67        14.9354  -27.1047  -42.0484 H         1 UNK         0.0849 
     68 H68        15.6663  -28.6448  -42.3676 H         1 UNK         0.0849 
     69 H69        14.3226  -30.3180  -43.9671 H         1 UNK         0.0865 
     70 H70        14.1924  -29.8798  -45.6488 H         1 UNK         0.0865 
     71 H71        16.4608  -30.8812  -43.0258 H         1 UNK         0.1346 
     72 H72        20.0287  -30.4816  -45.3582 H         1 UNK         0.1412 
     73 H73        16.3020  -28.9588  -46.8561 H         1 UNK         0.1426 
     74 H74        18.2098  -29.1397  -48.3324 H         1 UNK         0.0716 
     75 H75        19.6718  -29.9460  -47.8432 H         1 UNK         0.0716 
     76 H76        22.0408  -27.9415  -47.7562 H         1 UNK         0.0695 
     77 H77        21.4761  -29.0710  -46.5534 H         1 UNK         0.0695 
     78 H78        21.9035  -26.0787  -46.0621 H         1 UNK         0.0983 
     79 H79        20.4766  -27.9153  -44.5042 H         1 UNK         0.3095 
     80 H80        20.5626  -27.8416  -41.9430 H         1 UNK         0.0454 
     81 H81        20.5883  -24.8515  -41.2215 H         1 UNK         0.0851 
     82 H82        21.7059  -26.0608  -40.6026 H         1 UNK         0.0851 
     83 H83        20.0012  -26.1507  -40.1853 H         1 UNK         0.0851 
     84 H84        19.0375  -25.9123  -43.5127 H         1 UNK         0.2976 
     85 H85        24.0134  -25.7362  -46.4939 H         1 UNK         0.3116 
     86 H86        26.2026  -25.6092  -46.1934 H         1 UNK         0.0646 
     87 H87        26.2057  -28.6712  -46.0436 H         1 UNK         0.0847 
     88 H88        26.2015  -27.7337  -47.5369 H         1 UNK         0.0847 
     89 H89        27.5714  -27.6423  -46.4447 H         1 UNK         0.0847 
     90 H90        24.4824  -25.5244  -43.8379 H         1 UNK         0.3040 
     91 H91        24.5246  -25.1659  -41.6854 H         1 UNK         0.1015 
     92 H92        26.5853  -24.8236  -40.4088 H         1 UNK         0.0786 
     93 H93        26.7773  -24.0904  -41.9913 H         1 UNK         0.0786 
     94 H94        27.5504  -25.6340  -41.6292 H         1 UNK         0.0786 
     95 H95        24.6027  -28.0734  -42.9541 H         1 UNK         0.3172 
     96 H96        25.2353  -29.7120  -40.6016 H         1 UNK         0.0595 
     97 H97        24.0556  -30.4970  -43.3155 H         1 UNK         0.0839 
     98 H98        24.6619  -31.5869  -42.0819 H         1 UNK         0.0839 
     99 H99        25.7708  -30.5047  -42.9108 H         1 UNK         0.0839 
    100 H100       23.6589  -28.3221  -39.3431 H         1 UNK         0.2998 
    101 H101       20.8445  -28.5687  -39.6108 H         1 UNK         0.0822 
    102 H102       20.8107  -27.7787  -37.2413 H         1 UNK         0.0787 
    103 H103       22.5344  -28.0941  -37.0930 H         1 UNK         0.0787 
    104 H104       21.9523  -26.8446  -38.1925 H         1 UNK         0.0787 
    105 H105       23.1745  -30.8251  -38.2896 H         1 UNK         0.3055 
    106 H106       21.2639  -32.5766  -36.9759 H         1 UNK         0.1106 
    107 H107       23.6609  -32.5137  -36.3037 H         1 UNK         0.0828 
    108 H108       23.2258  -34.1194  -36.8607 H         1 UNK         0.0828 
    109 H109       24.1509  -33.0548  -37.9098 H         1 UNK         0.0828 
    110 H110       22.0986  -32.0177  -40.2889 H         1 UNK         0.2931 
    111 H111       21.6321  -32.9036  -42.1794 H         1 UNK         0.0412 
    112 H112       23.7179  -36.0219  -41.4009 H         1 UNK         0.3472 
    113 H113       23.6018  -34.5391  -40.4858 H         1 UNK         0.3472 
    114 H114       19.4119  -34.7402  -41.3016 H         1 UNK         0.0970 
    115 H115       19.2522  -33.1012  -40.7736 H         1 UNK         0.0970 
    116 H116       18.6833  -31.1458  -41.9965 H         1 UNK         0.0612 
    117 H117       20.1411  -31.0538  -42.9527 H         1 UNK         0.0612 
@<TRIPOS>BOND
     1    1    2 1    
     2    1   62 1    
     3    1   63 1    
     4    1   64 1    
     5    2    3 2    
     6    2    4 am   BACKBONE|DICT|INTERRES
     7    4    5 1    
     8    4   65 1    
     9    5    6 1    
    10    5   25 1    
    11    5   66 1    
    12    6    7 1    
    13    6   67 1    
    14    6   68 1    
    15    7    8 1    
    16    8    9 1    
    17    8   69 1    
    18    8   70 1    
    19    9   10 ar   
    20    9   14 ar   
    21   10   11 ar   
    22   10   71 1    
    23   11   12 ar   
    24   11   61 1    
    25   12   13 ar   
    26   12   72 1    
    27   13   14 ar   
    28   13   15 1    
    29   14   73 1    
    30   15   16 1    
    31   15   74 1    
    32   15   75 1    
    33   16   17 1    
    34   17   18 1    
    35   17   76 1    
    36   17   77 1    
    37   18   19 1    
    38   18   27 1    
    39   18   78 1    
    40   19   20 am   BACKBONE|DICT|INTERRES
    41   19   79 1    
    42   20   21 2    
    43   20   22 1    
    44   22   23 1    
    45   22   24 1    
    46   22   80 1    
    47   23   81 1    
    48   23   82 1    
    49   23   83 1    
    50   24   25 am   BACKBONE|DICT|INTERRES
    51   24   84 1    
    52   25   26 2    
    53   27   28 2    
    54   27   29 am   BACKBONE|DICT|INTERRES
    55   29   30 1    
    56   29   85 1    
    57   30   31 1    
    58   30   32 1    
    59   30   86 1    
    60   31   87 1    
    61   31   88 1    
    62   31   89 1    
    63   32   33 2    
    64   32   34 am   BACKBONE|DICT|INTERRES
    65   34   35 1    
    66   34   90 1    
    67   35   36 1    
    68   35   37 1    
    69   35   91 1    
    70   36   92 1    
    71   36   93 1    
    72   36   94 1    
    73   37   38 2    
    74   37   39 am   BACKBONE|DICT|INTERRES
    75   39   40 1    
    76   39   95 1    
    77   40   41 1    
    78   40   42 1    
    79   40   96 1    
    80   41   97 1    
    81   41   98 1    
    82   41   99 1    
    83   42   43 2    
    84   42   44 am   BACKBONE|DICT|INTERRES
    85   44   45 1    
    86   44  100 1    
    87   45   46 1    
    88   45   47 1    
    89   45  101 1    
    90   46  102 1    
    91   46  103 1    
    92   46  104 1    
    93   47   48 2    
    94   47   49 am   BACKBONE|DICT|INTERRES
    95   49   50 1    
    96   49  105 1    
    97   50   51 1    
    98   50   52 1    
    99   50  106 1    
   100   51  107 1    
   101   51  108 1    
   102   51  109 1    
   103   52   53 2    
   104   52   54 am   BACKBONE|DICT|INTERRES
   105   54   55 1    
   106   54  110 1    
   107   55   56 1    
   108   55   59 1    
   109   55  111 1    
   110   56   57 am   BACKBONE|DICT|INTERRES
   111   56   58 2    
   112   57  112 1    
   113   57  113 1    
   114   59   60 1    
   115   59  114 1    
   116   59  115 1    
   117   60   61 1    
   118   61  116 1    
   119   61  117 1    
@<TRIPOS>SUBSTRUCTURE
     1 UNK         1 GROUP             0       ****    0 ROOT    
