@<TRIPOS>MOLECULE
3R8
117   119    1
SMALL
USER_CHARGES


@<TRIPOS>ATOM
      1 CA         15.4980  -23.2064  -42.0231 C.3       0 UNK        -0.2013 
      2 C          15.9436  -23.7100  -43.3879 C.2       0 UNK         0.4866 
      3 O          15.8500  -22.9757  -44.3724 O.2       0 UNK        -0.5176 
      4 N          16.4180  -24.9599  -43.4560 N.am      1 UNK        -0.4884 
      5 CA         16.9367  -25.5947  -44.6730 C.3       1 UNK         0.0853 
      6 C6         17.0794  -27.1267  -44.5072 C.3       10 UNK        -0.0849 
      7 S7         15.5159  -27.9575  -44.0600 S.3       10 UNK        -0.2776 
      8 C8         15.9060  -29.7006  -44.4384 C.3       10 UNK         0.0316 
      9 C9         17.2318  -30.1298  -43.8249 C.ar      10 UNK        -0.0863 
     10 C10        17.3552  -30.2709  -42.4403 C.ar      10 UNK        -0.1009 
     11 C11        18.5865  -30.5858  -41.8578 C.ar      10 UNK        -0.0712 
     12 C12        19.7062  -30.7472  -42.6876 C.ar      10 UNK        -0.0894 
     13 C13        19.5861  -30.6543  -44.0783 C.ar      10 UNK        -0.0745 
     14 C14        18.3451  -30.3476  -44.6403 C.ar      10 UNK        -0.0972 
     15 C15        20.7906  -30.9027  -44.9779 C.3       10 UNK         0.0209 
     16 S16        21.2702  -29.4285  -45.9366 S.3       10 UNK        -0.2568 
     17 C17        21.8366  -28.3272  -44.6035 C.3       10 UNK        -0.0983 
     18 CA         22.2076  -26.9038  -45.0945 C.3       3 UNK         0.0876 
     19 N          21.0978  -26.2638  -45.8072 N.am      3 UNK        -0.4424 
     20 C          21.1573  -25.0898  -46.4498 C.2       2 UNK         0.4918 
     21 O          22.1951  -24.4446  -46.5997 O.2       2 UNK        -0.4875 
     22 CA         19.8345  -24.5198  -47.0015 C.3       2 UNK         0.0481 
     23 CB         19.7584  -24.7342  -48.5218 C.3       2 UNK        -0.1831 
     24 N          18.6104  -25.0485  -46.3805 N.am      2 UNK        -0.4498 
     25 C          18.2972  -24.9890  -45.0768 C.2       1 UNK         0.5027 
     26 O          19.0574  -24.5480  -44.2089 O.2       1 UNK        -0.4969 
     27 C          22.6941  -26.0843  -43.8806 C.2       3 UNK         0.5005 
     28 O          23.8591  -26.2186  -43.5062 O.2       3 UNK        -0.5279 
     29 N          21.7852  -25.3129  -43.2536 N.am      4 UNK        -0.4463 
     30 CA         21.9245  -24.6999  -41.9231 C.3       4 UNK         0.0283 
     31 CB         23.0014  -23.5947  -41.9226 C.3       4 UNK        -0.1875 
     32 C          22.1486  -25.7669  -40.8294 C.2       4 UNK         0.4949 
     33 O          22.9521  -25.5686  -39.9161 O.2       4 UNK        -0.5039 
     34 N          21.4475  -26.9012  -40.9838 N.am      5 UNK        -0.4663 
     35 CA         21.5887  -28.1757  -40.2736 C.3       5 UNK         0.0242 
     36 CB         21.2666  -28.0458  -38.7708 C.3       5 UNK        -0.1982 
     37 C          22.9480  -28.8450  -40.5342 C.2       5 UNK         0.5017 
     38 O          22.9967  -29.8577  -41.2330 O.2       5 UNK        -0.5012 
     39 N          24.0171  -28.2712  -39.9619 N.am      6 UNK        -0.4439 
     40 CA         25.4350  -28.6391  -40.1090 C.3       6 UNK         0.0297 
     41 CB         25.9240  -28.2568  -41.5214 C.3       6 UNK        -0.2006 
     42 C          25.7787  -30.1052  -39.7624 C.2       6 UNK         0.4892 
     43 O          26.8094  -30.6063  -40.2145 O.2       6 UNK        -0.5089 
     44 N          24.9020  -30.7710  -38.9932 N.am      7 UNK        -0.4243 
     45 CA         24.8890  -32.2099  -38.6909 C.3       7 UNK         0.0196 
     46 CB         26.1045  -32.6053  -37.8252 C.3       7 UNK        -0.2007 
     47 C          24.7327  -33.1069  -39.9409 C.2       7 UNK         0.5020 
     48 O          25.0723  -34.2894  -39.8861 O.2       7 UNK        -0.5147 
     49 N          24.2058  -32.5455  -41.0383 N.am      8 UNK        -0.4734 
     50 CA         23.9892  -33.2244  -42.3201 C.3       8 UNK         0.0238 
     51 CB         24.3773  -32.2530  -43.4498 C.3       8 UNK        -0.1912 
     52 C          22.5410  -33.7234  -42.4858 C.2       8 UNK         0.5038 
     53 O          22.1971  -34.2299  -43.5547 O.2       8 UNK        -0.5046 
     54 N          21.7181  -33.5451  -41.4460 N.am      9 UNK        -0.4200 
     55 CA         20.2932  -33.8936  -41.3847 C.3       9 UNK         0.0839 
     56 C          20.0237  -35.4131  -41.5533 C.2       9 UNK         0.5513 
     57 N          18.9260  -35.7802  -42.2001 N.am      9 UNK        -0.7519 
     58 O          20.7715  -36.2563  -41.0621 O.2       9 UNK        -0.4960 
     59 C59        19.6363  -33.3638  -40.0802 C.3       10 UNK        -0.0876 
     60 S60        20.0755  -31.6361  -39.6693 S.3       10 UNK        -0.2414 
     61 C61        18.6556  -30.6998  -40.3328 C.3       10 UNK         0.0169 
     62 H62        14.4470  -22.9204  -42.0533 H         1 UNK         0.0903 
     63 H63        15.6211  -23.9633  -41.2487 H         1 UNK         0.0903 
     64 H64        16.0817  -22.3316  -41.7378 H         1 UNK         0.0903 
     65 H65        16.4737  -25.5198  -42.6175 H         1 UNK         0.3096 
     66 H66        16.2257  -25.3977  -45.4789 H         1 UNK         0.1121 
     67 H67        17.4448  -27.5752  -45.4333 H         1 UNK         0.0849 
     68 H68        17.8208  -27.3605  -43.7397 H         1 UNK         0.0849 
     69 H69        15.1053  -30.3378  -44.0604 H         1 UNK         0.0865 
     70 H70        15.9185  -29.8355  -45.5211 H         1 UNK         0.0865 
     71 H71        16.4900  -30.1067  -41.8121 H         1 UNK         0.1346 
     72 H72        20.6742  -30.9656  -42.2596 H         1 UNK         0.1412 
     73 H73        18.2566  -30.2547  -45.7144 H         1 UNK         0.1426 
     74 H74        20.5522  -31.7106  -45.6709 H         1 UNK         0.0716 
     75 H75        21.6457  -31.2458  -44.3958 H         1 UNK         0.0716 
     76 H76        22.6934  -28.8026  -44.1201 H         1 UNK         0.0695 
     77 H77        21.0506  -28.2750  -43.8477 H         1 UNK         0.0695 
     78 H78        23.0457  -26.9828  -45.7903 H         1 UNK         0.0983 
     79 H79        20.2148  -26.7497  -45.7778 H         1 UNK         0.3095 
     80 H80        19.8498  -23.4448  -46.8117 H         1 UNK         0.0454 
     81 H81        20.6377  -24.3229  -49.0198 H         1 UNK         0.0851 
     82 H82        18.8874  -24.2392  -48.9515 H         1 UNK         0.0851 
     83 H83        19.7058  -25.7931  -48.7782 H         1 UNK         0.0851 
     84 H84        17.9357  -25.4495  -47.0169 H         1 UNK         0.2976 
     85 H85        20.8658  -25.2130  -43.6763 H         1 UNK         0.3116 
     86 H86        20.9661  -24.2278  -41.7012 H         1 UNK         0.0646 
     87 H87        24.0033  -24.0013  -42.0630 H         1 UNK         0.0847 
     88 H88        22.8213  -22.8650  -42.7118 H         1 UNK         0.0847 
     89 H89        23.0030  -23.0543  -40.9753 H         1 UNK         0.0847 
     90 H90        20.8194  -26.9303  -41.7739 H         1 UNK         0.3040 
     91 H91        20.8395  -28.8363  -40.7088 H         1 UNK         0.1015 
     92 H92        21.3320  -29.0154  -38.2754 H         1 UNK         0.0786 
     93 H93        20.2523  -27.6767  -38.6196 H         1 UNK         0.0786 
     94 H94        21.9452  -27.3696  -38.2511 H         1 UNK         0.0786 
     95 H95        23.8400  -27.3983  -39.4743 H         1 UNK         0.3172 
     96 H96        25.9821  -28.0260  -39.3916 H         1 UNK         0.0595 
     97 H97        25.4364  -28.8556  -42.2918 H         1 UNK         0.0839 
     98 H98        26.9997  -28.4033  -41.6246 H         1 UNK         0.0839 
     99 H99        25.7222  -27.2077  -41.7381 H         1 UNK         0.0839 
    100 H100       24.0945  -30.2539  -38.6753 H         1 UNK         0.2998 
    101 H101       23.9929  -32.3809  -38.0925 H         1 UNK         0.0822 
    102 H102       26.0133  -33.6316  -37.4673 H         1 UNK         0.0787 
    103 H103       26.1920  -31.9651  -36.9474 H         1 UNK         0.0787 
    104 H104       27.0388  -32.5399  -38.3834 H         1 UNK         0.0787 
    105 H105       23.9204  -31.5694  -41.0027 H         1 UNK         0.3055 
    106 H106       24.6349  -34.1025  -42.3915 H         1 UNK         0.1106 
    107 H107       25.4278  -31.9701  -43.3798 H         1 UNK         0.0828 
    108 H108       24.2301  -32.7043  -44.4318 H         1 UNK         0.0828 
    109 H109       23.7868  -31.3372  -43.4163 H         1 UNK         0.0828 
    110 H110       22.0976  -33.1149  -40.6169 H         1 UNK         0.2931 
    111 H111       19.8188  -33.3915  -42.2282 H         1 UNK         0.0412 
    112 H112       18.7235  -36.7625  -42.3049 H         1 UNK         0.3472 
    113 H113       18.3012  -35.0955  -42.5973 H         1 UNK         0.3472 
    114 H114       18.5503  -33.4556  -40.1400 H         1 UNK         0.0970 
    115 H115       19.9395  -33.9789  -39.2305 H         1 UNK         0.0970 
    116 H116       17.7383  -31.1521  -39.9527 H         1 UNK         0.0612 
    117 H117       18.6902  -29.6918  -39.9185 H         1 UNK         0.0612 
@<TRIPOS>BOND
     1    1    2 1    
     2    1   62 1    
     3    1   63 1    
     4    1   64 1    
     5    2    3 2    
     6    2    4 am   BACKBONE|DICT|INTERRES
     7    4    5 1    
     8    4   65 1    
     9    5    6 1    
    10    5   25 1    
    11    5   66 1    
    12    6    7 1    
    13    6   67 1    
    14    6   68 1    
    15    7    8 1    
    16    8    9 1    
    17    8   69 1    
    18    8   70 1    
    19    9   10 ar   
    20    9   14 ar   
    21   10   11 ar   
    22   10   71 1    
    23   11   12 ar   
    24   11   61 1    
    25   12   13 ar   
    26   12   72 1    
    27   13   14 ar   
    28   13   15 1    
    29   14   73 1    
    30   15   16 1    
    31   15   74 1    
    32   15   75 1    
    33   16   17 1    
    34   17   18 1    
    35   17   76 1    
    36   17   77 1    
    37   18   19 1    
    38   18   27 1    
    39   18   78 1    
    40   19   20 am   BACKBONE|DICT|INTERRES
    41   19   79 1    
    42   20   21 2    
    43   20   22 1    
    44   22   23 1    
    45   22   24 1    
    46   22   80 1    
    47   23   81 1    
    48   23   82 1    
    49   23   83 1    
    50   24   25 am   BACKBONE|DICT|INTERRES
    51   24   84 1    
    52   25   26 2    
    53   27   28 2    
    54   27   29 am   BACKBONE|DICT|INTERRES
    55   29   30 1    
    56   29   85 1    
    57   30   31 1    
    58   30   32 1    
    59   30   86 1    
    60   31   87 1    
    61   31   88 1    
    62   31   89 1    
    63   32   33 2    
    64   32   34 am   BACKBONE|DICT|INTERRES
    65   34   35 1    
    66   34   90 1    
    67   35   36 1    
    68   35   37 1    
    69   35   91 1    
    70   36   92 1    
    71   36   93 1    
    72   36   94 1    
    73   37   38 2    
    74   37   39 am   BACKBONE|DICT|INTERRES
    75   39   40 1    
    76   39   95 1    
    77   40   41 1    
    78   40   42 1    
    79   40   96 1    
    80   41   97 1    
    81   41   98 1    
    82   41   99 1    
    83   42   43 2    
    84   42   44 am   BACKBONE|DICT|INTERRES
    85   44   45 1    
    86   44  100 1    
    87   45   46 1    
    88   45   47 1    
    89   45  101 1    
    90   46  102 1    
    91   46  103 1    
    92   46  104 1    
    93   47   48 2    
    94   47   49 am   BACKBONE|DICT|INTERRES
    95   49   50 1    
    96   49  105 1    
    97   50   51 1    
    98   50   52 1    
    99   50  106 1    
   100   51  107 1    
   101   51  108 1    
   102   51  109 1    
   103   52   53 2    
   104   52   54 am   BACKBONE|DICT|INTERRES
   105   54   55 1    
   106   54  110 1    
   107   55   56 1    
   108   55   59 1    
   109   55  111 1    
   110   56   57 am   BACKBONE|DICT|INTERRES
   111   56   58 2    
   112   57  112 1    
   113   57  113 1    
   114   59   60 1    
   115   59  114 1    
   116   59  115 1    
   117   60   61 1    
   118   61  116 1    
   119   61  117 1    
@<TRIPOS>SUBSTRUCTURE
     1 UNK         1 GROUP             0       ****    0 ROOT    
