@<TRIPOS>MOLECULE
3R8
117   119    1
SMALL
USER_CHARGES


@<TRIPOS>ATOM
      1 CA         21.1711  -27.1049  -50.5769 C.3       0 UNK        -0.2013 
      2 C          20.4529  -27.4140  -49.2709 C.2       0 UNK         0.4866 
      3 O          19.2294  -27.3007  -49.2180 O.2       0 UNK        -0.5176 
      4 N          21.2170  -27.8056  -48.2409 N.am      1 UNK        -0.4884 
      5 CA         20.8045  -28.1206  -46.8636 C.3       1 UNK         0.0853 
      6 C6         19.7510  -29.2708  -46.7681 C.3       10 UNK        -0.0849 
      7 S7         17.9892  -28.8209  -46.5364 S.3       10 UNK        -0.2776 
      8 C8         17.3647  -30.2411  -45.5818 C.3       10 UNK         0.0316 
      9 C9         17.5883  -30.0724  -44.0853 C.ar      10 UNK        -0.0863 
     10 C10        18.7628  -30.5361  -43.4856 C.ar      10 UNK        -0.1009 
     11 C11        18.9545  -30.4059  -42.1084 C.ar      10 UNK        -0.0712 
     12 C12        17.9498  -29.8385  -41.3231 C.ar      10 UNK        -0.0894 
     13 C13        16.7949  -29.3222  -41.9139 C.ar      10 UNK        -0.0745 
     14 C14        16.6132  -29.4545  -43.2948 C.ar      10 UNK        -0.0972 
     15 C15        15.7579  -28.5952  -41.0700 C.3       10 UNK         0.0209 
     16 S16        15.8935  -26.7880  -41.2737 S.3       10 UNK        -0.2568 
     17 C17        17.0938  -26.2934  -39.9837 C.3       10 UNK        -0.0983 
     18 CA         18.5841  -26.5591  -40.3275 C.3       3 UNK         0.0876 
     19 N          18.9412  -26.1459  -41.6853 N.am      3 UNK        -0.4424 
     20 C          20.0197  -26.5694  -42.3539 C.2       2 UNK         0.4918 
     21 O          20.8414  -27.3826  -41.9193 O.2       2 UNK        -0.4875 
     22 CA         20.2334  -25.9453  -43.7336 C.3       2 UNK         0.0481 
     23 CB         21.3636  -24.8981  -43.6804 C.3       2 UNK        -0.1831 
     24 N          20.5293  -27.0024  -44.6977 N.am      2 UNK        -0.4498 
     25 C          20.4883  -26.8575  -46.0283 C.2       1 UNK         0.5027 
     26 O          20.2381  -25.7834  -46.5831 O.2       1 UNK        -0.4969 
     27 C          19.5217  -25.9040  -39.2949 C.2       3 UNK         0.5005 
     28 O          20.0607  -24.8247  -39.5544 O.2       3 UNK        -0.5279 
     29 N          19.7255  -26.5822  -38.1547 N.am      4 UNK        -0.4463 
     30 CA         20.6208  -26.2464  -37.0313 C.3       4 UNK         0.0283 
     31 CB         20.2601  -24.8888  -36.3968 C.3       4 UNK        -0.1875 
     32 C          22.1254  -26.3214  -37.3623 C.2       4 UNK         0.4949 
     33 O          22.9076  -26.7365  -36.5078 O.2       4 UNK        -0.5039 
     34 N          22.5030  -25.9595  -38.5942 N.am      5 UNK        -0.4663 
     35 CA         23.8574  -26.0564  -39.1450 C.3       5 UNK         0.0242 
     36 CB         23.9193  -25.2240  -40.4364 C.3       5 UNK        -0.1982 
     37 C          24.3109  -27.5015  -39.4262 C.2       5 UNK         0.5017 
     38 O          25.5115  -27.7272  -39.5786 O.2       5 UNK        -0.5012 
     39 N          23.3504  -28.4365  -39.5122 N.am      6 UNK        -0.4439 
     40 CA         23.5140  -29.8650  -39.8206 C.3       6 UNK         0.0297 
     41 CB         24.3805  -30.5756  -38.7592 C.3       6 UNK        -0.2006 
     42 C          24.0024  -30.1324  -41.2596 C.2       6 UNK         0.4892 
     43 O          24.5576  -31.2001  -41.5264 O.2       6 UNK        -0.5089 
     44 N          23.7851  -29.1701  -42.1677 N.am      7 UNK        -0.4243 
     45 CA         24.2033  -29.2444  -43.5653 C.3       7 UNK         0.0196 
     46 CB         24.1170  -27.8505  -44.2029 C.3       7 UNK        -0.2007 
     47 C          23.3473  -30.2619  -44.3292 C.2       7 UNK         0.5020 
     48 O          22.1242  -30.1268  -44.3546 O.2       7 UNK        -0.5147 
     49 N          24.0094  -31.2627  -44.9179 N.am      8 UNK        -0.4734 
     50 CA         23.4690  -32.4235  -45.6376 C.3       8 UNK         0.0238 
     51 CB         22.4943  -32.0224  -46.7634 C.3       8 UNK        -0.1912 
     52 C          22.8602  -33.5051  -44.7271 C.2       8 UNK         0.5038 
     53 O          23.1102  -34.6839  -44.9839 O.2       8 UNK        -0.5046 
     54 N          22.0896  -33.1199  -43.6979 N.am      9 UNK        -0.4200 
     55 CA         21.4794  -34.0693  -42.7472 C.3       9 UNK         0.0839 
     56 C          22.4565  -34.6619  -41.6898 C.2       9 UNK         0.5513 
     57 N          23.6114  -34.0589  -41.4330 N.am      9 UNK        -0.7519 
     58 O          22.1667  -35.7038  -41.1071 O.2       9 UNK        -0.4960 
     59 C59        20.1398  -33.5566  -42.1461 C.3       10 UNK        -0.0876 
     60 S60        20.2611  -32.4367  -40.7051 S.3       10 UNK        -0.2414 
     61 C61        20.2783  -30.7946  -41.4744 C.3       10 UNK         0.0169 
     62 H62        20.7939  -27.7461  -51.3732 H         1 UNK         0.0903 
     63 H63        20.9969  -26.0680  -50.8635 H         1 UNK         0.0903 
     64 H64        22.2475  -27.2585  -50.5006 H         1 UNK         0.0903 
     65 H65        22.2165  -27.8398  -48.3874 H         1 UNK         0.3096 
     66 H66        21.7232  -28.5138  -46.4255 H         1 UNK         0.1121 
     67 H67        19.8236  -29.9251  -47.6381 H         1 UNK         0.0849 
     68 H68        20.0316  -29.9006  -45.9283 H         1 UNK         0.0849 
     69 H69        16.2975  -30.3502  -45.7809 H         1 UNK         0.0865 
     70 H70        17.8290  -31.1626  -45.9369 H         1 UNK         0.0865 
     71 H71        19.5370  -30.9906  -44.0865 H         1 UNK         0.1346 
     72 H72        18.0931  -29.7558  -40.2550 H         1 UNK         0.1412 
     73 H73        15.7158  -29.0639  -43.7554 H         1 UNK         0.1426 
     74 H74        15.8469  -28.8626  -40.0160 H         1 UNK         0.0716 
     75 H75        14.7603  -28.9090  -41.3807 H         1 UNK         0.0716 
     76 H76        16.8242  -26.7896  -39.0497 H         1 UNK         0.0695 
     77 H77        16.9369  -25.2270  -39.8086 H         1 UNK         0.0695 
     78 H78        18.7655  -27.6280  -40.2631 H         1 UNK         0.0983 
     79 H79        18.3335  -25.4612  -42.1092 H         1 UNK         0.3095 
     80 H80        19.3086  -25.4520  -44.0409 H         1 UNK         0.0454 
     81 H81        22.3247  -25.3508  -43.4393 H         1 UNK         0.0851 
     82 H82        21.1605  -24.1452  -42.9175 H         1 UNK         0.0851 
     83 H83        21.4716  -24.3713  -44.6280 H         1 UNK         0.0851 
     84 H84        20.7284  -27.9104  -44.2916 H         1 UNK         0.2976 
     85 H85        19.2412  -27.4632  -38.0451 H         1 UNK         0.3116 
     86 H86        20.4364  -27.0130  -36.2767 H         1 UNK         0.0646 
     87 H87        19.2091  -24.8502  -36.1111 H         1 UNK         0.0847 
     88 H88        20.8474  -24.7156  -35.4941 H         1 UNK         0.0847 
     89 H89        20.4560  -24.0545  -37.0708 H         1 UNK         0.0847 
     90 H90        21.7841  -25.5650  -39.1956 H         1 UNK         0.3040 
     91 H91        24.5544  -25.6305  -38.4198 H         1 UNK         0.1015 
     92 H92        23.2270  -25.6025  -41.1892 H         1 UNK         0.0786 
     93 H93        24.9196  -25.2461  -40.8713 H         1 UNK         0.0786 
     94 H94        23.6716  -24.1791  -40.2482 H         1 UNK         0.0786 
     95 H95        22.3987  -28.1178  -39.3963 H         1 UNK         0.3172 
     96 H96        22.5211  -30.3045  -39.7509 H         1 UNK         0.0595 
     97 H97        25.4262  -30.2727  -38.8175 H         1 UNK         0.0839 
     98 H98        24.3511  -31.6576  -38.8942 H         1 UNK         0.0839 
     99 H99        24.0248  -30.3669  -37.7503 H         1 UNK         0.0839 
    100 H100       23.2468  -28.3602  -41.8935 H         1 UNK         0.2998 
    101 H101       25.2482  -29.5615  -43.5901 H         1 UNK         0.0822 
    102 H102       24.4175  -27.8786  -45.2511 H         1 UNK         0.0787 
    103 H103       23.1042  -27.4569  -44.1625 H         1 UNK         0.0787 
    104 H104       24.7711  -27.1412  -43.6953 H         1 UNK         0.0787 
    105 H105       25.0136  -31.2804  -44.7982 H         1 UNK         0.3055 
    106 H106       24.3343  -32.8840  -46.1183 H         1 UNK         0.1106 
    107 H107       22.9102  -31.2371  -47.3943 H         1 UNK         0.0828 
    108 H108       22.2784  -32.8762  -47.4068 H         1 UNK         0.0828 
    109 H109       21.5401  -31.6730  -46.3716 H         1 UNK         0.0828 
    110 H110       21.9363  -32.1312  -43.5479 H         1 UNK         0.2931 
    111 H111       21.1853  -34.9326  -43.3483 H         1 UNK         0.0412 
    112 H112       24.2327  -34.4669  -40.7532 H         1 UNK         0.3472 
    113 H113       23.8434  -33.1627  -41.8426 H         1 UNK         0.3472 
    114 H114       19.5234  -33.1074  -42.9234 H         1 UNK         0.0970 
    115 H115       19.5630  -34.4187  -41.8067 H         1 UNK         0.0970 
    116 H116       21.0859  -30.7502  -42.1993 H         1 UNK         0.0612 
    117 H117       20.5204  -30.0536  -40.7129 H         1 UNK         0.0612 
@<TRIPOS>BOND
     1    1    2 1    
     2    1   62 1    
     3    1   63 1    
     4    1   64 1    
     5    2    3 2    
     6    2    4 am   BACKBONE|DICT|INTERRES
     7    4    5 1    
     8    4   65 1    
     9    5    6 1    
    10    5   25 1    
    11    5   66 1    
    12    6    7 1    
    13    6   67 1    
    14    6   68 1    
    15    7    8 1    
    16    8    9 1    
    17    8   69 1    
    18    8   70 1    
    19    9   10 ar   
    20    9   14 ar   
    21   10   11 ar   
    22   10   71 1    
    23   11   12 ar   
    24   11   61 1    
    25   12   13 ar   
    26   12   72 1    
    27   13   14 ar   
    28   13   15 1    
    29   14   73 1    
    30   15   16 1    
    31   15   74 1    
    32   15   75 1    
    33   16   17 1    
    34   17   18 1    
    35   17   76 1    
    36   17   77 1    
    37   18   19 1    
    38   18   27 1    
    39   18   78 1    
    40   19   20 am   BACKBONE|DICT|INTERRES
    41   19   79 1    
    42   20   21 2    
    43   20   22 1    
    44   22   23 1    
    45   22   24 1    
    46   22   80 1    
    47   23   81 1    
    48   23   82 1    
    49   23   83 1    
    50   24   25 am   BACKBONE|DICT|INTERRES
    51   24   84 1    
    52   25   26 2    
    53   27   28 2    
    54   27   29 am   BACKBONE|DICT|INTERRES
    55   29   30 1    
    56   29   85 1    
    57   30   31 1    
    58   30   32 1    
    59   30   86 1    
    60   31   87 1    
    61   31   88 1    
    62   31   89 1    
    63   32   33 2    
    64   32   34 am   BACKBONE|DICT|INTERRES
    65   34   35 1    
    66   34   90 1    
    67   35   36 1    
    68   35   37 1    
    69   35   91 1    
    70   36   92 1    
    71   36   93 1    
    72   36   94 1    
    73   37   38 2    
    74   37   39 am   BACKBONE|DICT|INTERRES
    75   39   40 1    
    76   39   95 1    
    77   40   41 1    
    78   40   42 1    
    79   40   96 1    
    80   41   97 1    
    81   41   98 1    
    82   41   99 1    
    83   42   43 2    
    84   42   44 am   BACKBONE|DICT|INTERRES
    85   44   45 1    
    86   44  100 1    
    87   45   46 1    
    88   45   47 1    
    89   45  101 1    
    90   46  102 1    
    91   46  103 1    
    92   46  104 1    
    93   47   48 2    
    94   47   49 am   BACKBONE|DICT|INTERRES
    95   49   50 1    
    96   49  105 1    
    97   50   51 1    
    98   50   52 1    
    99   50  106 1    
   100   51  107 1    
   101   51  108 1    
   102   51  109 1    
   103   52   53 2    
   104   52   54 am   BACKBONE|DICT|INTERRES
   105   54   55 1    
   106   54  110 1    
   107   55   56 1    
   108   55   59 1    
   109   55  111 1    
   110   56   57 am   BACKBONE|DICT|INTERRES
   111   56   58 2    
   112   57  112 1    
   113   57  113 1    
   114   59   60 1    
   115   59  114 1    
   116   59  115 1    
   117   60   61 1    
   118   61  116 1    
   119   61  117 1    
@<TRIPOS>SUBSTRUCTURE
     1 UNK         1 GROUP             0       ****    0 ROOT    
