@<TRIPOS>MOLECULE
3R8
117   119    1
SMALL
USER_CHARGES


@<TRIPOS>ATOM
      1 CA         13.9745  -28.0295  -43.6632 C.3       0 UNK        -0.2013 
      2 C          15.4864  -27.8891  -43.7471 C.2       0 UNK         0.4866 
      3 O          16.0837  -28.2819  -44.7499 O.2       0 UNK        -0.5176 
      4 N          16.1140  -27.3234  -42.7071 N.am      1 UNK        -0.4884 
      5 CA         17.5623  -27.1134  -42.6021 C.3       1 UNK         0.0853 
      6 C6         18.0169  -27.0837  -41.1188 C.3       10 UNK        -0.0849 
      7 S7         19.8154  -27.3292  -40.9037 S.3       10 UNK        -0.2776 
      8 C8         19.9336  -29.1384  -40.7221 C.3       10 UNK         0.0316 
      9 C9         19.7285  -29.8369  -42.0573 C.ar      10 UNK        -0.0863 
     10 C10        18.5327  -30.4997  -42.3449 C.ar      10 UNK        -0.1009 
     11 C11        18.3431  -31.1048  -43.5915 C.ar      10 UNK        -0.0712 
     12 C12        19.3499  -31.0232  -44.5594 C.ar      10 UNK        -0.0894 
     13 C13        20.5590  -30.3808  -44.2750 C.ar      10 UNK        -0.0745 
     14 C14        20.7437  -29.8059  -43.0148 C.ar      10 UNK        -0.0972 
     15 C15        21.6743  -30.3482  -45.3133 C.3       10 UNK         0.0209 
     16 S16        21.6247  -28.8504  -46.3542 S.3       10 UNK        -0.2568 
     17 C17        22.4677  -27.6294  -45.2898 C.3       10 UNK        -0.0983 
     18 CA         21.9985  -26.1676  -45.4975 C.3       3 UNK         0.0876 
     19 N          20.5379  -26.0424  -45.4983 N.am      3 UNK        -0.4424 
     20 C          19.8527  -24.9456  -45.8532 C.2       2 UNK         0.4918 
     21 O          20.3781  -23.9063  -46.2525 O.2       2 UNK        -0.4875 
     22 CA         18.3181  -25.0178  -45.7439 C.3       2 UNK         0.0481 
     23 CB         17.6979  -25.3505  -47.1097 C.3       2 UNK        -0.1831 
     24 N          17.8585  -25.9972  -44.7563 N.am      2 UNK        -0.4498 
     25 C          18.0177  -25.8929  -43.4304 C.2       1 UNK         0.5027 
     26 O          18.4988  -24.9012  -42.8798 O.2       1 UNK        -0.4969 
     27 C          22.6544  -25.2646  -44.4313 C.2       3 UNK         0.5005 
     28 O          23.7206  -24.7012  -44.6853 O.2       3 UNK        -0.5279 
     29 N          22.0047  -25.1636  -43.2593 N.am      4 UNK        -0.4463 
     30 CA         22.3834  -24.4301  -42.0448 C.3       4 UNK         0.0283 
     31 CB         22.4446  -22.9109  -42.2983 C.3       4 UNK        -0.1875 
     32 C          23.6685  -24.9444  -41.3703 C.2       4 UNK         0.4949 
     33 O          23.6199  -25.3717  -40.2173 O.2       4 UNK        -0.5039 
     34 N          24.7923  -24.8973  -42.0916 N.am      5 UNK        -0.4663 
     35 CA         26.1173  -25.3175  -41.6383 C.3       5 UNK         0.0242 
     36 CB         27.1627  -24.3356  -42.2005 C.3       5 UNK        -0.1982 
     37 C          26.3807  -26.7717  -42.0619 C.2       5 UNK         0.5017 
     38 O          27.2550  -27.0257  -42.8930 O.2       5 UNK        -0.5012 
     39 N          25.6000  -27.7007  -41.5018 N.am      6 UNK        -0.4439 
     40 CA         25.6660  -29.1376  -41.7582 C.3       6 UNK         0.0297 
     41 CB         24.9919  -29.4614  -43.1064 C.3       6 UNK        -0.2006 
     42 C          24.9944  -29.8889  -40.6000 C.2       6 UNK         0.4892 
     43 O          24.4212  -29.2573  -39.7074 O.2       6 UNK        -0.5089 
     44 N          25.0749  -31.2256  -40.6441 N.am      7 UNK        -0.4243 
     45 CA         24.3887  -32.1444  -39.7304 C.3       7 UNK         0.0196 
     46 CB         24.9101  -33.5699  -39.9795 C.3       7 UNK        -0.2007 
     47 C          22.8586  -32.0955  -39.8974 C.2       7 UNK         0.5020 
     48 O          22.3666  -31.6431  -40.9323 O.2       7 UNK        -0.5147 
     49 N          22.1339  -32.5805  -38.8810 N.am      8 UNK        -0.4734 
     50 CA         20.6688  -32.5747  -38.7841 C.3       8 UNK         0.0238 
     51 CB         20.2716  -32.8166  -37.3153 C.3       8 UNK        -0.1912 
     52 C          19.9722  -33.5556  -39.7528 C.2       8 UNK         0.5038 
     53 O          19.3057  -34.4934  -39.3095 O.2       8 UNK        -0.5046 
     54 N          20.1235  -33.2994  -41.0556 N.am      9 UNK        -0.4200 
     55 CA         19.5430  -34.0436  -42.1802 C.3       9 UNK         0.0839 
     56 C          20.1087  -35.4862  -42.3435 C.2       9 UNK         0.5513 
     57 N          19.4941  -36.3088  -43.1829 N.am      9 UNK        -0.7519 
     58 O          21.1241  -35.8582  -41.7579 O.2       9 UNK        -0.4960 
     59 C59        17.9833  -33.9565  -42.2007 C.3       10 UNK        -0.0876 
     60 S60        17.3263  -33.6738  -43.8820 S.3       10 UNK        -0.2414 
     61 C61        17.0593  -31.8680  -43.8843 C.3       10 UNK         0.0169 
     62 H62        13.5797  -27.6444  -42.7232 H         1 UNK         0.0903 
     63 H63        13.5017  -27.4840  -44.4794 H         1 UNK         0.0903 
     64 H64        13.6916  -29.0786  -43.7455 H         1 UNK         0.0903 
     65 H65        15.5668  -26.9837  -41.9283 H         1 UNK         0.3096 
     66 H66        18.0446  -27.9706  -43.0718 H         1 UNK         0.1121 
     67 H67        17.7313  -26.1436  -40.6431 H         1 UNK         0.0849 
     68 H68        17.5017  -27.8634  -40.5558 H         1 UNK         0.0849 
     69 H69        19.2156  -29.4868  -39.9784 H         1 UNK         0.0865 
     70 H70        20.9226  -29.3863  -40.3333 H         1 UNK         0.0865 
     71 H71        17.7495  -30.5433  -41.6006 H         1 UNK         0.1346 
     72 H72        19.2011  -31.4882  -45.5243 H         1 UNK         0.1412 
     73 H73        21.6784  -29.3310  -42.7607 H         1 UNK         0.1426 
     74 H74        21.5929  -31.2209  -45.9630 H         1 UNK         0.0716 
     75 H75        22.6477  -30.4298  -44.8282 H         1 UNK         0.0716 
     76 H76        23.5410  -27.7094  -45.4729 H         1 UNK         0.0695 
     77 H77        22.3202  -27.9136  -44.2511 H         1 UNK         0.0695 
     78 H78        22.3541  -25.8320  -46.4742 H         1 UNK         0.0983 
     79 H79        20.0218  -26.8694  -45.2374 H         1 UNK         0.3095 
     80 H80        17.9608  -24.0330  -45.4360 H         1 UNK         0.0454 
     81 H81        18.0073  -26.3341  -47.4656 H         1 UNK         0.0851 
     82 H82        17.9990  -24.6215  -47.8634 H         1 UNK         0.0851 
     83 H83        16.6087  -25.3370  -47.0652 H         1 UNK         0.0851 
     84 H84        17.3880  -26.8287  -45.1041 H         1 UNK         0.2976 
     85 H85        21.1362  -25.6743  -43.1762 H         1 UNK         0.3116 
     86 H86        21.5703  -24.6040  -41.3376 H         1 UNK         0.0646 
     87 H87        22.6547  -22.3712  -41.3740 H         1 UNK         0.0847 
     88 H88        21.4950  -22.5380  -42.6822 H         1 UNK         0.0847 
     89 H89        23.2220  -22.6417  -43.0136 H         1 UNK         0.0847 
     90 H90        24.7010  -24.6313  -43.0699 H         1 UNK         0.3040 
     91 H91        26.1735  -25.2762  -40.5480 H         1 UNK         0.1015 
     92 H92        26.9798  -23.3201  -41.8488 H         1 UNK         0.0786 
     93 H93        27.1563  -24.3175  -43.2913 H         1 UNK         0.0786 
     94 H94        28.1691  -24.6114  -41.8828 H         1 UNK         0.0786 
     95 H95        24.9229  -27.4310  -40.7950 H         1 UNK         0.3172 
     96 H96        26.7136  -29.4441  -41.7906 H         1 UNK         0.0595 
     97 H97        23.9398  -29.1848  -43.0923 H         1 UNK         0.0839 
     98 H98        25.0461  -30.5253  -43.3389 H         1 UNK         0.0839 
     99 H99        25.4659  -28.9311  -43.9324 H         1 UNK         0.0839 
    100 H100       25.5478  -31.6506  -41.4278 H         1 UNK         0.2998 
    101 H101       24.6325  -31.8489  -38.7077 H         1 UNK         0.0822 
    102 H102       25.9899  -33.6285  -39.8406 H         1 UNK         0.0787 
    103 H103       24.4588  -34.2824  -39.2877 H         1 UNK         0.0787 
    104 H104       24.6817  -33.9110  -40.9903 H         1 UNK         0.0787 
    105 H105       22.6256  -32.9740  -38.0912 H         1 UNK         0.3055 
    106 H106       20.3202  -31.5760  -39.0527 H         1 UNK         0.1106 
    107 H107       19.1883  -32.7789  -37.1916 H         1 UNK         0.0828 
    108 H108       20.6059  -33.7927  -36.9614 H         1 UNK         0.0828 
    109 H109       20.6949  -32.0570  -36.6579 H         1 UNK         0.0828 
    110 H110       20.7709  -32.5554  -41.3057 H         1 UNK         0.2931 
    111 H111       19.9300  -33.5065  -43.0464 H         1 UNK         0.0412 
    112 H112       19.8547  -37.2408  -43.3170 H         1 UNK         0.3472 
    113 H113       18.6785  -36.0024  -43.6921 H         1 UNK         0.3472 
    114 H114       17.6296  -33.1459  -41.5626 H         1 UNK         0.0970 
    115 H115       17.5297  -34.8562  -41.7808 H         1 UNK         0.0970 
    116 H116       16.2849  -31.6178  -43.1575 H         1 UNK         0.0612 
    117 H117       16.6730  -31.5656  -44.8587 H         1 UNK         0.0612 
@<TRIPOS>BOND
     1    1    2 1    
     2    1   62 1    
     3    1   63 1    
     4    1   64 1    
     5    2    3 2    
     6    2    4 am   BACKBONE|DICT|INTERRES
     7    4    5 1    
     8    4   65 1    
     9    5    6 1    
    10    5   25 1    
    11    5   66 1    
    12    6    7 1    
    13    6   67 1    
    14    6   68 1    
    15    7    8 1    
    16    8    9 1    
    17    8   69 1    
    18    8   70 1    
    19    9   10 ar   
    20    9   14 ar   
    21   10   11 ar   
    22   10   71 1    
    23   11   12 ar   
    24   11   61 1    
    25   12   13 ar   
    26   12   72 1    
    27   13   14 ar   
    28   13   15 1    
    29   14   73 1    
    30   15   16 1    
    31   15   74 1    
    32   15   75 1    
    33   16   17 1    
    34   17   18 1    
    35   17   76 1    
    36   17   77 1    
    37   18   19 1    
    38   18   27 1    
    39   18   78 1    
    40   19   20 am   BACKBONE|DICT|INTERRES
    41   19   79 1    
    42   20   21 2    
    43   20   22 1    
    44   22   23 1    
    45   22   24 1    
    46   22   80 1    
    47   23   81 1    
    48   23   82 1    
    49   23   83 1    
    50   24   25 am   BACKBONE|DICT|INTERRES
    51   24   84 1    
    52   25   26 2    
    53   27   28 2    
    54   27   29 am   BACKBONE|DICT|INTERRES
    55   29   30 1    
    56   29   85 1    
    57   30   31 1    
    58   30   32 1    
    59   30   86 1    
    60   31   87 1    
    61   31   88 1    
    62   31   89 1    
    63   32   33 2    
    64   32   34 am   BACKBONE|DICT|INTERRES
    65   34   35 1    
    66   34   90 1    
    67   35   36 1    
    68   35   37 1    
    69   35   91 1    
    70   36   92 1    
    71   36   93 1    
    72   36   94 1    
    73   37   38 2    
    74   37   39 am   BACKBONE|DICT|INTERRES
    75   39   40 1    
    76   39   95 1    
    77   40   41 1    
    78   40   42 1    
    79   40   96 1    
    80   41   97 1    
    81   41   98 1    
    82   41   99 1    
    83   42   43 2    
    84   42   44 am   BACKBONE|DICT|INTERRES
    85   44   45 1    
    86   44  100 1    
    87   45   46 1    
    88   45   47 1    
    89   45  101 1    
    90   46  102 1    
    91   46  103 1    
    92   46  104 1    
    93   47   48 2    
    94   47   49 am   BACKBONE|DICT|INTERRES
    95   49   50 1    
    96   49  105 1    
    97   50   51 1    
    98   50   52 1    
    99   50  106 1    
   100   51  107 1    
   101   51  108 1    
   102   51  109 1    
   103   52   53 2    
   104   52   54 am   BACKBONE|DICT|INTERRES
   105   54   55 1    
   106   54  110 1    
   107   55   56 1    
   108   55   59 1    
   109   55  111 1    
   110   56   57 am   BACKBONE|DICT|INTERRES
   111   56   58 2    
   112   57  112 1    
   113   57  113 1    
   114   59   60 1    
   115   59  114 1    
   116   59  115 1    
   117   60   61 1    
   118   61  116 1    
   119   61  117 1    
@<TRIPOS>SUBSTRUCTURE
     1 UNK         1 GROUP             0       ****    0 ROOT    
