@<TRIPOS>MOLECULE
3R8
117   119    1
SMALL
USER_CHARGES


@<TRIPOS>ATOM
      1 CA         16.7365  -26.7667  -49.3965 C.3       0 UNK        -0.2013 
      2 C          17.7656  -25.8028  -48.8255 C.2       0 UNK         0.4866 
      3 O          18.5738  -25.2539  -49.5748 O.2       0 UNK        -0.5176 
      4 N          17.7412  -25.5934  -47.5061 N.am      1 UNK        -0.4884 
      5 CA         18.6119  -24.6796  -46.7671 C.3       1 UNK         0.0853 
      6 C6         20.0855  -25.1872  -46.6579 C.3       10 UNK        -0.0849 
      7 S7         20.3984  -26.4613  -45.3860 S.3       10 UNK        -0.2776 
      8 C8         20.0655  -28.0002  -46.2929 C.3       10 UNK         0.0316 
      9 C9         19.6898  -29.0820  -45.2982 C.ar      10 UNK        -0.0863 
     10 C10        20.6780  -29.8844  -44.7225 C.ar      10 UNK        -0.1009 
     11 C11        20.3510  -30.7991  -43.7175 C.ar      10 UNK        -0.0712 
     12 C12        19.0199  -30.9226  -43.3080 C.ar      10 UNK        -0.0894 
     13 C13        18.0220  -30.1320  -43.8870 C.ar      10 UNK        -0.0745 
     14 C14        18.3599  -29.2230  -44.8929 C.ar      10 UNK        -0.0972 
     15 C15        16.5918  -30.2147  -43.3777 C.3       10 UNK         0.0209 
     16 S16        16.4403  -29.4917  -41.7116 S.3       10 UNK        -0.2568 
     17 C17        16.6626  -27.7027  -42.0204 C.3       10 UNK        -0.0983 
     18 CA         18.1404  -27.2168  -41.9546 C.3       3 UNK         0.0876 
     19 N          18.3424  -25.9312  -42.6372 N.am      3 UNK        -0.4424 
     20 C          17.8372  -24.7449  -42.2624 C.2       2 UNK         0.4918 
     21 O          17.0999  -24.5887  -41.2889 O.2       2 UNK        -0.4875 
     22 CA         18.2251  -23.5075  -43.0994 C.3       2 UNK         0.0481 
     23 CB         19.3206  -22.7081  -42.3746 C.3       2 UNK        -0.1831 
     24 N          18.6788  -23.8093  -44.4617 N.am      2 UNK        -0.4498 
     25 C          17.9178  -24.3418  -45.4287 C.2       1 UNK         0.5027 
     26 O          16.7166  -24.5905  -45.2855 O.2       1 UNK        -0.4969 
     27 C          18.7765  -27.2167  -40.5445 C.2       3 UNK         0.5005 
     28 O          18.1743  -27.6707  -39.5694 O.2       3 UNK        -0.5279 
     29 N          20.0046  -26.6918  -40.4726 N.am      4 UNK        -0.4463 
     30 CA         20.8638  -26.6414  -39.2973 C.3       4 UNK         0.0283 
     31 CB         20.4119  -25.5162  -38.3481 C.3       4 UNK        -0.1875 
     32 C          22.2923  -26.3960  -39.7901 C.2       4 UNK         0.4949 
     33 O          22.4662  -25.7716  -40.8396 O.2       4 UNK        -0.5039 
     34 N          23.2811  -26.8904  -39.0334 N.am      5 UNK        -0.4663 
     35 CA         24.7393  -26.7251  -39.1863 C.3       5 UNK         0.0242 
     36 CB         25.1334  -25.2441  -39.0180 C.3       5 UNK        -0.1982 
     37 C          25.3823  -27.3083  -40.4638 C.2       5 UNK         0.5017 
     38 O          26.5642  -27.6508  -40.4208 O.2       5 UNK        -0.5012 
     39 N          24.6234  -27.3978  -41.5635 N.am      6 UNK        -0.4439 
     40 CA         25.0544  -27.8246  -42.8983 C.3       6 UNK         0.0297 
     41 CB         23.8609  -27.7320  -43.8643 C.3       6 UNK        -0.2006 
     42 C          25.6855  -29.2271  -42.9521 C.2       6 UNK         0.4892 
     43 O          26.7029  -29.4017  -43.6243 O.2       6 UNK        -0.5089 
     44 N          25.0834  -30.1854  -42.2393 N.am      7 UNK        -0.4243 
     45 CA         25.5276  -31.5704  -42.1019 C.3       7 UNK         0.0196 
     46 CB         25.3952  -32.3325  -43.4382 C.3       7 UNK        -0.2007 
     47 C          24.6923  -32.2416  -41.0062 C.2       7 UNK         0.5020 
     48 O          23.6444  -31.7167  -40.6196 O.2       7 UNK        -0.5147 
     49 N          25.1495  -33.4085  -40.5405 N.am      8 UNK        -0.4734 
     50 CA         24.4507  -34.2487  -39.5653 C.3       8 UNK         0.0238 
     51 CB         25.4914  -35.0626  -38.7724 C.3       8 UNK        -0.1912 
     52 C          23.4078  -35.1410  -40.2655 C.2       8 UNK         0.5038 
     53 O          23.5746  -36.3615  -40.3124 O.2       8 UNK        -0.5046 
     54 N          22.3682  -34.5106  -40.8268 N.am      9 UNK        -0.4200 
     55 CA         21.2747  -35.1779  -41.5579 C.3       9 UNK         0.0839 
     56 C          20.3017  -36.0058  -40.6674 C.2       9 UNK         0.5513 
     57 N          20.3136  -35.8580  -39.3479 N.am      9 UNK        -0.7519 
     58 O          19.5221  -36.8000  -41.1872 O.2       9 UNK        -0.4960 
     59 C59        20.4814  -34.1926  -42.4574 C.3       10 UNK        -0.0876 
     60 S60        21.5421  -33.3081  -43.6524 S.3       10 UNK        -0.2414 
     61 C61        21.4492  -31.5993  -43.0349 C.3       10 UNK         0.0169 
     62 H62        16.1098  -27.2025  -48.6184 H         1 UNK         0.0903 
     63 H63        16.0892  -26.2490  -50.1037 H         1 UNK         0.0903 
     64 H64        17.2359  -27.5796  -49.9230 H         1 UNK         0.0903 
     65 H65        17.0066  -25.9944  -46.9354 H         1 UNK         0.3096 
     66 H66        18.6285  -23.7402  -47.3246 H         1 UNK         0.1121 
     67 H67        20.4395  -25.5549  -47.6221 H         1 UNK         0.0849 
     68 H68        20.7383  -24.3432  -46.4305 H         1 UNK         0.0849 
     69 H69        19.2562  -27.8571  -47.0091 H         1 UNK         0.0865 
     70 H70        20.9462  -28.2872  -46.8694 H         1 UNK         0.0865 
     71 H71        21.7082  -29.7663  -45.0290 H         1 UNK         0.1346 
     72 H72        18.7595  -31.6068  -42.5133 H         1 UNK         0.1412 
     73 H73        17.5979  -28.5865  -45.3218 H         1 UNK         0.1426 
     74 H74        16.2853  -31.2609  -43.3384 H         1 UNK         0.0716 
     75 H75        15.8993  -29.7171  -44.0585 H         1 UNK         0.0716 
     76 H76        16.0484  -27.1518  -41.3062 H         1 UNK         0.0695 
     77 H77        16.2433  -27.4788  -43.0025 H         1 UNK         0.0695 
     78 H78        18.7456  -27.9240  -42.5191 H         1 UNK         0.0983 
     79 H79        18.9393  -25.9565  -43.4538 H         1 UNK         0.3095 
     80 H80        17.3377  -22.8759  -43.1770 H         1 UNK         0.0454 
     81 H81        20.2435  -23.2817  -42.2774 H         1 UNK         0.0851 
     82 H82        19.0026  -22.4335  -41.3677 H         1 UNK         0.0851 
     83 H83        19.5526  -21.7820  -42.9007 H         1 UNK         0.0851 
     84 H84        19.6580  -23.6516  -44.6531 H         1 UNK         0.2976 
     85 H85        20.4468  -26.3311  -41.3100 H         1 UNK         0.3116 
     86 H86        20.8223  -27.6035  -38.7822 H         1 UNK         0.0646 
     87 H87        20.4257  -24.5441  -38.8429 H         1 UNK         0.0847 
     88 H88        21.0668  -25.4500  -37.4784 H         1 UNK         0.0847 
     89 H89        19.4011  -25.6873  -37.9778 H         1 UNK         0.0847 
     90 H90        23.0087  -27.4241  -38.2184 H         1 UNK         0.3040 
     91 H91        25.1834  -27.2760  -38.3551 H         1 UNK         0.1015 
     92 H92        24.7747  -24.8431  -38.0700 H         1 UNK         0.0786 
     93 H93        24.7312  -24.6226  -39.8188 H         1 UNK         0.0786 
     94 H94        26.2177  -25.1241  -39.0296 H         1 UNK         0.0786 
     95 H95        23.6956  -26.9883  -41.4915 H         1 UNK         0.3172 
     96 H96        25.8139  -27.1142  -43.2307 H         1 UNK         0.0595 
     97 H97        23.0286  -28.3552  -43.5364 H         1 UNK         0.0839 
     98 H98        24.1389  -28.0573  -44.8678 H         1 UNK         0.0839 
     99 H99        23.4949  -26.7083  -43.9479 H         1 UNK         0.0839 
    100 H100       24.2680  -29.9590  -41.6824 H         1 UNK         0.2998 
    101 H101       26.5715  -31.5685  -41.7816 H         1 UNK         0.0822 
    102 H102       26.0617  -31.9284  -44.1997 H         1 UNK         0.0787 
    103 H103       25.6517  -33.3862  -43.3236 H         1 UNK         0.0787 
    104 H104       24.3804  -32.2876  -43.8311 H         1 UNK         0.0787 
    105 H105       25.9983  -33.7903  -40.9343 H         1 UNK         0.3055 
    106 H106       23.9150  -33.6154  -38.8538 H         1 UNK         0.1106 
    107 H107       25.0068  -35.6938  -38.0263 H         1 UNK         0.0828 
    108 H108       26.0777  -35.7154  -39.4204 H         1 UNK         0.0828 
    109 H109       26.1834  -34.4095  -38.2405 H         1 UNK         0.0828 
    110 H110       22.3371  -33.5002  -40.7797 H         1 UNK         0.2931 
    111 H111       21.7460  -35.9027  -42.2250 H         1 UNK         0.0412 
    112 H112       20.9467  -35.2084  -38.9102 H         1 UNK         0.3472 
    113 H113       19.6800  -36.4033  -38.7841 H         1 UNK         0.3472 
    114 H114       19.7268  -34.7302  -43.0350 H         1 UNK         0.0970 
    115 H115       19.9313  -33.4823  -41.8396 H         1 UNK         0.0970 
    116 H116       21.2991  -31.5905  -41.9547 H         1 UNK         0.0612 
    117 H117       22.4132  -31.1186  -43.2028 H         1 UNK         0.0612 
@<TRIPOS>BOND
     1    1    2 1    
     2    1   62 1    
     3    1   63 1    
     4    1   64 1    
     5    2    3 2    
     6    2    4 am   BACKBONE|DICT|INTERRES
     7    4    5 1    
     8    4   65 1    
     9    5    6 1    
    10    5   25 1    
    11    5   66 1    
    12    6    7 1    
    13    6   67 1    
    14    6   68 1    
    15    7    8 1    
    16    8    9 1    
    17    8   69 1    
    18    8   70 1    
    19    9   10 ar   
    20    9   14 ar   
    21   10   11 ar   
    22   10   71 1    
    23   11   12 ar   
    24   11   61 1    
    25   12   13 ar   
    26   12   72 1    
    27   13   14 ar   
    28   13   15 1    
    29   14   73 1    
    30   15   16 1    
    31   15   74 1    
    32   15   75 1    
    33   16   17 1    
    34   17   18 1    
    35   17   76 1    
    36   17   77 1    
    37   18   19 1    
    38   18   27 1    
    39   18   78 1    
    40   19   20 am   BACKBONE|DICT|INTERRES
    41   19   79 1    
    42   20   21 2    
    43   20   22 1    
    44   22   23 1    
    45   22   24 1    
    46   22   80 1    
    47   23   81 1    
    48   23   82 1    
    49   23   83 1    
    50   24   25 am   BACKBONE|DICT|INTERRES
    51   24   84 1    
    52   25   26 2    
    53   27   28 2    
    54   27   29 am   BACKBONE|DICT|INTERRES
    55   29   30 1    
    56   29   85 1    
    57   30   31 1    
    58   30   32 1    
    59   30   86 1    
    60   31   87 1    
    61   31   88 1    
    62   31   89 1    
    63   32   33 2    
    64   32   34 am   BACKBONE|DICT|INTERRES
    65   34   35 1    
    66   34   90 1    
    67   35   36 1    
    68   35   37 1    
    69   35   91 1    
    70   36   92 1    
    71   36   93 1    
    72   36   94 1    
    73   37   38 2    
    74   37   39 am   BACKBONE|DICT|INTERRES
    75   39   40 1    
    76   39   95 1    
    77   40   41 1    
    78   40   42 1    
    79   40   96 1    
    80   41   97 1    
    81   41   98 1    
    82   41   99 1    
    83   42   43 2    
    84   42   44 am   BACKBONE|DICT|INTERRES
    85   44   45 1    
    86   44  100 1    
    87   45   46 1    
    88   45   47 1    
    89   45  101 1    
    90   46  102 1    
    91   46  103 1    
    92   46  104 1    
    93   47   48 2    
    94   47   49 am   BACKBONE|DICT|INTERRES
    95   49   50 1    
    96   49  105 1    
    97   50   51 1    
    98   50   52 1    
    99   50  106 1    
   100   51  107 1    
   101   51  108 1    
   102   51  109 1    
   103   52   53 2    
   104   52   54 am   BACKBONE|DICT|INTERRES
   105   54   55 1    
   106   54  110 1    
   107   55   56 1    
   108   55   59 1    
   109   55  111 1    
   110   56   57 am   BACKBONE|DICT|INTERRES
   111   56   58 2    
   112   57  112 1    
   113   57  113 1    
   114   59   60 1    
   115   59  114 1    
   116   59  115 1    
   117   60   61 1    
   118   61  116 1    
   119   61  117 1    
@<TRIPOS>SUBSTRUCTURE
     1 UNK         1 GROUP             0       ****    0 ROOT    
