@<TRIPOS>MOLECULE
3R8
117   119    1
SMALL
USER_CHARGES


@<TRIPOS>ATOM
      1 CA         16.2135  -22.1468  -43.0001 C.3       0 UNK        -0.2013 
      2 C          16.2951  -23.2893  -44.0014 C.2       0 UNK         0.4866 
      3 O          15.7810  -23.1632  -45.1126 O.2       0 UNK        -0.5176 
      4 N          16.9290  -24.4018  -43.6079 N.am      1 UNK        -0.4884 
      5 CA         17.1591  -25.5964  -44.4299 C.3       1 UNK         0.0853 
      6 C6         17.7602  -26.7687  -43.6123 C.3       10 UNK        -0.0849 
      7 S7         16.4823  -27.7226  -42.7327 S.3       10 UNK        -0.2776 
      8 C8         15.8802  -28.8364  -44.0485 C.3       10 UNK         0.0316 
      9 C9         16.9751  -29.7530  -44.5761 C.ar      10 UNK        -0.0863 
     10 C10        17.3620  -30.8757  -43.8395 C.ar      10 UNK        -0.1009 
     11 C11        18.3771  -31.7146  -44.3068 C.ar      10 UNK        -0.0712 
     12 C12        19.0072  -31.4218  -45.5199 C.ar      10 UNK        -0.0894 
     13 C13        18.6389  -30.2936  -46.2605 C.ar      10 UNK        -0.0745 
     14 C14        17.6074  -29.4744  -45.7935 C.ar      10 UNK        -0.0972 
     15 C15        19.3585  -29.9620  -47.5630 C.3       10 UNK         0.0209 
     16 S16        20.4211  -28.4810  -47.4340 S.3       10 UNK        -0.2568 
     17 C17        21.6100  -28.9562  -46.1238 C.3       10 UNK        -0.0983 
     18 CA         21.9750  -27.8360  -45.0988 C.3       3 UNK         0.0876 
     19 N          21.0243  -26.7114  -45.0735 N.am      3 UNK        -0.4424 
     20 C          21.0635  -25.6331  -44.2728 C.2       2 UNK         0.4918 
     21 O          21.8564  -25.5040  -43.3414 O.2       2 UNK        -0.4875 
     22 CA         20.0502  -24.5022  -44.5384 C.3       2 UNK         0.0481 
     23 CB         20.7822  -23.1720  -44.7816 C.3       2 UNK        -0.1831 
     24 N          19.1860  -24.7749  -45.6929 N.am      2 UNK        -0.4498 
     25 C          17.9592  -25.3215  -45.7282 C.2       1 UNK         0.5027 
     26 O          17.4366  -25.6112  -46.8028 O.2       1 UNK        -0.4969 
     27 C          22.2311  -28.4541  -43.7099 C.2       3 UNK         0.5005 
     28 O          23.3826  -28.7094  -43.3528 O.2       3 UNK        -0.5279 
     29 N          21.1492  -28.6352  -42.9387 N.am      4 UNK        -0.4463 
     30 CA         21.1381  -29.1880  -41.5828 C.3       4 UNK         0.0283 
     31 CB         19.6881  -29.2790  -41.0850 C.3       4 UNK        -0.1875 
     32 C          22.0083  -28.4341  -40.5629 C.2       4 UNK         0.4949 
     33 O          22.4330  -29.0503  -39.5876 O.2       4 UNK        -0.5039 
     34 N          22.3026  -27.1476  -40.8047 N.am      5 UNK        -0.4663 
     35 CA         23.2209  -26.3571  -39.9782 C.3       5 UNK         0.0242 
     36 CB         23.0875  -24.8691  -40.3397 C.3       5 UNK        -0.1982 
     37 C          24.6878  -26.8119  -40.0991 C.2       5 UNK         0.5017 
     38 O          25.4575  -26.5925  -39.1631 O.2       5 UNK        -0.5012 
     39 N          25.0434  -27.4336  -41.2322 N.am      6 UNK        -0.4439 
     40 CA         26.3644  -28.0033  -41.4952 C.3       6 UNK         0.0297 
     41 CB         26.8274  -27.5838  -42.9005 C.3       6 UNK        -0.2006 
     42 C          26.3423  -29.5339  -41.3719 C.2       6 UNK         0.4892 
     43 O          27.2574  -30.1035  -40.7768 O.2       6 UNK        -0.5089 
     44 N          25.3129  -30.1727  -41.9455 N.am      7 UNK        -0.4243 
     45 CA         25.1761  -31.6283  -42.0243 C.3       7 UNK         0.0196 
     46 CB         24.1797  -31.9724  -43.1438 C.3       7 UNK        -0.2007 
     47 C          24.7492  -32.2963  -40.7068 C.2       7 UNK         0.5020 
     48 O          25.0099  -33.4876  -40.5400 O.2       7 UNK        -0.5147 
     49 N          24.0780  -31.5461  -39.8179 N.am      8 UNK        -0.4734 
     50 CA         23.4951  -31.9893  -38.5394 C.3       8 UNK         0.0238 
     51 CB         24.5944  -32.4537  -37.5596 C.3       8 UNK        -0.1912 
     52 C          22.3582  -33.0246  -38.6895 C.2       8 UNK         0.5038 
     53 O          22.0352  -33.7178  -37.7228 O.2       8 UNK        -0.5046 
     54 N          21.7745  -33.1135  -39.8907 N.am      9 UNK        -0.4200 
     55 CA         20.6501  -33.9897  -40.2373 C.3       9 UNK         0.0839 
     56 C          19.2924  -33.5169  -39.6445 C.2       9 UNK         0.5513 
     57 N          18.2972  -34.3932  -39.6136 N.am      9 UNK        -0.7519 
     58 O          19.1224  -32.3719  -39.2306 O.2       9 UNK        -0.4960 
     59 C59        20.5894  -34.2345  -41.7693 C.3       10 UNK        -0.0876 
     60 S60        20.4376  -32.7084  -42.7622 S.3       10 UNK        -0.2414 
     61 C61        18.7941  -32.9365  -43.5034 C.3       10 UNK         0.0169 
     62 H62        16.6929  -21.2570  -43.4075 H         1 UNK         0.0903 
     63 H63        15.1718  -21.9063  -42.7891 H         1 UNK         0.0903 
     64 H64        16.7021  -22.3928  -42.0575 H         1 UNK         0.0903 
     65 H65        17.2963  -24.4442  -42.6682 H         1 UNK         0.3096 
     66 H66        16.1709  -25.9050  -44.7779 H         1 UNK         0.1121 
     67 H67        18.4678  -26.4015  -42.8682 H         1 UNK         0.0849 
     68 H68        18.3365  -27.4500  -44.2360 H         1 UNK         0.0849 
     69 H69        15.0631  -29.4404  -43.6509 H         1 UNK         0.0865 
     70 H70        15.4493  -28.2468  -44.8589 H         1 UNK         0.0865 
     71 H71        16.8773  -31.0891  -42.8963 H         1 UNK         0.1346 
     72 H72        19.8001  -32.0661  -45.8748 H         1 UNK         0.1412 
     73 H73        17.3180  -28.6043  -46.3677 H         1 UNK         0.1426 
     74 H74        19.9674  -30.8049  -47.8935 H         1 UNK         0.0716 
     75 H75        18.6187  -29.7958  -48.3473 H         1 UNK         0.0716 
     76 H76        22.5207  -29.3041  -46.6141 H         1 UNK         0.0695 
     77 H77        21.2190  -29.8395  -45.6187 H         1 UNK         0.0695 
     78 H78        22.9239  -27.3990  -45.4172 H         1 UNK         0.0983 
     79 H79        20.3455  -26.7270  -45.8219 H         1 UNK         0.3095 
     80 H80        19.4688  -24.3833  -43.6274 H         1 UNK         0.0454 
     81 H81        20.0770  -22.3541  -44.9301 H         1 UNK         0.0851 
     82 H82        21.4308  -23.2195  -45.6572 H         1 UNK         0.0851 
     83 H83        21.4071  -22.9044  -43.9283 H         1 UNK         0.0851 
     84 H84        19.6158  -24.5841  -46.5870 H         1 UNK         0.2976 
     85 H85        20.2505  -28.4032  -43.3334 H         1 UNK         0.3116 
     86 H86        21.5389  -30.2002  -41.6461 H         1 UNK         0.0646 
     87 H87        19.0842  -29.9120  -41.7345 H         1 UNK         0.0847 
     88 H88        19.6452  -29.7171  -40.0867 H         1 UNK         0.0847 
     89 H89        19.2140  -28.2984  -41.0323 H         1 UNK         0.0847 
     90 H90        21.9556  -26.7059  -41.6499 H         1 UNK         0.3040 
     91 H91        22.9263  -26.4817  -38.9336 H         1 UNK         0.1015 
     92 H92        23.4225  -24.6692  -41.3581 H         1 UNK         0.0786 
     93 H93        23.6918  -24.2520  -39.6734 H         1 UNK         0.0786 
     94 H94        22.0560  -24.5277  -40.2517 H         1 UNK         0.0786 
     95 H95        24.3301  -27.5999  -41.9348 H         1 UNK         0.3172 
     96 H96        27.0930  -27.6215  -40.7769 H         1 UNK         0.0595 
     97 H97        26.1406  -27.9263  -43.6758 H         1 UNK         0.0839 
     98 H98        27.8102  -27.9992  -43.1278 H         1 UNK         0.0839 
     99 H99        26.9079  -26.4997  -42.9818 H         1 UNK         0.0839 
    100 H100       24.6132  -29.6270  -42.4467 H         1 UNK         0.2998 
    101 H101       26.1474  -32.0471  -42.2970 H         1 UNK         0.0822 
    102 H102       24.0431  -33.0510  -43.2344 H         1 UNK         0.0787 
    103 H103       23.1997  -31.5331  -42.9590 H         1 UNK         0.0787 
    104 H104       24.5289  -31.6077  -44.1099 H         1 UNK         0.0787 
    105 H105       23.8941  -30.5762  -40.0489 H         1 UNK         0.3055 
    106 H106       23.0253  -31.1090  -38.0987 H         1 UNK         0.1106 
    107 H107       25.3811  -31.7056  -37.4629 H         1 UNK         0.0828 
    108 H108       24.1850  -32.6207  -36.5626 H         1 UNK         0.0828 
    109 H109       25.0561  -33.3883  -37.8790 H         1 UNK         0.0828 
    110 H110       22.0792  -32.4860  -40.6183 H         1 UNK         0.2931 
    111 H111       20.8595  -34.9559  -39.7735 H         1 UNK         0.0412 
    112 H112       18.4202  -35.3387  -39.9414 H         1 UNK         0.3472 
    113 H113       17.4064  -34.1065  -39.2385 H         1 UNK         0.3472 
    114 H114       21.5027  -34.7400  -42.0868 H         1 UNK         0.0970 
    115 H115       19.7819  -34.9253  -42.0176 H         1 UNK         0.0970 
    116 H116       18.8075  -33.8130  -44.1527 H         1 UNK         0.0612 
    117 H117       18.0702  -33.1418  -42.7130 H         1 UNK         0.0612 
@<TRIPOS>BOND
     1    1    2 1    
     2    1   62 1    
     3    1   63 1    
     4    1   64 1    
     5    2    3 2    
     6    2    4 am   BACKBONE|DICT|INTERRES
     7    4    5 1    
     8    4   65 1    
     9    5    6 1    
    10    5   25 1    
    11    5   66 1    
    12    6    7 1    
    13    6   67 1    
    14    6   68 1    
    15    7    8 1    
    16    8    9 1    
    17    8   69 1    
    18    8   70 1    
    19    9   10 ar   
    20    9   14 ar   
    21   10   11 ar   
    22   10   71 1    
    23   11   12 ar   
    24   11   61 1    
    25   12   13 ar   
    26   12   72 1    
    27   13   14 ar   
    28   13   15 1    
    29   14   73 1    
    30   15   16 1    
    31   15   74 1    
    32   15   75 1    
    33   16   17 1    
    34   17   18 1    
    35   17   76 1    
    36   17   77 1    
    37   18   19 1    
    38   18   27 1    
    39   18   78 1    
    40   19   20 am   BACKBONE|DICT|INTERRES
    41   19   79 1    
    42   20   21 2    
    43   20   22 1    
    44   22   23 1    
    45   22   24 1    
    46   22   80 1    
    47   23   81 1    
    48   23   82 1    
    49   23   83 1    
    50   24   25 am   BACKBONE|DICT|INTERRES
    51   24   84 1    
    52   25   26 2    
    53   27   28 2    
    54   27   29 am   BACKBONE|DICT|INTERRES
    55   29   30 1    
    56   29   85 1    
    57   30   31 1    
    58   30   32 1    
    59   30   86 1    
    60   31   87 1    
    61   31   88 1    
    62   31   89 1    
    63   32   33 2    
    64   32   34 am   BACKBONE|DICT|INTERRES
    65   34   35 1    
    66   34   90 1    
    67   35   36 1    
    68   35   37 1    
    69   35   91 1    
    70   36   92 1    
    71   36   93 1    
    72   36   94 1    
    73   37   38 2    
    74   37   39 am   BACKBONE|DICT|INTERRES
    75   39   40 1    
    76   39   95 1    
    77   40   41 1    
    78   40   42 1    
    79   40   96 1    
    80   41   97 1    
    81   41   98 1    
    82   41   99 1    
    83   42   43 2    
    84   42   44 am   BACKBONE|DICT|INTERRES
    85   44   45 1    
    86   44  100 1    
    87   45   46 1    
    88   45   47 1    
    89   45  101 1    
    90   46  102 1    
    91   46  103 1    
    92   46  104 1    
    93   47   48 2    
    94   47   49 am   BACKBONE|DICT|INTERRES
    95   49   50 1    
    96   49  105 1    
    97   50   51 1    
    98   50   52 1    
    99   50  106 1    
   100   51  107 1    
   101   51  108 1    
   102   51  109 1    
   103   52   53 2    
   104   52   54 am   BACKBONE|DICT|INTERRES
   105   54   55 1    
   106   54  110 1    
   107   55   56 1    
   108   55   59 1    
   109   55  111 1    
   110   56   57 am   BACKBONE|DICT|INTERRES
   111   56   58 2    
   112   57  112 1    
   113   57  113 1    
   114   59   60 1    
   115   59  114 1    
   116   59  115 1    
   117   60   61 1    
   118   61  116 1    
   119   61  117 1    
@<TRIPOS>SUBSTRUCTURE
     1 UNK         1 GROUP             0       ****    0 ROOT    
