@<TRIPOS>MOLECULE
3R8
117   119    1
SMALL
USER_CHARGES


@<TRIPOS>ATOM
      1 CA         16.7734  -22.6202  -46.3121 C.3       0 UNK        -0.2013 
      2 C          16.2711  -23.9538  -45.7661 C.2       0 UNK         0.4866 
      3 O          15.1335  -24.0293  -45.3075 O.2       0 UNK        -0.5176 
      4 N          17.0699  -25.0306  -45.7849 N.am      1 UNK        -0.4884 
      5 CA         18.4569  -25.0993  -46.2708 C.3       1 UNK         0.0853 
      6 C6         18.7885  -26.5224  -46.8004 C.3       10 UNK        -0.0849 
      7 S7         19.0615  -27.7911  -45.5099 S.3       10 UNK        -0.2776 
      8 C8         17.5151  -28.7407  -45.5457 C.3       10 UNK         0.0316 
      9 C9         17.6107  -29.8944  -44.5627 C.ar      10 UNK        -0.0863 
     10 C10        18.0778  -31.1393  -44.9898 C.ar      10 UNK        -0.1009 
     11 C11        18.2333  -32.1938  -44.0836 C.ar      10 UNK        -0.0712 
     12 C12        17.8913  -31.9947  -42.7415 C.ar      10 UNK        -0.0894 
     13 C13        17.4061  -30.7568  -42.3049 C.ar      10 UNK        -0.0745 
     14 C14        17.2668  -29.7104  -43.2210 C.ar      10 UNK        -0.0972 
     15 C15        17.0134  -30.5593  -40.8482 C.3       10 UNK         0.0209 
     16 S16        18.4023  -29.9489  -39.8422 S.3       10 UNK        -0.2568 
     17 C17        18.4191  -28.1612  -40.2177 C.3       10 UNK        -0.0983 
     18 CA         19.6454  -27.6970  -41.0464 C.3       3 UNK         0.0876 
     19 N          19.4293  -26.3408  -41.5714 N.am      3 UNK        -0.4424 
     20 C          20.2955  -25.6044  -42.2832 C.2       2 UNK         0.4918 
     21 O          21.4336  -25.9689  -42.5817 O.2       2 UNK        -0.4875 
     22 CA         19.7720  -24.2315  -42.7350 C.3       2 UNK         0.0481 
     23 CB         20.8741  -23.1539  -42.8145 C.3       2 UNK        -0.1831 
     24 N          19.0198  -24.3812  -43.9838 N.am      2 UNK        -0.4498 
     25 C          19.4887  -24.6206  -45.2204 C.2       1 UNK         0.5027 
     26 O          20.6680  -24.5096  -45.5559 O.2       1 UNK        -0.4969 
     27 C          20.9566  -27.8347  -40.2409 C.2       3 UNK         0.5005 
     28 O          21.6692  -28.8239  -40.4096 O.2       3 UNK        -0.5279 
     29 N          21.2722  -26.8224  -39.4187 N.am      4 UNK        -0.4463 
     30 CA         22.4958  -26.7508  -38.6161 C.3       4 UNK         0.0283 
     31 CB         22.3845  -25.5910  -37.6141 C.3       4 UNK        -0.1875 
     32 C          23.7772  -26.6123  -39.4571 C.2       4 UNK         0.4949 
     33 O          24.8024  -27.1788  -39.0806 O.2       4 UNK        -0.5039 
     34 N          23.7002  -25.8876  -40.5830 N.am      5 UNK        -0.4663 
     35 CA         24.8067  -25.7257  -41.5325 C.3       5 UNK         0.0242 
     36 CB         24.5635  -24.4907  -42.4143 C.3       5 UNK        -0.1982 
     37 C          25.0021  -26.9826  -42.3944 C.2       5 UNK         0.5017 
     38 O          26.1413  -27.3477  -42.6849 O.2       5 UNK        -0.5012 
     39 N          23.8895  -27.6419  -42.7483 N.am      6 UNK        -0.4439 
     40 CA         23.8602  -28.9446  -43.4196 C.3       6 UNK         0.0297 
     41 CB         22.4473  -29.1822  -43.9814 C.3       6 UNK        -0.2006 
     42 C          24.2732  -30.1170  -42.5065 C.2       6 UNK         0.4892 
     43 O          24.5087  -31.2128  -43.0171 O.2       6 UNK        -0.5089 
     44 N          24.3065  -29.8851  -41.1845 N.am      7 UNK        -0.4243 
     45 CA         24.5277  -30.8533  -40.1028 C.3       7 UNK         0.0196 
     46 CB         25.9762  -31.3848  -40.1330 C.3       7 UNK        -0.2007 
     47 C          23.4703  -31.9759  -40.0971 C.2       7 UNK         0.5020 
     48 O          23.8006  -33.1312  -39.8272 O.2       7 UNK        -0.5147 
     49 N          22.2225  -31.6078  -40.4290 N.am      8 UNK        -0.4734 
     50 CA         21.0716  -32.4821  -40.6871 C.3       8 UNK         0.0238 
     51 CB         20.5674  -33.1256  -39.3787 C.3       8 UNK        -0.1912 
     52 C          21.3429  -33.5083  -41.8065 C.2       8 UNK         0.5038 
     53 O          20.9839  -34.6791  -41.6681 O.2       8 UNK        -0.5046 
     54 N          21.9815  -33.0375  -42.8869 N.am      9 UNK        -0.4200 
     55 CA         22.4944  -33.8265  -44.0173 C.3       9 UNK         0.0839 
     56 C          23.6843  -34.7290  -43.5906 C.2       9 UNK         0.5513 
     57 N          24.7387  -34.1375  -43.0452 N.am      9 UNK        -0.7519 
     58 O          23.6658  -35.9469  -43.7545 O.2       9 UNK        -0.4960 
     59 C59        21.3941  -34.5754  -44.8216 C.3       10 UNK        -0.0876 
     60 S60        20.2225  -33.4229  -45.6120 S.3       10 UNK        -0.2414 
     61 C61        18.7409  -33.5539  -44.5528 C.3       10 UNK         0.0169 
     62 H62        16.9342  -22.6803  -47.3880 H         1 UNK         0.0903 
     63 H63        16.0400  -21.8346  -46.1313 H         1 UNK         0.0903 
     64 H64        17.7027  -22.3171  -45.8314 H         1 UNK         0.0903 
     65 H65        16.7054  -25.8987  -45.4204 H         1 UNK         0.3096 
     66 H66        18.5583  -24.4233  -47.1219 H         1 UNK         0.1121 
     67 H67        19.7004  -26.4783  -47.3990 H         1 UNK         0.0849 
     68 H68        18.0129  -26.8589  -47.4905 H         1 UNK         0.0849 
     69 H69        16.6725  -28.0961  -45.2931 H         1 UNK         0.0865 
     70 H70        17.3339  -29.1143  -46.5549 H         1 UNK         0.0865 
     71 H71        18.3412  -31.2815  -46.0291 H         1 UNK         0.1346 
     72 H72        17.9954  -32.8064  -42.0343 H         1 UNK         0.1412 
     73 H73        16.9015  -28.7483  -42.8901 H         1 UNK         0.1426 
     74 H74        16.1642  -29.8791  -40.7672 H         1 UNK         0.0716 
     75 H75        16.6757  -31.5082  -40.4287 H         1 UNK         0.0716 
     76 H76        18.3662  -27.6168  -39.2729 H         1 UNK         0.0695 
     77 H77        17.4979  -27.9109  -40.7446 H         1 UNK         0.0695 
     78 H78        19.7348  -28.3500  -41.9175 H         1 UNK         0.0983 
     79 H79        18.5194  -25.9456  -41.3853 H         1 UNK         0.3095 
     80 H80        19.0536  -23.8897  -41.9881 H         1 UNK         0.0454 
     81 H81        20.4683  -22.1964  -43.1403 H         1 UNK         0.0851 
     82 H82        21.6772  -23.4254  -43.4984 H         1 UNK         0.0851 
     83 H83        21.3306  -22.9974  -41.8367 H         1 UNK         0.0851 
     84 H84        18.0238  -24.5059  -43.8658 H         1 UNK         0.2976 
     85 H85        20.6292  -26.0474  -39.3440 H         1 UNK         0.3116 
     86 H86        22.5751  -27.6817  -38.0500 H         1 UNK         0.0646 
     87 H87        21.5308  -25.7204  -36.9487 H         1 UNK         0.0847 
     88 H88        23.2748  -25.5324  -36.9861 H         1 UNK         0.0847 
     89 H89        22.2779  -24.6288  -38.1165 H         1 UNK         0.0847 
     90 H90        22.8040  -25.5119  -40.8626 H         1 UNK         0.3040 
     91 H91        25.7274  -25.5625  -40.9672 H         1 UNK         0.1015 
     92 H92        23.6961  -24.6192  -43.0616 H         1 UNK         0.0786 
     93 H93        25.4219  -24.3026  -43.0605 H         1 UNK         0.0786 
     94 H94        24.4074  -23.5948  -41.8134 H         1 UNK         0.0786 
     95 H95        22.9933  -27.2194  -42.5223 H         1 UNK         0.3172 
     96 H96        24.5621  -28.9155  -44.2553 H         1 UNK         0.0595 
     97 H97        21.7015  -29.2493  -43.1890 H         1 UNK         0.0839 
     98 H98        22.4010  -30.1115  -44.5511 H         1 UNK         0.0839 
     99 H99        22.1455  -28.3779  -44.6529 H         1 UNK         0.0839 
    100 H100       24.0294  -28.9615  -40.8798 H         1 UNK         0.2998 
    101 H101       24.3935  -30.3032  -39.1701 H         1 UNK         0.0822 
    102 H102       26.1840  -32.0021  -39.2582 H         1 UNK         0.0787 
    103 H103       26.1650  -31.9974  -41.0150 H         1 UNK         0.0787 
    104 H104       26.6973  -30.5674  -40.1311 H         1 UNK         0.0787 
    105 H105       22.0520  -30.6097  -40.5575 H         1 UNK         0.3055 
    106 H106       20.2798  -31.8351  -41.0648 H         1 UNK         0.1106 
    107 H107       20.3551  -32.3691  -38.6233 H         1 UNK         0.0828 
    108 H108       19.6436  -33.6800  -39.5477 H         1 UNK         0.0828 
    109 H109       21.2955  -33.8228  -38.9630 H         1 UNK         0.0828 
    110 H110       22.2935  -32.0778  -42.8674 H         1 UNK         0.2931 
    111 H111       22.9321  -33.0973  -44.7010 H         1 UNK         0.0412 
    112 H112       25.5269  -34.6908  -42.7503 H         1 UNK         0.3472 
    113 H113       24.7489  -33.1274  -42.9320 H         1 UNK         0.3472 
    114 H114       20.8699  -35.3039  -44.2025 H         1 UNK         0.0970 
    115 H115       21.8530  -35.1546  -45.6248 H         1 UNK         0.0970 
    116 H116       18.9495  -34.1934  -43.6947 H         1 UNK         0.0612 
    117 H117       17.9503  -34.0484  -45.1183 H         1 UNK         0.0612 
@<TRIPOS>BOND
     1    1    2 1    
     2    1   62 1    
     3    1   63 1    
     4    1   64 1    
     5    2    3 2    
     6    2    4 am   BACKBONE|DICT|INTERRES
     7    4    5 1    
     8    4   65 1    
     9    5    6 1    
    10    5   25 1    
    11    5   66 1    
    12    6    7 1    
    13    6   67 1    
    14    6   68 1    
    15    7    8 1    
    16    8    9 1    
    17    8   69 1    
    18    8   70 1    
    19    9   10 ar   
    20    9   14 ar   
    21   10   11 ar   
    22   10   71 1    
    23   11   12 ar   
    24   11   61 1    
    25   12   13 ar   
    26   12   72 1    
    27   13   14 ar   
    28   13   15 1    
    29   14   73 1    
    30   15   16 1    
    31   15   74 1    
    32   15   75 1    
    33   16   17 1    
    34   17   18 1    
    35   17   76 1    
    36   17   77 1    
    37   18   19 1    
    38   18   27 1    
    39   18   78 1    
    40   19   20 am   BACKBONE|DICT|INTERRES
    41   19   79 1    
    42   20   21 2    
    43   20   22 1    
    44   22   23 1    
    45   22   24 1    
    46   22   80 1    
    47   23   81 1    
    48   23   82 1    
    49   23   83 1    
    50   24   25 am   BACKBONE|DICT|INTERRES
    51   24   84 1    
    52   25   26 2    
    53   27   28 2    
    54   27   29 am   BACKBONE|DICT|INTERRES
    55   29   30 1    
    56   29   85 1    
    57   30   31 1    
    58   30   32 1    
    59   30   86 1    
    60   31   87 1    
    61   31   88 1    
    62   31   89 1    
    63   32   33 2    
    64   32   34 am   BACKBONE|DICT|INTERRES
    65   34   35 1    
    66   34   90 1    
    67   35   36 1    
    68   35   37 1    
    69   35   91 1    
    70   36   92 1    
    71   36   93 1    
    72   36   94 1    
    73   37   38 2    
    74   37   39 am   BACKBONE|DICT|INTERRES
    75   39   40 1    
    76   39   95 1    
    77   40   41 1    
    78   40   42 1    
    79   40   96 1    
    80   41   97 1    
    81   41   98 1    
    82   41   99 1    
    83   42   43 2    
    84   42   44 am   BACKBONE|DICT|INTERRES
    85   44   45 1    
    86   44  100 1    
    87   45   46 1    
    88   45   47 1    
    89   45  101 1    
    90   46  102 1    
    91   46  103 1    
    92   46  104 1    
    93   47   48 2    
    94   47   49 am   BACKBONE|DICT|INTERRES
    95   49   50 1    
    96   49  105 1    
    97   50   51 1    
    98   50   52 1    
    99   50  106 1    
   100   51  107 1    
   101   51  108 1    
   102   51  109 1    
   103   52   53 2    
   104   52   54 am   BACKBONE|DICT|INTERRES
   105   54   55 1    
   106   54  110 1    
   107   55   56 1    
   108   55   59 1    
   109   55  111 1    
   110   56   57 am   BACKBONE|DICT|INTERRES
   111   56   58 2    
   112   57  112 1    
   113   57  113 1    
   114   59   60 1    
   115   59  114 1    
   116   59  115 1    
   117   60   61 1    
   118   61  116 1    
   119   61  117 1    
@<TRIPOS>SUBSTRUCTURE
     1 UNK         1 GROUP             0       ****    0 ROOT    
