@<TRIPOS>MOLECULE
3R8
117   119    1
SMALL
USER_CHARGES


@<TRIPOS>ATOM
      1 CA         13.7041  -28.1487  -48.1413 C.3       0 UNK        -0.2013 
      2 C          14.7640  -28.5435  -47.1237 C.2       0 UNK         0.4866 
      3 O          15.0767  -29.7274  -46.9933 O.2       0 UNK        -0.5176 
      4 N          15.3109  -27.5633  -46.3950 N.am      1 UNK        -0.4884 
      5 CA         16.3761  -27.7540  -45.4060 C.3       1 UNK         0.0853 
      6 C6         16.5489  -26.5085  -44.4999 C.3       10 UNK        -0.0849 
      7 S7         15.0762  -26.0731  -43.5120 S.3       10 UNK        -0.2776 
      8 C8         14.8507  -27.5093  -42.4035 C.3       10 UNK         0.0316 
      9 C9         16.1511  -28.0603  -41.8275 C.ar      10 UNK        -0.0863 
     10 C10        16.4821  -29.4032  -42.0271 C.ar      10 UNK        -0.1009 
     11 C11        17.6756  -29.9262  -41.5232 C.ar      10 UNK        -0.0712 
     12 C12        18.5359  -29.0949  -40.8000 C.ar      10 UNK        -0.0894 
     13 C13        18.2166  -27.7505  -40.5824 C.ar      10 UNK        -0.0745 
     14 C14        17.0167  -27.2427  -41.0927 C.ar      10 UNK        -0.0972 
     15 C15        19.1446  -26.8447  -39.7757 C.3       10 UNK         0.0209 
     16 S16        20.8965  -26.9257  -40.2864 S.3       10 UNK        -0.2568 
     17 C17        20.8171  -26.3542  -42.0136 C.3       10 UNK        -0.0983 
     18 CA         21.8578  -27.0793  -42.9166 C.3       3 UNK         0.0876 
     19 N          21.2532  -27.5489  -44.1573 N.am      3 UNK        -0.4424 
     20 C          20.7179  -28.7588  -44.3272 C.2       2 UNK         0.4918 
     21 O          20.7230  -29.6421  -43.4679 O.2       2 UNK        -0.4875 
     22 CA         19.9921  -28.9907  -45.6541 C.3       2 UNK         0.0481 
     23 CB         20.2464  -30.3910  -46.2362 C.3       2 UNK        -0.1831 
     24 N          18.5755  -28.8145  -45.3613 N.am      2 UNK        -0.4498 
     25 C          17.7265  -28.0720  -46.0787 C.2       1 UNK         0.5027 
     26 O          17.9987  -27.5805  -47.1777 O.2       1 UNK        -0.4969 
     27 C          23.0356  -26.1629  -43.2776 C.2       3 UNK         0.5005 
     28 O          22.9584  -25.4350  -44.2723 O.2       3 UNK        -0.5279 
     29 N          24.0844  -26.1982  -42.4537 N.am      4 UNK        -0.4463 
     30 CA         25.2553  -25.3294  -42.5255 C.3       4 UNK         0.0283 
     31 CB         26.3579  -26.0101  -43.3646 C.3       4 UNK        -0.1875 
     32 C          25.6530  -24.9936  -41.0812 C.2       4 UNK         0.4949 
     33 O          24.8288  -24.4445  -40.3488 O.2       4 UNK        -0.5039 
     34 N          26.8734  -25.3639  -40.6678 N.am      5 UNK        -0.4663 
     35 CA         27.3248  -25.3127  -39.2696 C.3       5 UNK         0.0242 
     36 CB         28.8525  -25.4807  -39.2281 C.3       5 UNK        -0.1982 
     37 C          26.6398  -26.3702  -38.3784 C.2       5 UNK         0.5017 
     38 O          26.6257  -26.2204  -37.1562 O.2       5 UNK        -0.5012 
     39 N          26.0821  -27.4067  -39.0113 N.am      6 UNK        -0.4439 
     40 CA         25.2583  -28.4610  -38.4370 C.3       6 UNK         0.0297 
     41 CB         26.1589  -29.6207  -37.9714 C.3       6 UNK        -0.2006 
     42 C          24.2578  -28.9080  -39.5147 C.2       6 UNK         0.4892 
     43 O          24.3211  -28.4218  -40.6497 O.2       6 UNK        -0.5089 
     44 N          23.3574  -29.8257  -39.1437 N.am      7 UNK        -0.4243 
     45 CA         22.4065  -30.4743  -40.0485 C.3       7 UNK         0.0196 
     46 CB         21.4070  -31.2911  -39.2134 C.3       7 UNK        -0.2007 
     47 C          23.1227  -31.3769  -41.0664 C.2       7 UNK         0.5020 
     48 O          24.0229  -32.1260  -40.6806 O.2       7 UNK        -0.5147 
     49 N          22.6975  -31.3054  -42.3320 N.am      8 UNK        -0.4734 
     50 CA         23.2691  -32.0598  -43.4515 C.3       8 UNK         0.0238 
     51 CB         23.9286  -31.0679  -44.4279 C.3       8 UNK        -0.1912 
     52 C          22.2259  -32.9437  -44.1597 C.2       8 UNK         0.5038 
     53 O          22.5488  -33.5278  -45.1953 O.2       8 UNK        -0.5046 
     54 N          21.0050  -33.0287  -43.6116 N.am      9 UNK        -0.4200 
     55 CA         19.9092  -33.8765  -44.1089 C.3       9 UNK         0.0839 
     56 C          20.2540  -35.3907  -44.0616 C.2       9 UNK         0.5513 
     57 N          19.8079  -36.1598  -45.0452 N.am      9 UNK        -0.7519 
     58 O          20.8776  -35.8775  -43.1204 O.2       9 UNK        -0.4960 
     59 C59        18.5795  -33.6102  -43.3554 C.3       10 UNK        -0.0876 
     60 S60        18.0181  -31.8782  -43.4794 S.3       10 UNK        -0.2414 
     61 C61        18.0188  -31.3954  -41.7256 C.3       10 UNK         0.0169 
     62 H62        14.0217  -28.4352  -49.1436 H         1 UNK         0.0903 
     63 H63        12.7656  -28.6574  -47.9224 H         1 UNK         0.0903 
     64 H64        13.5160  -27.0751  -48.1392 H         1 UNK         0.0903 
     65 H65        15.0245  -26.6068  -46.5478 H         1 UNK         0.3096 
     66 H66        16.1039  -28.6111  -44.7872 H         1 UNK         0.1121 
     67 H67        17.3907  -26.6359  -43.8167 H         1 UNK         0.0849 
     68 H68        16.8028  -25.6369  -45.1069 H         1 UNK         0.0849 
     69 H69        14.1950  -27.2190  -41.5816 H         1 UNK         0.0865 
     70 H70        14.3156  -28.2840  -42.9551 H         1 UNK         0.0865 
     71 H71        15.8121  -30.0497  -42.5778 H         1 UNK         0.1346 
     72 H72        19.4570  -29.4926  -40.4008 H         1 UNK         0.1412 
     73 H73        16.7560  -26.2057  -40.9292 H         1 UNK         0.1426 
     74 H74        18.8179  -25.8055  -39.8370 H         1 UNK         0.0716 
     75 H75        19.0760  -27.1269  -38.7244 H         1 UNK         0.0716 
     76 H76        19.8065  -26.5285  -42.3853 H         1 UNK         0.0695 
     77 H77        20.9350  -25.2686  -42.0242 H         1 UNK         0.0695 
     78 H78        22.2726  -27.9450  -42.3947 H         1 UNK         0.0983 
     79 H79        21.2634  -26.8766  -44.9133 H         1 UNK         0.3095 
     80 H80        20.3366  -28.2480  -46.3770 H         1 UNK         0.0454 
     81 H81        19.9345  -31.1782  -45.5528 H         1 UNK         0.0851 
     82 H82        19.7062  -30.5320  -47.1720 H         1 UNK         0.0851 
     83 H83        21.3055  -30.5417  -46.4459 H         1 UNK         0.0851 
     84 H84        18.2867  -29.1732  -44.4590 H         1 UNK         0.2976 
     85 H85        24.0628  -26.8448  -41.6661 H         1 UNK         0.3116 
     86 H86        24.9876  -24.3840  -43.0021 H         1 UNK         0.0646 
     87 H87        26.6502  -26.9769  -42.9526 H         1 UNK         0.0847 
     88 H88        26.0161  -26.1825  -44.3854 H         1 UNK         0.0847 
     89 H89        27.2492  -25.3850  -43.4333 H         1 UNK         0.0847 
     90 H90        27.5018  -25.7914  -41.3335 H         1 UNK         0.3040 
     91 H91        27.0740  -24.3312  -38.8605 H         1 UNK         0.1015 
     92 H92        29.1646  -26.4464  -39.6281 H         1 UNK         0.0786 
     93 H93        29.2239  -25.4172  -38.2042 H         1 UNK         0.0786 
     94 H94        29.3538  -24.7004  -39.8011 H         1 UNK         0.0786 
     95 H95        26.0890  -27.4112  -40.0232 H         1 UNK         0.3172 
     96 H96        24.6936  -28.0641  -37.5908 H         1 UNK         0.0595 
     97 H97        25.5775  -30.4112  -37.4961 H         1 UNK         0.0839 
     98 H98        26.8948  -29.2824  -37.2416 H         1 UNK         0.0839 
     99 H99        26.6988  -30.0694  -38.8063 H         1 UNK         0.0839 
    100 H100       23.3924  -30.1830  -38.2005 H         1 UNK         0.2998 
    101 H101       21.8634  -29.6988  -40.5909 H         1 UNK         0.0822 
    102 H102       20.7170  -31.8427  -39.8503 H         1 UNK         0.0787 
    103 H103       21.9137  -32.0242  -38.5843 H         1 UNK         0.0787 
    104 H104       20.8111  -30.6475  -38.5659 H         1 UNK         0.0787 
    105 H105       21.9459  -30.6617  -42.5804 H         1 UNK         0.3055 
    106 H106       24.0426  -32.7432  -43.0943 H         1 UNK         0.1106 
    107 H107       24.6980  -30.4777  -43.9297 H         1 UNK         0.0828 
    108 H108       24.4094  -31.5894  -45.2565 H         1 UNK         0.0828 
    109 H109       23.2029  -30.3764  -44.8542 H         1 UNK         0.0828 
    110 H110       20.8219  -32.5113  -42.7668 H         1 UNK         0.2931 
    111 H111       19.7573  -33.6053  -45.1557 H         1 UNK         0.0412 
    112 H112       19.2867  -35.7708  -45.8161 H         1 UNK         0.3472 
    113 H113       20.0064  -37.1482  -45.0240 H         1 UNK         0.3472 
    114 H114       17.7835  -34.2352  -43.7649 H         1 UNK         0.0970 
    115 H115       18.6722  -33.8982  -42.3064 H         1 UNK         0.0970 
    116 H116       19.0006  -31.6169  -41.3102 H         1 UNK         0.0612 
    117 H117       17.2986  -32.0079  -41.1815 H         1 UNK         0.0612 
@<TRIPOS>BOND
     1    1    2 1    
     2    1   62 1    
     3    1   63 1    
     4    1   64 1    
     5    2    3 2    
     6    2    4 am   BACKBONE|DICT|INTERRES
     7    4    5 1    
     8    4   65 1    
     9    5    6 1    
    10    5   25 1    
    11    5   66 1    
    12    6    7 1    
    13    6   67 1    
    14    6   68 1    
    15    7    8 1    
    16    8    9 1    
    17    8   69 1    
    18    8   70 1    
    19    9   10 ar   
    20    9   14 ar   
    21   10   11 ar   
    22   10   71 1    
    23   11   12 ar   
    24   11   61 1    
    25   12   13 ar   
    26   12   72 1    
    27   13   14 ar   
    28   13   15 1    
    29   14   73 1    
    30   15   16 1    
    31   15   74 1    
    32   15   75 1    
    33   16   17 1    
    34   17   18 1    
    35   17   76 1    
    36   17   77 1    
    37   18   19 1    
    38   18   27 1    
    39   18   78 1    
    40   19   20 am   BACKBONE|DICT|INTERRES
    41   19   79 1    
    42   20   21 2    
    43   20   22 1    
    44   22   23 1    
    45   22   24 1    
    46   22   80 1    
    47   23   81 1    
    48   23   82 1    
    49   23   83 1    
    50   24   25 am   BACKBONE|DICT|INTERRES
    51   24   84 1    
    52   25   26 2    
    53   27   28 2    
    54   27   29 am   BACKBONE|DICT|INTERRES
    55   29   30 1    
    56   29   85 1    
    57   30   31 1    
    58   30   32 1    
    59   30   86 1    
    60   31   87 1    
    61   31   88 1    
    62   31   89 1    
    63   32   33 2    
    64   32   34 am   BACKBONE|DICT|INTERRES
    65   34   35 1    
    66   34   90 1    
    67   35   36 1    
    68   35   37 1    
    69   35   91 1    
    70   36   92 1    
    71   36   93 1    
    72   36   94 1    
    73   37   38 2    
    74   37   39 am   BACKBONE|DICT|INTERRES
    75   39   40 1    
    76   39   95 1    
    77   40   41 1    
    78   40   42 1    
    79   40   96 1    
    80   41   97 1    
    81   41   98 1    
    82   41   99 1    
    83   42   43 2    
    84   42   44 am   BACKBONE|DICT|INTERRES
    85   44   45 1    
    86   44  100 1    
    87   45   46 1    
    88   45   47 1    
    89   45  101 1    
    90   46  102 1    
    91   46  103 1    
    92   46  104 1    
    93   47   48 2    
    94   47   49 am   BACKBONE|DICT|INTERRES
    95   49   50 1    
    96   49  105 1    
    97   50   51 1    
    98   50   52 1    
    99   50  106 1    
   100   51  107 1    
   101   51  108 1    
   102   51  109 1    
   103   52   53 2    
   104   52   54 am   BACKBONE|DICT|INTERRES
   105   54   55 1    
   106   54  110 1    
   107   55   56 1    
   108   55   59 1    
   109   55  111 1    
   110   56   57 am   BACKBONE|DICT|INTERRES
   111   56   58 2    
   112   57  112 1    
   113   57  113 1    
   114   59   60 1    
   115   59  114 1    
   116   59  115 1    
   117   60   61 1    
   118   61  116 1    
   119   61  117 1    
@<TRIPOS>SUBSTRUCTURE
     1 UNK         1 GROUP             0       ****    0 ROOT    
