@<TRIPOS>MOLECULE
3R8
117   119    1
SMALL
USER_CHARGES


@<TRIPOS>ATOM
      1 CA         20.4570  -26.2262  -50.0060 C.3       0 UNK        -0.2013 
      2 C          20.2381  -26.6349  -48.5571 C.2       0 UNK         0.4866 
      3 O          21.1464  -27.1818  -47.9309 O.2       0 UNK        -0.5176 
      4 N          19.0369  -26.3841  -48.0226 N.am      1 UNK        -0.4884 
      5 CA         18.6709  -26.6659  -46.6321 C.3       1 UNK         0.0853 
      6 C6         17.1387  -26.6025  -46.4156 C.3       10 UNK        -0.0849 
      7 S7         16.1592  -27.7953  -47.3976 S.3       10 UNK        -0.2776 
      8 C8         17.0154  -29.3973  -47.1603 C.3       10 UNK         0.0316 
      9 C9         17.3029  -29.7832  -45.7076 C.ar      10 UNK        -0.0863 
     10 C10        18.4235  -30.5706  -45.4244 C.ar      10 UNK        -0.1009 
     11 C11        18.7282  -30.9397  -44.1104 C.ar      10 UNK        -0.0712 
     12 C12        17.9116  -30.4958  -43.0655 C.ar      10 UNK        -0.0894 
     13 C13        16.7832  -29.7169  -43.3328 C.ar      10 UNK        -0.0745 
     14 C14        16.4721  -29.3854  -44.6539 C.ar      10 UNK        -0.0972 
     15 C15        15.8901  -29.2253  -42.2058 C.3       10 UNK         0.0209 
     16 S16        16.2598  -27.4901  -41.7965 S.3       10 UNK        -0.2568 
     17 C17        17.3850  -27.6508  -40.3677 C.3       10 UNK        -0.0983 
     18 CA         18.8917  -27.6950  -40.7316 C.3       3 UNK         0.0876 
     19 N          19.2645  -26.6309  -41.6733 N.am      3 UNK        -0.4424 
     20 C          20.4701  -26.4274  -42.2204 C.2       2 UNK         0.4918 
     21 O          21.5027  -27.0002  -41.8660 O.2       2 UNK        -0.4875 
     22 CA         20.4775  -25.4935  -43.4373 C.3       2 UNK         0.0481 
     23 CB         21.8879  -25.0188  -43.8417 C.3       2 UNK        -0.1831 
     24 N          19.8405  -26.2244  -44.5300 N.am      2 UNK        -0.4498 
     25 C          19.3740  -25.6930  -45.6653 C.2       1 UNK         0.5027 
     26 O          19.4386  -24.4931  -45.9455 O.2       1 UNK        -0.4969 
     27 C          19.7254  -27.7556  -39.4348 C.2       3 UNK         0.5005 
     28 O          19.8547  -28.8376  -38.8597 O.2       3 UNK        -0.5279 
     29 N          20.2747  -26.6161  -38.9897 N.am      4 UNK        -0.4463 
     30 CA         21.0635  -26.4564  -37.7611 C.3       4 UNK         0.0283 
     31 CB         21.0663  -24.9673  -37.3664 C.3       4 UNK        -0.1875 
     32 C          22.4894  -27.0436  -37.8610 C.2       4 UNK         0.4949 
     33 O          23.4594  -26.3647  -37.5226 O.2       4 UNK        -0.5039 
     34 N          22.5875  -28.2911  -38.3406 N.am      5 UNK        -0.4663 
     35 CA         23.7900  -29.1178  -38.5234 C.3       5 UNK         0.0242 
     36 CB         24.4320  -29.4467  -37.1591 C.3       5 UNK        -0.1982 
     37 C          24.8226  -28.5695  -39.5312 C.2       5 UNK         0.5017 
     38 O          25.9280  -29.1093  -39.6075 O.2       5 UNK        -0.5012 
     39 N          24.4580  -27.5310  -40.2950 N.am      6 UNK        -0.4439 
     40 CA         25.2624  -26.9838  -41.3876 C.3       6 UNK         0.0297 
     41 CB         24.8708  -25.5209  -41.6353 C.3       6 UNK        -0.2006 
     42 C          25.1150  -27.8430  -42.6525 C.2       6 UNK         0.4892 
     43 O          26.1214  -28.1758  -43.2800 O.2       6 UNK        -0.5089 
     44 N          23.8720  -28.2324  -42.9667 N.am      7 UNK        -0.4243 
     45 CA         23.5596  -29.3208  -43.8902 C.3       7 UNK         0.0196 
     46 CB         22.1414  -29.1179  -44.4465 C.3       7 UNK        -0.2007 
     47 C          23.6926  -30.6677  -43.1571 C.2       7 UNK         0.5020 
     48 O          23.5730  -30.7183  -41.9295 O.2       7 UNK        -0.5147 
     49 N          23.9329  -31.7419  -43.9184 N.am      8 UNK        -0.4734 
     50 CA         24.2776  -33.0861  -43.4318 C.3       8 UNK         0.0238 
     51 CB         24.9442  -33.8649  -44.5827 C.3       8 UNK        -0.1912 
     52 C          23.1117  -33.8704  -42.7859 C.2       8 UNK         0.5038 
     53 O          22.8857  -35.0297  -43.1396 O.2       8 UNK        -0.5046 
     54 N          22.4093  -33.2338  -41.8442 N.am      9 UNK        -0.4200 
     55 CA         21.3241  -33.8051  -41.0281 C.3       9 UNK         0.0839 
     56 C          21.6176  -33.7269  -39.5019 C.2       9 UNK         0.5513 
     57 N          22.7837  -33.2624  -39.0660 N.am      9 UNK        -0.7519 
     58 O          20.7783  -34.1140  -38.6930 O.2       9 UNK        -0.4960 
     59 C59        19.9423  -33.1846  -41.3742 C.3       10 UNK        -0.0876 
     60 S60        19.4814  -33.4236  -43.1252 S.3       10 UNK        -0.2414 
     61 C61        19.9441  -31.8107  -43.8286 C.3       10 UNK         0.0169 
     62 H62        19.5682  -25.7683  -50.4397 H         1 UNK         0.0903 
     63 H63        21.2751  -25.5096  -50.0734 H         1 UNK         0.0903 
     64 H64        20.7167  -27.0977  -50.6064 H         1 UNK         0.0903 
     65 H65        18.3288  -25.9222  -48.5753 H         1 UNK         0.3096 
     66 H66        19.0233  -27.6710  -46.3955 H         1 UNK         0.1121 
     67 H67        16.8965  -26.7578  -45.3628 H         1 UNK         0.0849 
     68 H68        16.7679  -25.6029  -46.6518 H         1 UNK         0.0849 
     69 H69        17.9431  -29.3750  -47.7344 H         1 UNK         0.0865 
     70 H70        16.4042  -30.1820  -47.6079 H         1 UNK         0.0865 
     71 H71        19.0609  -30.9024  -46.2330 H         1 UNK         0.1346 
     72 H72        18.1458  -30.7695  -42.0467 H         1 UNK         0.1412 
     73 H73        15.5892  -28.7938  -44.8526 H         1 UNK         0.1426 
     74 H74        15.9849  -29.8616  -41.3249 H         1 UNK         0.0716 
     75 H75        14.8464  -29.2954  -42.5158 H         1 UNK         0.0716 
     76 H76        17.1037  -28.5335  -39.7900 H         1 UNK         0.0695 
     77 H77        17.1842  -26.7974  -39.7165 H         1 UNK         0.0695 
     78 H78        19.0836  -28.6338  -41.2529 H         1 UNK         0.0983 
     79 H79        18.4809  -26.1170  -42.0512 H         1 UNK         0.3095 
     80 H80        19.8710  -24.6178  -43.1972 H         1 UNK         0.0454 
     81 H81        22.5674  -25.8521  -44.0212 H         1 UNK         0.0851 
     82 H82        22.3165  -24.3926  -43.0606 H         1 UNK         0.0851 
     83 H83        21.8665  -24.4122  -44.7465 H         1 UNK         0.0851 
     84 H84        19.7202  -27.2152  -44.3668 H         1 UNK         0.2976 
     85 H85        20.1428  -25.7862  -39.5495 H         1 UNK         0.3116 
     86 H86        20.5584  -27.0047  -36.9630 H         1 UNK         0.0646 
     87 H87        21.5687  -24.3526  -38.1144 H         1 UNK         0.0847 
     88 H88        21.5831  -24.8137  -36.4180 H         1 UNK         0.0847 
     89 H89        20.0527  -24.5859  -37.2421 H         1 UNK         0.0847 
     90 H90        21.7069  -28.7365  -38.5928 H         1 UNK         0.3040 
     91 H91        23.4388  -30.0564  -38.9561 H         1 UNK         0.1015 
     92 H92        24.8609  -28.5607  -36.6900 H         1 UNK         0.0786 
     93 H93        25.2349  -30.1770  -37.2677 H         1 UNK         0.0786 
     94 H94        23.7028  -29.8726  -36.4701 H         1 UNK         0.0786 
     95 H95        23.5246  -27.1628  -40.1763 H         1 UNK         0.3172 
     96 H96        26.3156  -26.9994  -41.0985 H         1 UNK         0.0595 
     97 H97        23.7941  -25.4112  -41.7407 H         1 UNK         0.0839 
     98 H98        25.3388  -25.1306  -42.5402 H         1 UNK         0.0839 
     99 H99        25.1852  -24.8865  -40.8064 H         1 UNK         0.0839 
    100 H100       23.1003  -27.9036  -42.3936 H         1 UNK         0.2998 
    101 H101       24.2668  -29.3022  -44.7224 H         1 UNK         0.0822 
    102 H102       22.0645  -28.1751  -44.9885 H         1 UNK         0.0787 
    103 H103       21.8756  -29.9096  -45.1473 H         1 UNK         0.0787 
    104 H104       21.3936  -29.1099  -43.6536 H         1 UNK         0.0787 
    105 H105       23.9650  -31.6173  -44.9205 H         1 UNK         0.3055 
    106 H106       25.0276  -32.9681  -42.6462 H         1 UNK         0.1106 
    107 H107       24.2530  -34.0306  -45.4101 H         1 UNK         0.0828 
    108 H108       25.2919  -34.8431  -44.2472 H         1 UNK         0.0828 
    109 H109       25.8143  -33.3354  -44.9711 H         1 UNK         0.0828 
    110 H110       22.6754  -32.2734  -41.6370 H         1 UNK         0.2931 
    111 H111       21.2560  -34.8748  -41.2336 H         1 UNK         0.0412 
    112 H112       22.9577  -33.2308  -38.0738 H         1 UNK         0.3472 
    113 H113       23.4985  -32.9701  -39.7124 H         1 UNK         0.3472 
    114 H114       19.1583  -33.6494  -40.7734 H         1 UNK         0.0970 
    115 H115       19.9228  -32.1245  -41.1167 H         1 UNK         0.0970 
    116 H116       20.5078  -31.9936  -44.7444 H         1 UNK         0.0612 
    117 H117       20.6224  -31.2857  -43.1570 H         1 UNK         0.0612 
@<TRIPOS>BOND
     1    1    2 1    
     2    1   62 1    
     3    1   63 1    
     4    1   64 1    
     5    2    3 2    
     6    2    4 am   BACKBONE|DICT|INTERRES
     7    4    5 1    
     8    4   65 1    
     9    5    6 1    
    10    5   25 1    
    11    5   66 1    
    12    6    7 1    
    13    6   67 1    
    14    6   68 1    
    15    7    8 1    
    16    8    9 1    
    17    8   69 1    
    18    8   70 1    
    19    9   10 ar   
    20    9   14 ar   
    21   10   11 ar   
    22   10   71 1    
    23   11   12 ar   
    24   11   61 1    
    25   12   13 ar   
    26   12   72 1    
    27   13   14 ar   
    28   13   15 1    
    29   14   73 1    
    30   15   16 1    
    31   15   74 1    
    32   15   75 1    
    33   16   17 1    
    34   17   18 1    
    35   17   76 1    
    36   17   77 1    
    37   18   19 1    
    38   18   27 1    
    39   18   78 1    
    40   19   20 am   BACKBONE|DICT|INTERRES
    41   19   79 1    
    42   20   21 2    
    43   20   22 1    
    44   22   23 1    
    45   22   24 1    
    46   22   80 1    
    47   23   81 1    
    48   23   82 1    
    49   23   83 1    
    50   24   25 am   BACKBONE|DICT|INTERRES
    51   24   84 1    
    52   25   26 2    
    53   27   28 2    
    54   27   29 am   BACKBONE|DICT|INTERRES
    55   29   30 1    
    56   29   85 1    
    57   30   31 1    
    58   30   32 1    
    59   30   86 1    
    60   31   87 1    
    61   31   88 1    
    62   31   89 1    
    63   32   33 2    
    64   32   34 am   BACKBONE|DICT|INTERRES
    65   34   35 1    
    66   34   90 1    
    67   35   36 1    
    68   35   37 1    
    69   35   91 1    
    70   36   92 1    
    71   36   93 1    
    72   36   94 1    
    73   37   38 2    
    74   37   39 am   BACKBONE|DICT|INTERRES
    75   39   40 1    
    76   39   95 1    
    77   40   41 1    
    78   40   42 1    
    79   40   96 1    
    80   41   97 1    
    81   41   98 1    
    82   41   99 1    
    83   42   43 2    
    84   42   44 am   BACKBONE|DICT|INTERRES
    85   44   45 1    
    86   44  100 1    
    87   45   46 1    
    88   45   47 1    
    89   45  101 1    
    90   46  102 1    
    91   46  103 1    
    92   46  104 1    
    93   47   48 2    
    94   47   49 am   BACKBONE|DICT|INTERRES
    95   49   50 1    
    96   49  105 1    
    97   50   51 1    
    98   50   52 1    
    99   50  106 1    
   100   51  107 1    
   101   51  108 1    
   102   51  109 1    
   103   52   53 2    
   104   52   54 am   BACKBONE|DICT|INTERRES
   105   54   55 1    
   106   54  110 1    
   107   55   56 1    
   108   55   59 1    
   109   55  111 1    
   110   56   57 am   BACKBONE|DICT|INTERRES
   111   56   58 2    
   112   57  112 1    
   113   57  113 1    
   114   59   60 1    
   115   59  114 1    
   116   59  115 1    
   117   60   61 1    
   118   61  116 1    
   119   61  117 1    
@<TRIPOS>SUBSTRUCTURE
     1 UNK         1 GROUP             0       ****    0 ROOT    
