@<TRIPOS>MOLECULE
3R8
117   119    1
SMALL
USER_CHARGES


@<TRIPOS>ATOM
      1 CA         13.8966  -24.9449  -47.2141 C.3       0 UNK        -0.2013 
      2 C          15.3918  -24.7418  -47.0198 C.2       0 UNK         0.4866 
      3 O          15.8501  -23.6015  -46.9380 O.2       0 UNK        -0.5176 
      4 N          16.1571  -25.8376  -46.9550 N.am      1 UNK        -0.4884 
      5 CA         17.5990  -25.8404  -46.6896 C.3       1 UNK         0.0853 
      6 C6         18.2579  -27.1675  -47.1530 C.3       10 UNK        -0.0849 
      7 S7         17.5329  -28.6695  -46.4005 S.3       10 UNK        -0.2776 
      8 C8         18.8658  -29.1649  -45.2668 C.3       10 UNK         0.0316 
      9 C9         18.3311  -30.0186  -44.1291 C.ar      10 UNK        -0.0863 
     10 C10        18.1559  -31.3937  -44.2995 C.ar      10 UNK        -0.1009 
     11 C11        17.6910  -32.1819  -43.2435 C.ar      10 UNK        -0.0712 
     12 C12        17.4003  -31.5824  -42.0145 C.ar      10 UNK        -0.0894 
     13 C13        17.5547  -30.2044  -41.8287 C.ar      10 UNK        -0.0745 
     14 C14        18.0168  -29.4286  -42.9012 C.ar      10 UNK        -0.0972 
     15 C15        17.1824  -29.6194  -40.4623 C.3       10 UNK         0.0209 
     16 S16        17.3323  -27.8056  -40.2849 S.3       10 UNK        -0.2568 
     17 C17        19.0533  -27.5943  -39.7084 C.3       10 UNK        -0.0983 
     18 CA         20.0574  -27.2404  -40.8340 C.3       3 UNK         0.0876 
     19 N          19.5997  -26.1273  -41.6754 N.am      3 UNK        -0.4424 
     20 C          20.0579  -25.8837  -42.9086 C.2       2 UNK         0.4918 
     21 O          20.8698  -26.5988  -43.4978 O.2       2 UNK        -0.4875 
     22 CA         19.5385  -24.6122  -43.5952 C.3       2 UNK         0.0481 
     23 CB         20.6505  -23.5530  -43.6690 C.3       2 UNK        -0.1831 
     24 N          19.0579  -24.9122  -44.9443 N.am      2 UNK        -0.4498 
     25 C          17.8949  -25.5239  -45.2059 C.2       1 UNK         0.5027 
     26 O          17.0847  -25.8450  -44.3314 O.2       1 UNK        -0.4969 
     27 C          21.4514  -26.9501  -40.2393 C.2       3 UNK         0.5005 
     28 O          22.2371  -27.8791  -40.0441 O.2       3 UNK        -0.5279 
     29 N          21.7392  -25.6647  -39.9771 N.am      4 UNK        -0.4463 
     30 CA         23.0381  -25.1600  -39.5279 C.3       4 UNK         0.0283 
     31 CB         22.9241  -23.6567  -39.2298 C.3       4 UNK        -0.1875 
     32 C          24.1294  -25.4175  -40.5781 C.2       4 UNK         0.4949 
     33 O          23.8574  -25.3119  -41.7755 O.2       4 UNK        -0.5039 
     34 N          25.3284  -25.7860  -40.1095 N.am      5 UNK        -0.4663 
     35 CA         26.5147  -26.2185  -40.8685 C.3       5 UNK         0.0242 
     36 CB         27.0026  -25.1297  -41.8451 C.3       5 UNK        -0.1982 
     37 C          26.3557  -27.5781  -41.5793 C.2       5 UNK         0.5017 
     38 O          27.3207  -28.3418  -41.6176 O.2       5 UNK        -0.5012 
     39 N          25.1570  -27.8710  -42.1017 N.am      6 UNK        -0.4439 
     40 CA         24.7702  -29.1601  -42.6776 C.3       6 UNK         0.0297 
     41 CB         23.4074  -29.0247  -43.3779 C.3       6 UNK        -0.2006 
     42 C          24.7376  -30.2790  -41.6223 C.2       6 UNK         0.4892 
     43 O          25.3025  -31.3464  -41.8609 O.2       6 UNK        -0.5089 
     44 N          24.1109  -29.9930  -40.4693 N.am      7 UNK        -0.4243 
     45 CA         23.9178  -30.8730  -39.3141 C.3       7 UNK         0.0196 
     46 CB         25.2635  -31.2326  -38.6439 C.3       7 UNK        -0.2007 
     47 C          23.0536  -32.0902  -39.6810 C.2       7 UNK         0.5020 
     48 O          21.8287  -31.9674  -39.7167 O.2       7 UNK        -0.5147 
     49 N          23.6871  -33.2333  -39.9710 N.am      8 UNK        -0.4734 
     50 CA         23.0479  -34.4900  -40.3759 C.3       8 UNK         0.0238 
     51 CB         24.0100  -35.6539  -40.0703 C.3       8 UNK        -0.1912 
     52 C          22.5833  -34.4711  -41.8487 C.2       8 UNK         0.5038 
     53 O          22.9522  -35.3580  -42.6220 O.2       8 UNK        -0.5046 
     54 N          21.7745  -33.4629  -42.1951 N.am      9 UNK        -0.4200 
     55 CA         21.1851  -33.1985  -43.5169 C.3       9 UNK         0.0839 
     56 C          22.2265  -32.8299  -44.6169 C.2       9 UNK         0.5513 
     57 N          21.7856  -32.6036  -45.8480 N.am      9 UNK        -0.7519 
     58 O          23.4237  -32.7038  -44.3739 O.2       9 UNK        -0.4960 
     59 C59        20.1936  -34.3124  -43.9704 C.3       10 UNK        -0.0876 
     60 S60        18.8744  -34.6424  -42.7502 S.3       10 UNK        -0.2414 
     61 C61        17.4871  -33.6787  -43.4284 C.3       10 UNK         0.0169 
     62 H62        13.6341  -26.0005  -47.2832 H         1 UNK         0.0903 
     63 H63        13.3480  -24.5134  -46.3772 H         1 UNK         0.0903 
     64 H64        13.5663  -24.4529  -48.1285 H         1 UNK         0.0903 
     65 H65        15.7294  -26.7529  -46.9850 H         1 UNK         0.3096 
     66 H66        18.0379  -25.0345  -47.2830 H         1 UNK         0.1121 
     67 H67        18.1469  -27.2606  -48.2345 H         1 UNK         0.0849 
     68 H68        19.3356  -27.1434  -46.9804 H         1 UNK         0.0849 
     69 H69        19.6328  -29.7087  -45.8205 H         1 UNK         0.0865 
     70 H70        19.3545  -28.2796  -44.8602 H         1 UNK         0.0865 
     71 H71        18.3815  -31.8482  -45.2542 H         1 UNK         0.1346 
     72 H72        17.0413  -32.1956  -41.1987 H         1 UNK         0.1412 
     73 H73        18.1307  -28.3594  -42.7993 H         1 UNK         0.1426 
     74 H74        17.7689  -30.1123  -39.6858 H         1 UNK         0.0716 
     75 H75        16.1415  -29.8770  -40.2616 H         1 UNK         0.0716 
     76 H76        19.0387  -26.8058  -38.9533 H         1 UNK         0.0695 
     77 H77        19.3741  -28.4981  -39.1869 H         1 UNK         0.0695 
     78 H78        20.1680  -28.1228  -41.4681 H         1 UNK         0.0983 
     79 H79        18.8904  -25.5266  -41.2803 H         1 UNK         0.3095 
     80 H80        18.7128  -24.1970  -43.0129 H         1 UNK         0.0454 
     81 H81        21.5081  -23.9054  -44.2439 H         1 UNK         0.0851 
     82 H82        20.2930  -22.6311  -44.1277 H         1 UNK         0.0851 
     83 H83        21.0143  -23.2989  -42.6725 H         1 UNK         0.0851 
     84 H84        19.6940  -24.7111  -45.7025 H         1 UNK         0.2976 
     85 H85        21.0409  -24.9714  -40.1985 H         1 UNK         0.3116 
     86 H86        23.2985  -25.6836  -38.6056 H         1 UNK         0.0646 
     87 H87        23.8724  -23.2579  -38.8669 H         1 UNK         0.0847 
     88 H88        22.1765  -23.4578  -38.4617 H         1 UNK         0.0847 
     89 H89        22.6527  -23.0878  -40.1202 H         1 UNK         0.0847 
     90 H90        25.4281  -25.8565  -39.1053 H         1 UNK         0.3040 
     91 H91        27.3003  -26.3575  -40.1234 H         1 UNK         0.1015 
     92 H92        27.1596  -24.1797  -41.3342 H         1 UNK         0.0786 
     93 H93        26.2980  -24.9610  -42.6597 H         1 UNK         0.0786 
     94 H94        27.9531  -25.4150  -42.2979 H         1 UNK         0.0786 
     95 H95        24.4460  -27.1466  -42.0556 H         1 UNK         0.3172 
     96 H96        25.5143  -29.4279  -43.4305 H         1 UNK         0.0595 
     97 H97        23.4361  -28.2694  -44.1634 H         1 UNK         0.0839 
     98 H98        22.6153  -28.7473  -42.6816 H         1 UNK         0.0839 
     99 H99        23.1147  -29.9653  -43.8447 H         1 UNK         0.0839 
    100 H100       23.6130  -29.1067  -40.4053 H         1 UNK         0.2998 
    101 H101       23.3390  -30.2970  -38.5900 H         1 UNK         0.0822 
    102 H102       25.7714  -30.3355  -38.2896 H         1 UNK         0.0787 
    103 H103       25.1077  -31.8763  -37.7772 H         1 UNK         0.0787 
    104 H104       25.9476  -31.7489  -39.3175 H         1 UNK         0.0787 
    105 H105       24.6968  -33.2106  -40.0052 H         1 UNK         0.3055 
    106 H106       22.1518  -34.6347  -39.7678 H         1 UNK         0.1106 
    107 H107       24.9299  -35.5802  -40.6516 H         1 UNK         0.0828 
    108 H108       24.2801  -35.6799  -39.0145 H         1 UNK         0.0828 
    109 H109       23.5501  -36.6144  -40.3072 H         1 UNK         0.0828 
    110 H110       21.5584  -32.7830  -41.4733 H         1 UNK         0.2931 
    111 H111       20.6140  -32.2829  -43.3672 H         1 UNK         0.0412 
    112 H112       22.4526  -32.3527  -46.5611 H         1 UNK         0.3472 
    113 H113       20.8096  -32.6765  -46.0836 H         1 UNK         0.3472 
    114 H114       20.7308  -35.2452  -44.1489 H         1 UNK         0.0970 
    115 H115       19.7250  -34.0602  -44.9218 H         1 UNK         0.0970 
    116 H116       16.5708  -33.9836  -42.9210 H         1 UNK         0.0612 
    117 H117       17.3451  -33.9255  -44.4817 H         1 UNK         0.0612 
@<TRIPOS>BOND
     1    1    2 1    
     2    1   62 1    
     3    1   63 1    
     4    1   64 1    
     5    2    3 2    
     6    2    4 am   BACKBONE|DICT|INTERRES
     7    4    5 1    
     8    4   65 1    
     9    5    6 1    
    10    5   25 1    
    11    5   66 1    
    12    6    7 1    
    13    6   67 1    
    14    6   68 1    
    15    7    8 1    
    16    8    9 1    
    17    8   69 1    
    18    8   70 1    
    19    9   10 ar   
    20    9   14 ar   
    21   10   11 ar   
    22   10   71 1    
    23   11   12 ar   
    24   11   61 1    
    25   12   13 ar   
    26   12   72 1    
    27   13   14 ar   
    28   13   15 1    
    29   14   73 1    
    30   15   16 1    
    31   15   74 1    
    32   15   75 1    
    33   16   17 1    
    34   17   18 1    
    35   17   76 1    
    36   17   77 1    
    37   18   19 1    
    38   18   27 1    
    39   18   78 1    
    40   19   20 am   BACKBONE|DICT|INTERRES
    41   19   79 1    
    42   20   21 2    
    43   20   22 1    
    44   22   23 1    
    45   22   24 1    
    46   22   80 1    
    47   23   81 1    
    48   23   82 1    
    49   23   83 1    
    50   24   25 am   BACKBONE|DICT|INTERRES
    51   24   84 1    
    52   25   26 2    
    53   27   28 2    
    54   27   29 am   BACKBONE|DICT|INTERRES
    55   29   30 1    
    56   29   85 1    
    57   30   31 1    
    58   30   32 1    
    59   30   86 1    
    60   31   87 1    
    61   31   88 1    
    62   31   89 1    
    63   32   33 2    
    64   32   34 am   BACKBONE|DICT|INTERRES
    65   34   35 1    
    66   34   90 1    
    67   35   36 1    
    68   35   37 1    
    69   35   91 1    
    70   36   92 1    
    71   36   93 1    
    72   36   94 1    
    73   37   38 2    
    74   37   39 am   BACKBONE|DICT|INTERRES
    75   39   40 1    
    76   39   95 1    
    77   40   41 1    
    78   40   42 1    
    79   40   96 1    
    80   41   97 1    
    81   41   98 1    
    82   41   99 1    
    83   42   43 2    
    84   42   44 am   BACKBONE|DICT|INTERRES
    85   44   45 1    
    86   44  100 1    
    87   45   46 1    
    88   45   47 1    
    89   45  101 1    
    90   46  102 1    
    91   46  103 1    
    92   46  104 1    
    93   47   48 2    
    94   47   49 am   BACKBONE|DICT|INTERRES
    95   49   50 1    
    96   49  105 1    
    97   50   51 1    
    98   50   52 1    
    99   50  106 1    
   100   51  107 1    
   101   51  108 1    
   102   51  109 1    
   103   52   53 2    
   104   52   54 am   BACKBONE|DICT|INTERRES
   105   54   55 1    
   106   54  110 1    
   107   55   56 1    
   108   55   59 1    
   109   55  111 1    
   110   56   57 am   BACKBONE|DICT|INTERRES
   111   56   58 2    
   112   57  112 1    
   113   57  113 1    
   114   59   60 1    
   115   59  114 1    
   116   59  115 1    
   117   60   61 1    
   118   61  116 1    
   119   61  117 1    
@<TRIPOS>SUBSTRUCTURE
     1 UNK         1 GROUP             0       ****    0 ROOT    
