@<TRIPOS>MOLECULE
3R8
117   119    1
SMALL
USER_CHARGES


@<TRIPOS>ATOM
      1 CA         23.2993  -27.7282  -48.7296 C.3       0 UNK        -0.2013 
      2 C          22.4179  -27.8016  -47.4926 C.2       0 UNK         0.4866 
      3 O          22.9170  -28.0644  -46.3981 O.2       0 UNK        -0.5176 
      4 N          21.1098  -27.5613  -47.6494 N.am      1 UNK        -0.4884 
      5 CA         20.0984  -27.6020  -46.5849 C.3       1 UNK         0.0853 
      6 C6         18.6833  -27.8830  -47.1490 C.3       10 UNK        -0.0849 
      7 S7         18.5420  -29.6118  -47.7120 S.3       10 UNK        -0.2776 
      8 C8         16.9493  -30.1222  -46.9866 C.3       10 UNK         0.0316 
      9 C9         16.9591  -30.1699  -45.4612 C.ar      10 UNK        -0.0863 
     10 C10        17.6434  -31.1891  -44.7893 C.ar      10 UNK        -0.1009 
     11 C11        17.5672  -31.2953  -43.3963 C.ar      10 UNK        -0.0712 
     12 C12        16.8089  -30.3687  -42.6761 C.ar      10 UNK        -0.0894 
     13 C13        16.1348  -29.3340  -43.3309 C.ar      10 UNK        -0.0745 
     14 C14        16.2177  -29.2388  -44.7240 C.ar      10 UNK        -0.0972 
     15 C15        15.2498  -28.3715  -42.5458 C.3       10 UNK         0.0209 
     16 S16        16.0987  -27.5910  -41.1332 S.3       10 UNK        -0.2568 
     17 C17        17.1982  -26.3940  -41.9600 C.3       10 UNK        -0.0983 
     18 CA         18.6952  -26.6357  -41.6469 C.3       3 UNK         0.0876 
     19 N          19.5405  -25.9170  -42.6007 N.am      3 UNK        -0.4424 
     20 C          20.8785  -25.9071  -42.6501 C.2       2 UNK         0.4918 
     21 O          21.6146  -26.4763  -41.8393 O.2       2 UNK        -0.4875 
     22 CA         21.4783  -25.2339  -43.8990 C.3       2 UNK         0.0481 
     23 CB         22.9750  -24.9212  -43.7416 C.3       2 UNK        -0.1831 
     24 N          21.3006  -26.1241  -45.0458 N.am      2 UNK        -0.4498 
     25 C          20.1486  -26.3433  -45.6916 C.2       1 UNK         0.5027 
     26 O          19.1543  -25.6260  -45.5584 O.2       1 UNK        -0.4969 
     27 C          19.0461  -26.2764  -40.1883 C.2       3 UNK         0.5005 
     28 O          19.0600  -25.0926  -39.8411 O.2       3 UNK        -0.5279 
     29 N          19.3389  -27.3095  -39.3830 N.am      4 UNK        -0.4463 
     30 CA         19.7724  -27.2509  -37.9796 C.3       4 UNK         0.0283 
     31 CB         18.6575  -26.6741  -37.0807 C.3       4 UNK        -0.1875 
     32 C          21.1291  -26.5440  -37.7653 C.2       4 UNK         0.4949 
     33 O          21.4229  -26.1282  -36.6432 O.2       4 UNK        -0.5039 
     34 N          21.9371  -26.4343  -38.8267 N.am      5 UNK        -0.4663 
     35 CA         23.2609  -25.8239  -38.8258 C.3       5 UNK         0.0242 
     36 CB         23.1662  -24.3959  -39.4050 C.3       5 UNK        -0.1982 
     37 C          24.2275  -26.7592  -39.5673 C.2       5 UNK         0.5017 
     38 O          24.4950  -27.8541  -39.0711 O.2       5 UNK        -0.5012 
     39 N          24.7505  -26.3180  -40.7182 N.am      6 UNK        -0.4439 
     40 CA         25.7864  -27.0087  -41.4909 C.3       6 UNK         0.0297 
     41 CB         26.5122  -25.9839  -42.3812 C.3       6 UNK        -0.2006 
     42 C          25.2959  -28.2108  -42.3231 C.2       6 UNK         0.4892 
     43 O          26.1433  -28.9198  -42.8692 O.2       6 UNK        -0.5089 
     44 N          23.9749  -28.4227  -42.4375 N.am      7 UNK        -0.4243 
     45 CA         23.3857  -29.5414  -43.1827 C.3       7 UNK         0.0196 
     46 CB         21.8594  -29.3858  -43.2442 C.3       7 UNK        -0.2007 
     47 C          23.7470  -30.9095  -42.5815 C.2       7 UNK         0.5020 
     48 O          23.6856  -31.0847  -41.3624 O.2       7 UNK        -0.5147 
     49 N          24.0705  -31.8728  -43.4522 N.am      8 UNK        -0.4734 
     50 CA         24.4203  -33.2511  -43.0960 C.3       8 UNK         0.0238 
     51 CB         25.3281  -33.8336  -44.1962 C.3       8 UNK        -0.1912 
     52 C          23.1649  -34.1095  -42.8444 C.2       8 UNK         0.5038 
     53 O          22.9632  -35.1224  -43.5174 O.2       8 UNK        -0.5046 
     54 N          22.3319  -33.6726  -41.8934 N.am      9 UNK        -0.4200 
     55 CA         21.0741  -34.3288  -41.5019 C.3       9 UNK         0.0839 
     56 C          21.2515  -35.6394  -40.6804 C.2       9 UNK         0.5513 
     57 N          22.4392  -35.9612  -40.1815 N.am      9 UNK        -0.7519 
     58 O          20.2898  -36.3811  -40.4969 O.2       9 UNK        -0.4960 
     59 C59        20.1166  -33.3496  -40.7743 C.3       10 UNK        -0.0876 
     60 S60        19.7220  -31.8645  -41.7585 S.3       10 UNK        -0.2414 
     61 C61        18.2524  -32.4372  -42.6617 C.3       10 UNK         0.0169 
     62 H62        22.7269  -27.4881  -49.6254 H         1 UNK         0.0903 
     63 H63        24.0641  -26.9630  -48.5995 H         1 UNK         0.0903 
     64 H64        23.7973  -28.6838  -48.8910 H         1 UNK         0.0903 
     65 H65        20.7585  -27.3366  -48.5697 H         1 UNK         0.3096 
     66 H66        20.3433  -28.4333  -45.9191 H         1 UNK         0.1121 
     67 H67        17.9196  -27.7041  -46.3911 H         1 UNK         0.0849 
     68 H68        18.4485  -27.2103  -47.9757 H         1 UNK         0.0849 
     69 H69        16.1649  -29.4554  -47.3486 H         1 UNK         0.0865 
     70 H70        16.6964  -31.1126  -47.3679 H         1 UNK         0.0865 
     71 H71        18.2104  -31.9157  -45.3554 H         1 UNK         0.1346 
     72 H72        16.7324  -30.4630  -41.6013 H         1 UNK         0.1412 
     73 H73        15.6729  -28.4593  -45.2394 H         1 UNK         0.1426 
     74 H74        14.3917  -28.9280  -42.1667 H         1 UNK         0.0716 
     75 H75        14.8444  -27.5918  -43.1926 H         1 UNK         0.0716 
     76 H76        16.8961  -25.3837  -41.6770 H         1 UNK         0.0695 
     77 H77        17.0320  -26.4620  -43.0366 H         1 UNK         0.0695 
     78 H78        18.9060  -27.6958  -41.8068 H         1 UNK         0.0983 
     79 H79        19.0521  -25.4552  -43.3572 H         1 UNK         0.3095 
     80 H80        20.9496  -24.2951  -44.0767 H         1 UNK         0.0454 
     81 H81        23.5607  -25.8307  -43.6137 H         1 UNK         0.0851 
     82 H82        23.1538  -24.2828  -42.8764 H         1 UNK         0.0851 
     83 H83        23.3623  -24.3976  -44.6156 H         1 UNK         0.0851 
     84 H84        22.0661  -26.7604  -45.2546 H         1 UNK         0.2976 
     85 H85        19.2962  -28.2404  -39.7756 H         1 UNK         0.3116 
     86 H86        19.9305  -28.2866  -37.6755 H         1 UNK         0.0646 
     87 H87        18.4960  -25.6119  -37.2663 H         1 UNK         0.0847 
     88 H88        18.9093  -26.7826  -36.0251 H         1 UNK         0.0847 
     89 H89        17.7110  -27.1906  -37.2401 H         1 UNK         0.0847 
     90 H90        21.6248  -26.7920  -39.7226 H         1 UNK         0.3040 
     91 H91        23.6418  -25.7500  -37.8047 H         1 UNK         0.1015 
     92 H92        22.5300  -23.7693  -38.7795 H         1 UNK         0.0786 
     93 H93        22.7405  -24.3855  -40.4085 H         1 UNK         0.0786 
     94 H94        24.1443  -23.9142  -39.4432 H         1 UNK         0.0786 
     95 H95        24.4518  -25.4163  -41.0589 H         1 UNK         0.3172 
     96 H96        26.5200  -27.4030  -40.7842 H         1 UNK         0.0595 
     97 H97        25.8483  -25.5398  -43.1222 H         1 UNK         0.0839 
     98 H98        27.3343  -26.4515  -42.9249 H         1 UNK         0.0839 
     99 H99        26.9421  -25.1764  -41.7883 H         1 UNK         0.0839 
    100 H100       23.3329  -27.8004  -41.9619 H         1 UNK         0.2998 
    101 H101       23.7745  -29.4951  -44.2022 H         1 UNK         0.0822 
    102 H102       21.5788  -28.4916  -43.7919 H         1 UNK         0.0787 
    103 H103       21.3972  -30.2295  -43.7587 H         1 UNK         0.0787 
    104 H104       21.4192  -29.3253  -42.2482 H         1 UNK         0.0787 
    105 H105       24.0535  -31.6579  -44.4393 H         1 UNK         0.3055 
    106 H106       24.9933  -33.2431  -42.1657 H         1 UNK         0.1106 
    107 H107       25.6427  -34.8481  -43.9470 H         1 UNK         0.0828 
    108 H108       24.8203  -33.8773  -45.1605 H         1 UNK         0.0828 
    109 H109       26.2333  -33.2387  -44.3198 H         1 UNK         0.0828 
    110 H110       22.5661  -32.8102  -41.4139 H         1 UNK         0.2931 
    111 H111       20.5760  -34.6311  -42.4253 H         1 UNK         0.0412 
    112 H112       23.2341  -35.3589  -40.3226 H         1 UNK         0.3472 
    113 H113       22.5393  -36.8151  -39.6548 H         1 UNK         0.3472 
    114 H114       19.1844  -33.8482  -40.5016 H         1 UNK         0.0970 
    115 H115       20.5620  -33.0200  -39.8339 H         1 UNK         0.0970 
    116 H116       17.5446  -32.8857  -41.9630 H         1 UNK         0.0612 
    117 H117       18.5449  -33.2253  -43.3572 H         1 UNK         0.0612 
@<TRIPOS>BOND
     1    1    2 1    
     2    1   62 1    
     3    1   63 1    
     4    1   64 1    
     5    2    3 2    
     6    2    4 am   BACKBONE|DICT|INTERRES
     7    4    5 1    
     8    4   65 1    
     9    5    6 1    
    10    5   25 1    
    11    5   66 1    
    12    6    7 1    
    13    6   67 1    
    14    6   68 1    
    15    7    8 1    
    16    8    9 1    
    17    8   69 1    
    18    8   70 1    
    19    9   10 ar   
    20    9   14 ar   
    21   10   11 ar   
    22   10   71 1    
    23   11   12 ar   
    24   11   61 1    
    25   12   13 ar   
    26   12   72 1    
    27   13   14 ar   
    28   13   15 1    
    29   14   73 1    
    30   15   16 1    
    31   15   74 1    
    32   15   75 1    
    33   16   17 1    
    34   17   18 1    
    35   17   76 1    
    36   17   77 1    
    37   18   19 1    
    38   18   27 1    
    39   18   78 1    
    40   19   20 am   BACKBONE|DICT|INTERRES
    41   19   79 1    
    42   20   21 2    
    43   20   22 1    
    44   22   23 1    
    45   22   24 1    
    46   22   80 1    
    47   23   81 1    
    48   23   82 1    
    49   23   83 1    
    50   24   25 am   BACKBONE|DICT|INTERRES
    51   24   84 1    
    52   25   26 2    
    53   27   28 2    
    54   27   29 am   BACKBONE|DICT|INTERRES
    55   29   30 1    
    56   29   85 1    
    57   30   31 1    
    58   30   32 1    
    59   30   86 1    
    60   31   87 1    
    61   31   88 1    
    62   31   89 1    
    63   32   33 2    
    64   32   34 am   BACKBONE|DICT|INTERRES
    65   34   35 1    
    66   34   90 1    
    67   35   36 1    
    68   35   37 1    
    69   35   91 1    
    70   36   92 1    
    71   36   93 1    
    72   36   94 1    
    73   37   38 2    
    74   37   39 am   BACKBONE|DICT|INTERRES
    75   39   40 1    
    76   39   95 1    
    77   40   41 1    
    78   40   42 1    
    79   40   96 1    
    80   41   97 1    
    81   41   98 1    
    82   41   99 1    
    83   42   43 2    
    84   42   44 am   BACKBONE|DICT|INTERRES
    85   44   45 1    
    86   44  100 1    
    87   45   46 1    
    88   45   47 1    
    89   45  101 1    
    90   46  102 1    
    91   46  103 1    
    92   46  104 1    
    93   47   48 2    
    94   47   49 am   BACKBONE|DICT|INTERRES
    95   49   50 1    
    96   49  105 1    
    97   50   51 1    
    98   50   52 1    
    99   50  106 1    
   100   51  107 1    
   101   51  108 1    
   102   51  109 1    
   103   52   53 2    
   104   52   54 am   BACKBONE|DICT|INTERRES
   105   54   55 1    
   106   54  110 1    
   107   55   56 1    
   108   55   59 1    
   109   55  111 1    
   110   56   57 am   BACKBONE|DICT|INTERRES
   111   56   58 2    
   112   57  112 1    
   113   57  113 1    
   114   59   60 1    
   115   59  114 1    
   116   59  115 1    
   117   60   61 1    
   118   61  116 1    
   119   61  117 1    
@<TRIPOS>SUBSTRUCTURE
     1 UNK         1 GROUP             0       ****    0 ROOT    
