@<TRIPOS>MOLECULE
3R8
117   119    1
SMALL
USER_CHARGES


@<TRIPOS>ATOM
      1 CA         14.3278  -25.1589  -49.2322 C.3       0 UNK        -0.2013 
      2 C          15.1884  -25.8478  -48.1836 C.2       0 UNK         0.4866 
      3 O          16.2683  -26.3433  -48.5073 O.2       0 UNK        -0.5176 
      4 N          14.7151  -25.8911  -46.9320 N.am      1 UNK        -0.4884 
      5 CA         15.4269  -26.4679  -45.7871 C.3       1 UNK         0.0853 
      6 C6         14.4889  -26.6566  -44.5693 C.3       10 UNK        -0.0849 
      7 S7         13.3880  -28.0900  -44.8144 S.3       10 UNK        -0.2776 
      8 C8         13.5745  -29.0054  -43.2446 C.3       10 UNK         0.0316 
      9 C9         15.0178  -29.3717  -42.9058 C.ar      10 UNK        -0.0863 
     10 C10        15.8111  -30.0835  -43.8136 C.ar      10 UNK        -0.1009 
     11 C11        17.1242  -30.4358  -43.4846 C.ar      10 UNK        -0.0712 
     12 C12        17.6286  -30.0963  -42.2262 C.ar      10 UNK        -0.0894 
     13 C13        16.8620  -29.3629  -41.3206 C.ar      10 UNK        -0.0745 
     14 C14        15.5551  -29.0054  -41.6658 C.ar      10 UNK        -0.0972 
     15 C15        17.4421  -28.9608  -39.9713 C.3       10 UNK         0.0209 
     16 S16        18.2190  -27.3129  -40.0428 S.3       10 UNK        -0.2568 
     17 C17        19.9933  -27.6920  -40.2823 C.3       10 UNK        -0.0983 
     18 CA         20.4125  -27.8504  -41.7657 C.3       3 UNK         0.0876 
     19 N          19.9330  -26.7546  -42.6153 N.am      3 UNK        -0.4424 
     20 C          19.7176  -26.8843  -43.9285 C.2       2 UNK         0.4918 
     21 O          20.0013  -27.8921  -44.5792 O.2       2 UNK        -0.4875 
     22 CA         19.0096  -25.7234  -44.6270 C.3       2 UNK         0.0481 
     23 CB         19.8671  -25.1217  -45.7542 C.3       2 UNK        -0.1831 
     24 N          17.7735  -26.2784  -45.1589 N.am      2 UNK        -0.4498 
     25 C          16.6450  -25.6074  -45.4014 C.2       1 UNK         0.5027 
     26 O          16.5265  -24.3842  -45.2917 O.2       1 UNK        -0.4969 
     27 C          21.9252  -28.1144  -41.8975 C.2       3 UNK         0.5005 
     28 O          22.3556  -29.2193  -41.5641 O.2       3 UNK        -0.5279 
     29 N          22.6719  -27.1159  -42.3984 N.am      4 UNK        -0.4463 
     30 CA         24.1270  -27.0477  -42.5906 C.3       4 UNK         0.0283 
     31 CB         24.6603  -28.2628  -43.3773 C.3       4 UNK        -0.1875 
     32 C          24.8986  -26.8623  -41.2734 C.2       4 UNK         0.4949 
     33 O          24.4268  -27.2504  -40.2041 O.2       4 UNK        -0.5039 
     34 N          26.1064  -26.2908  -41.3788 N.am      5 UNK        -0.4663 
     35 CA         27.0163  -26.0536  -40.2488 C.3       5 UNK         0.0242 
     36 CB         28.1796  -25.1608  -40.7100 C.3       5 UNK        -0.1982 
     37 C          27.5502  -27.3495  -39.6113 C.2       5 UNK         0.5017 
     38 O          27.8283  -27.3674  -38.4123 O.2       5 UNK        -0.5012 
     39 N          27.6543  -28.4115  -40.4213 N.am      6 UNK        -0.4439 
     40 CA         28.0049  -29.7681  -39.9954 C.3       6 UNK         0.0297 
     41 CB         28.5792  -30.5278  -41.2038 C.3       6 UNK        -0.2006 
     42 C          26.8183  -30.5448  -39.3874 C.2       6 UNK         0.4892 
     43 O          27.0406  -31.6386  -38.8655 O.2       6 UNK        -0.5089 
     44 N          25.6002  -29.9842  -39.4765 N.am      7 UNK        -0.4243 
     45 CA         24.3015  -30.5726  -39.1291 C.3       7 UNK         0.0196 
     46 CB         24.2479  -30.9690  -37.6365 C.3       7 UNK        -0.2007 
     47 C          23.9012  -31.7319  -40.0651 C.2       7 UNK         0.5020 
     48 O          24.6191  -32.0530  -41.0161 O.2       7 UNK        -0.5147 
     49 N          22.7286  -32.3228  -39.7892 N.am      8 UNK        -0.4734 
     50 CA         22.1471  -33.4976  -40.4580 C.3       8 UNK         0.0238 
     51 CB         22.9425  -34.7660  -40.0800 C.3       8 UNK        -0.1912 
     52 C          21.9714  -33.3441  -41.9843 C.2       8 UNK         0.5038 
     53 O          22.1037  -34.3296  -42.7129 O.2       8 UNK        -0.5046 
     54 N          21.6821  -32.1145  -42.4326 N.am      9 UNK        -0.4200 
     55 CA         21.5469  -31.7087  -43.8430 C.3       9 UNK         0.0839 
     56 C          22.9019  -31.6181  -44.6089 C.2       9 UNK         0.5513 
     57 N          24.0542  -31.7148  -43.9547 N.am      9 UNK        -0.7519 
     58 O          22.9125  -31.4323  -45.8231 O.2       9 UNK        -0.4960 
     59 C59        20.4712  -32.5092  -44.6438 C.3       10 UNK        -0.0876 
     60 S60        18.8466  -32.6002  -43.8137 S.3       10 UNK        -0.2414 
     61 C61        18.0198  -31.1303  -44.5022 C.3       10 UNK         0.0169 
     62 H62        14.0766  -25.8579  -50.0296 H         1 UNK         0.0903 
     63 H63        13.3979  -24.7772  -48.8109 H         1 UNK         0.0903 
     64 H64        14.8699  -24.3217  -49.6710 H         1 UNK         0.0903 
     65 H65        13.8265  -25.4600  -46.7209 H         1 UNK         0.3096 
     66 H66        15.7981  -27.4498  -46.0920 H         1 UNK         0.1121 
     67 H67        13.8842  -25.7641  -44.3976 H         1 UNK         0.0849 
     68 H68        15.0633  -26.8012  -43.6525 H         1 UNK         0.0849 
     69 H69        13.1291  -28.4107  -42.4454 H         1 UNK         0.0865 
     70 H70        12.9866  -29.9224  -43.3026 H         1 UNK         0.0865 
     71 H71        15.4066  -30.3511  -44.7804 H         1 UNK         0.1346 
     72 H72        18.6274  -30.4042  -41.9555 H         1 UNK         0.1412 
     73 H73        14.9553  -28.4446  -40.9616 H         1 UNK         0.1426 
     74 H74        16.6462  -28.9369  -39.2255 H         1 UNK         0.0716 
     75 H75        18.1578  -29.7063  -39.6218 H         1 UNK         0.0716 
     76 H76        20.2448  -28.5904  -39.7154 H         1 UNK         0.0695 
     77 H77        20.5608  -26.8819  -39.8204 H         1 UNK         0.0695 
     78 H78        19.9495  -28.7602  -42.1363 H         1 UNK         0.0983 
     79 H79        19.6340  -25.9152  -42.1396 H         1 UNK         0.3095 
     80 H80        18.7766  -24.9459  -43.8960 H         1 UNK         0.0454 
     81 H81        19.3527  -24.2963  -46.2464 H         1 UNK         0.0851 
     82 H82        20.1116  -25.8635  -46.5156 H         1 UNK         0.0851 
     83 H83        20.8073  -24.7314  -45.3630 H         1 UNK         0.0851 
     84 H84        17.7864  -27.2853  -45.2630 H         1 UNK         0.2976 
     85 H85        22.1785  -26.2617  -42.6151 H         1 UNK         0.3116 
     86 H86        24.2970  -26.1565  -43.1969 H         1 UNK         0.0646 
     87 H87        24.0682  -28.4505  -44.2731 H         1 UNK         0.0847 
     88 H88        25.6896  -28.1020  -43.6988 H         1 UNK         0.0847 
     89 H89        24.6522  -29.1723  -42.7754 H         1 UNK         0.0847 
     90 H90        26.4265  -25.9890  -42.2888 H         1 UNK         0.3040 
     91 H91        26.4595  -25.5193  -39.4754 H         1 UNK         0.1015 
     92 H92        28.7651  -25.6333  -41.4998 H         1 UNK         0.0786 
     93 H93        28.8595  -24.9484  -39.8835 H         1 UNK         0.0786 
     94 H94        27.8204  -24.2020  -41.0846 H         1 UNK         0.0786 
     95 H95        27.4126  -28.2878  -41.3937 H         1 UNK         0.3172 
     96 H96        28.7823  -29.7070  -39.2308 H         1 UNK         0.0595 
     97 H97        27.8390  -30.6428  -41.9970 H         1 UNK         0.0839 
     98 H98        28.9038  -31.5291  -40.9171 H         1 UNK         0.0839 
     99 H99        29.4467  -30.0165  -41.6215 H         1 UNK         0.0839 
    100 H100       25.5320  -29.0707  -39.9077 H         1 UNK         0.2998 
    101 H101       23.5717  -29.7776  -39.2870 H         1 UNK         0.0822 
    102 H102       23.2267  -31.1758  -37.3157 H         1 UNK         0.0787 
    103 H103       24.8380  -31.8627  -37.4310 H         1 UNK         0.0787 
    104 H104       24.6234  -30.1670  -37.0008 H         1 UNK         0.0787 
    105 H105       22.1907  -31.9574  -39.0154 H         1 UNK         0.3055 
    106 H106       21.1381  -33.6122  -40.0584 H         1 UNK         0.1106 
    107 H107       22.4531  -35.6655  -40.4558 H         1 UNK         0.0828 
    108 H108       23.9510  -34.7464  -40.4947 H         1 UNK         0.0828 
    109 H109       23.0269  -34.8749  -38.9988 H         1 UNK         0.0828 
    110 H110       21.6927  -31.3492  -41.7701 H         1 UNK         0.2931 
    111 H111       21.1952  -30.6774  -43.7956 H         1 UNK         0.0412 
    112 H112       24.9166  -31.6505  -44.4702 H         1 UNK         0.3472 
    113 H113       24.0778  -31.8552  -42.9497 H         1 UNK         0.3472 
    114 H114       20.8131  -33.5292  -44.8243 H         1 UNK         0.0970 
    115 H115       20.3311  -32.0735  -45.6348 H         1 UNK         0.0970 
    116 H116       18.7661  -30.4083  -44.8362 H         1 UNK         0.0612 
    117 H117       17.4549  -31.4277  -45.3868 H         1 UNK         0.0612 
@<TRIPOS>BOND
     1    1    2 1    
     2    1   62 1    
     3    1   63 1    
     4    1   64 1    
     5    2    3 2    
     6    2    4 am   BACKBONE|DICT|INTERRES
     7    4    5 1    
     8    4   65 1    
     9    5    6 1    
    10    5   25 1    
    11    5   66 1    
    12    6    7 1    
    13    6   67 1    
    14    6   68 1    
    15    7    8 1    
    16    8    9 1    
    17    8   69 1    
    18    8   70 1    
    19    9   10 ar   
    20    9   14 ar   
    21   10   11 ar   
    22   10   71 1    
    23   11   12 ar   
    24   11   61 1    
    25   12   13 ar   
    26   12   72 1    
    27   13   14 ar   
    28   13   15 1    
    29   14   73 1    
    30   15   16 1    
    31   15   74 1    
    32   15   75 1    
    33   16   17 1    
    34   17   18 1    
    35   17   76 1    
    36   17   77 1    
    37   18   19 1    
    38   18   27 1    
    39   18   78 1    
    40   19   20 am   BACKBONE|DICT|INTERRES
    41   19   79 1    
    42   20   21 2    
    43   20   22 1    
    44   22   23 1    
    45   22   24 1    
    46   22   80 1    
    47   23   81 1    
    48   23   82 1    
    49   23   83 1    
    50   24   25 am   BACKBONE|DICT|INTERRES
    51   24   84 1    
    52   25   26 2    
    53   27   28 2    
    54   27   29 am   BACKBONE|DICT|INTERRES
    55   29   30 1    
    56   29   85 1    
    57   30   31 1    
    58   30   32 1    
    59   30   86 1    
    60   31   87 1    
    61   31   88 1    
    62   31   89 1    
    63   32   33 2    
    64   32   34 am   BACKBONE|DICT|INTERRES
    65   34   35 1    
    66   34   90 1    
    67   35   36 1    
    68   35   37 1    
    69   35   91 1    
    70   36   92 1    
    71   36   93 1    
    72   36   94 1    
    73   37   38 2    
    74   37   39 am   BACKBONE|DICT|INTERRES
    75   39   40 1    
    76   39   95 1    
    77   40   41 1    
    78   40   42 1    
    79   40   96 1    
    80   41   97 1    
    81   41   98 1    
    82   41   99 1    
    83   42   43 2    
    84   42   44 am   BACKBONE|DICT|INTERRES
    85   44   45 1    
    86   44  100 1    
    87   45   46 1    
    88   45   47 1    
    89   45  101 1    
    90   46  102 1    
    91   46  103 1    
    92   46  104 1    
    93   47   48 2    
    94   47   49 am   BACKBONE|DICT|INTERRES
    95   49   50 1    
    96   49  105 1    
    97   50   51 1    
    98   50   52 1    
    99   50  106 1    
   100   51  107 1    
   101   51  108 1    
   102   51  109 1    
   103   52   53 2    
   104   52   54 am   BACKBONE|DICT|INTERRES
   105   54   55 1    
   106   54  110 1    
   107   55   56 1    
   108   55   59 1    
   109   55  111 1    
   110   56   57 am   BACKBONE|DICT|INTERRES
   111   56   58 2    
   112   57  112 1    
   113   57  113 1    
   114   59   60 1    
   115   59  114 1    
   116   59  115 1    
   117   60   61 1    
   118   61  116 1    
   119   61  117 1    
@<TRIPOS>SUBSTRUCTURE
     1 UNK         1 GROUP             0       ****    0 ROOT    
